MODEL 1
REMARK VINA RESULT:      -8.6      0.000      0.000
REMARK  Name = 
REMARK  7 active torsions:
REMARK  status: ('A' for Active; 'I' for Inactive)
REMARK    1  A    between atoms: C_1  and  C_2
REMARK    2  A    between atoms: C_4  and  C_5
REMARK    3  A    between atoms: C_9  and  C_10
REMARK    4  A    between atoms: N_12  and  C_13
REMARK    5  A    between atoms: C_18  and  C_19
REMARK    6  A    between atoms: C_19  and  C_20
REMARK    7  A    between atoms: C_22  and  C_23
REMARK                            x       y       z     vdW  Elec       q    Type
REMARK                         _______ _______ _______ _____ _____    ______ ____
ROOT
ATOM      1  C   UNL     1       2.431   6.880  19.042  0.00  0.00    +0.000 A 
ATOM      2  C   UNL     1       1.772   5.652  18.956  0.00  0.00    +0.000 A 
ATOM      3  C   UNL     1       2.370   4.565  18.326  0.00  0.00    +0.000 A 
ATOM      4  C   UNL     1       3.626   4.704  17.753  0.00  0.00    +0.000 A 
ATOM      5  F   UNL     1       4.171   3.608  17.207  0.00  0.00    +0.000 F 
ATOM      6  C   UNL     1       4.310   5.928  17.758  0.00  0.00    +0.000 A 
ATOM      7  C   UNL     1       3.697   7.007  18.444  0.00  0.00    +0.000 A 
ENDROOT
BRANCH   6   8
ATOM      8  C   UNL     1       5.684   6.079  17.089  0.00  0.00    +0.000 C 
ATOM      9  C   UNL     1       6.159   7.554  17.043  0.00  0.00    +0.000 C 
ATOM     10  C   UNL     1       5.622   5.550  15.687  0.00  0.00    +0.000 C 
ATOM     11  C   UNL     1       6.498   4.651  15.224  0.00  0.00    +0.000 C 
ATOM     12  O   UNL     1       7.551   4.194  16.032  0.00  0.00    +0.000 OA
ATOM     13  C   UNL     1       7.560   4.616  17.326  0.00  0.00    +0.000 C 
ATOM     14  N   UNL     1       8.591   4.076  18.018  0.00  0.00    +0.000 N 
ATOM     15  N   UNL     1       6.724   5.408  17.886  0.00  0.00    +0.000 NA
ATOM     16  H   UNL     1       8.968   3.211  17.661  0.00  0.00    +0.000 HD
ATOM     17  H   UNL     1       8.483   4.133  19.023  0.00  0.00    +0.000 HD
BRANCH  11  18
ATOM     18  C   UNL     1       6.466   4.058  13.846  0.00  0.00    +0.000 C 
ATOM     19  F   UNL     1       5.193   4.029  13.364  0.00  0.00    +0.000 F 
ATOM     20  F   UNL     1       7.188   4.793  12.956  0.00  0.00    +0.000 F 
ENDBRANCH  11  18
ENDBRANCH   6   8
BRANCH   1  23
ATOM     21  C   UNL     1       1.261   9.094  19.070  0.00  0.00    +0.000 C 
ATOM     22  O   UNL     1       1.066   9.214  17.866  0.00  0.00    +0.000 OA
ATOM     23  N   UNL     1       1.862   8.002  19.687  0.00  0.00    +0.000 N 
ATOM     24  H   UNL     1       1.876   8.033  20.703  0.00  0.00    +0.000 HD
BRANCH  21  31
ATOM     25  C   UNL     1      -0.349   8.548  21.605  0.00  0.00    +0.000 C 
ATOM     26  C   UNL     1       0.073   9.925  21.175  0.00  0.00    +0.000 A 
ATOM     27  C   UNL     1      -0.309  11.021  21.962  0.00  0.00    +0.000 A 
ATOM     28  C   UNL     1       0.055  12.315  21.591  0.00  0.00    +0.000 A 
ATOM     29  C   UNL     1       0.796  12.474  20.429  0.00  0.00    +0.000 A 
ATOM     30  N   UNL     1       1.195  11.449  19.636  0.00  0.00    +0.000 NA
ATOM     31  C   UNL     1       0.821  10.187  20.015  0.00  0.00    +0.000 A 
BRANCH  28  32
ATOM     32  C   UNL     1      -0.317  13.444  22.380  0.00  0.00    +0.000 C 
ATOM     33  N   UNL     1      -0.621  14.357  23.030  0.00  0.00    +0.000 NA
ENDBRANCH  28  32
ENDBRANCH  21  31
ENDBRANCH   1  23
TORSDOF 5
ENDMDL
MODEL 2
REMARK VINA RESULT:      -8.6      2.907      3.470
REMARK  Name = 
REMARK  7 active torsions:
REMARK  status: ('A' for Active; 'I' for Inactive)
REMARK    1  A    between atoms: C_1  and  C_2
REMARK    2  A    between atoms: C_4  and  C_5
REMARK    3  A    between atoms: C_9  and  C_10
REMARK    4  A    between atoms: N_12  and  C_13
REMARK    5  A    between atoms: C_18  and  C_19
REMARK    6  A    between atoms: C_19  and  C_20
REMARK    7  A    between atoms: C_22  and  C_23
REMARK                            x       y       z     vdW  Elec       q    Type
REMARK                         _______ _______ _______ _____ _____    ______ ____
ROOT
ATOM      1  C   UNL     1       1.786   7.471  19.859  0.00  0.00    +0.000 A 
ATOM      2  C   UNL     1       1.251   6.650  20.854  0.00  0.00    +0.000 A 
ATOM      3  C   UNL     1       1.723   5.354  21.038  0.00  0.00    +0.000 A 
ATOM      4  C   UNL     1       2.721   4.857  20.210  0.00  0.00    +0.000 A 
ATOM      5  F   UNL     1       3.169   3.622  20.470  0.00  0.00    +0.000 F 
ATOM      6  C   UNL     1       3.253   5.616  19.158  0.00  0.00    +0.000 A 
ATOM      7  C   UNL     1       2.786   6.948  19.021  0.00  0.00    +0.000 A 
ENDROOT
BRANCH   6   8
ATOM      8  C   UNL     1       4.332   5.043  18.226  0.00  0.00    +0.000 C 
ATOM      9  C   UNL     1       4.071   3.559  17.865  0.00  0.00    +0.000 C 
ATOM     10  C   UNL     1       5.674   5.148  18.888  0.00  0.00    +0.000 C 
ATOM     11  C   UNL     1       6.726   5.710  18.281  0.00  0.00    +0.000 C 
ATOM     12  O   UNL     1       6.623   6.191  16.966  0.00  0.00    +0.000 OA
ATOM     13  C   UNL     1       5.387   6.165  16.398  0.00  0.00    +0.000 C 
ATOM     14  N   UNL     1       5.400   6.694  15.151  0.00  0.00    +0.000 N 
ATOM     15  N   UNL     1       4.305   5.725  16.922  0.00  0.00    +0.000 NA
ATOM     16  H   UNL     1       6.148   7.341  14.947  0.00  0.00    +0.000 HD
ATOM     17  H   UNL     1       4.485   6.949  14.806  0.00  0.00    +0.000 HD
BRANCH  11  18
ATOM     18  C   UNL     1       8.082   5.876  18.902  0.00  0.00    +0.000 C 
ATOM     19  F   UNL     1       8.492   7.172  18.823  0.00  0.00    +0.000 F 
ATOM     20  F   UNL     1       8.079   5.564  20.227  0.00  0.00    +0.000 F 
ENDBRANCH  11  18
ENDBRANCH   6   8
BRANCH   1  23
ATOM     21  C   UNL     1       1.365   9.498  18.451  0.00  0.00    +0.000 C 
ATOM     22  O   UNL     1       1.706   9.042  17.365  0.00  0.00    +0.000 OA
ATOM     23  N   UNL     1       1.343   8.797  19.652  0.00  0.00    +0.000 N 
ATOM     24  H   UNL     1       0.961   9.308  20.443  0.00  0.00    +0.000 HD
BRANCH  21  31
ATOM     25  C   UNL     1      -1.577  10.308  18.431  0.00  0.00    +0.000 C 
ATOM     26  C   UNL     1      -0.450  11.296  18.533  0.00  0.00    +0.000 A 
ATOM     27  C   UNL     1      -0.758  12.662  18.600  0.00  0.00    +0.000 A 
ATOM     28  C   UNL     1       0.261  13.610  18.686  0.00  0.00    +0.000 A 
ATOM     29  C   UNL     1       1.572  13.156  18.699  0.00  0.00    +0.000 A 
ATOM     30  N   UNL     1       1.924  11.848  18.642  0.00  0.00    +0.000 NA
ATOM     31  C   UNL     1       0.908  10.934  18.551  0.00  0.00    +0.000 A 
BRANCH  28  32
ATOM     32  C   UNL     1      -0.030  15.005  18.761  0.00  0.00    +0.000 C 
ATOM     33  N   UNL     1      -0.265  16.141  18.830  0.00  0.00    +0.000 NA
ENDBRANCH  28  32
ENDBRANCH  21  31
ENDBRANCH   1  23
TORSDOF 5
ENDMDL
MODEL 3
REMARK VINA RESULT:      -8.5      0.683      1.321
REMARK  Name = 
REMARK  7 active torsions:
REMARK  status: ('A' for Active; 'I' for Inactive)
REMARK    1  A    between atoms: C_1  and  C_2
REMARK    2  A    between atoms: C_4  and  C_5
REMARK    3  A    between atoms: C_9  and  C_10
REMARK    4  A    between atoms: N_12  and  C_13
REMARK    5  A    between atoms: C_18  and  C_19
REMARK    6  A    between atoms: C_19  and  C_20
REMARK    7  A    between atoms: C_22  and  C_23
REMARK                            x       y       z     vdW  Elec       q    Type
REMARK                         _______ _______ _______ _____ _____    ______ ____
ROOT
ATOM      1  C   UNL     1       2.416   6.893  19.075  0.00  0.00    +0.000 A 
ATOM      2  C   UNL     1       1.807   5.637  19.072  0.00  0.00    +0.000 A 
ATOM      3  C   UNL     1       2.447   4.536  18.512  0.00  0.00    +0.000 A 
ATOM      4  C   UNL     1       3.696   4.687  17.925  0.00  0.00    +0.000 A 
ATOM      5  F   UNL     1       4.283   3.582  17.449  0.00  0.00    +0.000 F 
ATOM      6  C   UNL     1       4.329   5.936  17.846  0.00  0.00    +0.000 A 
ATOM      7  C   UNL     1       3.675   7.032  18.464  0.00  0.00    +0.000 A 
ENDROOT
BRANCH   6   8
ATOM      8  C   UNL     1       5.695   6.098  17.163  0.00  0.00    +0.000 C 
ATOM      9  C   UNL     1       6.163   7.575  17.123  0.00  0.00    +0.000 C 
ATOM     10  C   UNL     1       5.618   5.580  15.757  0.00  0.00    +0.000 C 
ATOM     11  C   UNL     1       6.492   4.688  15.276  0.00  0.00    +0.000 C 
ATOM     12  O   UNL     1       7.557   4.229  16.069  0.00  0.00    +0.000 OA
ATOM     13  C   UNL     1       7.579   4.641  17.365  0.00  0.00    +0.000 C 
ATOM     14  N   UNL     1       8.621   4.100  18.041  0.00  0.00    +0.000 N 
ATOM     15  N   UNL     1       6.747   5.425  17.941  0.00  0.00    +0.000 NA
ATOM     16  H   UNL     1       8.997   3.239  17.672  0.00  0.00    +0.000 HD
ATOM     17  H   UNL     1       8.524   4.148  19.047  0.00  0.00    +0.000 HD
BRANCH  11  18
ATOM     18  C   UNL     1       6.446   4.107  13.894  0.00  0.00    +0.000 C 
ATOM     19  F   UNL     1       5.182   4.160  13.391  0.00  0.00    +0.000 F 
ATOM     20  F   UNL     1       7.226   4.801  13.021  0.00  0.00    +0.000 F 
ENDBRANCH  11  18
ENDBRANCH   6   8
BRANCH   1  23
ATOM     21  C   UNL     1       1.341   9.152  18.968  0.00  0.00    +0.000 C 
ATOM     22  O   UNL     1       1.327   9.292  17.750  0.00  0.00    +0.000 OA
ATOM     23  N   UNL     1       1.804   8.031  19.649  0.00  0.00    +0.000 N 
ATOM     24  H   UNL     1       1.672   8.052  20.656  0.00  0.00    +0.000 HD
BRANCH  21  31
ATOM     25  C   UNL     1       2.037  12.094  18.553  0.00  0.00    +0.000 C 
ATOM     26  C   UNL     1       1.146  11.605  19.660  0.00  0.00    +0.000 A 
ATOM     27  C   UNL     1       0.623  12.540  20.565  0.00  0.00    +0.000 A 
ATOM     28  C   UNL     1      -0.201  12.123  21.611  0.00  0.00    +0.000 A 
ATOM     29  C   UNL     1      -0.475  10.767  21.721  0.00  0.00    +0.000 A 
ATOM     30  N   UNL     1      -0.000   9.824  20.871  0.00  0.00    +0.000 NA
ATOM     31  C   UNL     1       0.812  10.254  19.856  0.00  0.00    +0.000 A 
BRANCH  28  32
ATOM     32  C   UNL     1      -0.748  13.058  22.539  0.00  0.00    +0.000 C 
ATOM     33  N   UNL     1      -1.202  13.815  23.294  0.00  0.00    +0.000 NA
ENDBRANCH  28  32
ENDBRANCH  21  31
ENDBRANCH   1  23
TORSDOF 5
ENDMDL
MODEL 4
REMARK VINA RESULT:      -8.4      2.718      3.532
REMARK  Name = 
REMARK  7 active torsions:
REMARK  status: ('A' for Active; 'I' for Inactive)
REMARK    1  A    between atoms: C_1  and  C_2
REMARK    2  A    between atoms: C_4  and  C_5
REMARK    3  A    between atoms: C_9  and  C_10
REMARK    4  A    between atoms: N_12  and  C_13
REMARK    5  A    between atoms: C_18  and  C_19
REMARK    6  A    between atoms: C_19  and  C_20
REMARK    7  A    between atoms: C_22  and  C_23
REMARK                            x       y       z     vdW  Elec       q    Type
REMARK                         _______ _______ _______ _____ _____    ______ ____
ROOT
ATOM      1  C   UNL     1       1.808   7.551  19.885  0.00  0.00    +0.000 A 
ATOM      2  C   UNL     1       1.210   6.727  20.841  0.00  0.00    +0.000 A 
ATOM      3  C   UNL     1       1.617   5.407  20.999  0.00  0.00    +0.000 A 
ATOM      4  C   UNL     1       2.613   4.888  20.183  0.00  0.00    +0.000 A 
ATOM      5  F   UNL     1       2.997   3.626  20.417  0.00  0.00    +0.000 F 
ATOM      6  C   UNL     1       3.208   5.650  19.167  0.00  0.00    +0.000 A 
ATOM      7  C   UNL     1       2.805   7.006  19.057  0.00  0.00    +0.000 A 
ENDROOT
BRANCH   6   8
ATOM      8  C   UNL     1       4.284   5.055  18.247  0.00  0.00    +0.000 C 
ATOM      9  C   UNL     1       3.995   3.576  17.881  0.00  0.00    +0.000 C 
ATOM     10  C   UNL     1       5.621   5.130  18.923  0.00  0.00    +0.000 C 
ATOM     11  C   UNL     1       6.692   5.669  18.328  0.00  0.00    +0.000 C 
ATOM     12  O   UNL     1       6.613   6.153  17.012  0.00  0.00    +0.000 OA
ATOM     13  C   UNL     1       5.383   6.154  16.431  0.00  0.00    +0.000 C 
ATOM     14  N   UNL     1       5.421   6.683  15.185  0.00  0.00    +0.000 N 
ATOM     15  N   UNL     1       4.286   5.737  16.943  0.00  0.00    +0.000 NA
ATOM     16  H   UNL     1       6.184   7.314  14.988  0.00  0.00    +0.000 HD
ATOM     17  H   UNL     1       4.515   6.958  14.829  0.00  0.00    +0.000 HD
BRANCH  11  18
ATOM     18  C   UNL     1       8.043   5.806  18.964  0.00  0.00    +0.000 C 
ATOM     19  F   UNL     1       8.506   7.080  18.841  0.00  0.00    +0.000 F 
ATOM     20  F   UNL     1       8.009   5.546  20.300  0.00  0.00    +0.000 F 
ENDBRANCH  11  18
ENDBRANCH   6   8
BRANCH   1  23
ATOM     21  C   UNL     1       0.399   9.566  20.359  0.00  0.00    +0.000 C 
ATOM     22  O   UNL     1      -0.300   9.097  21.250  0.00  0.00    +0.000 OA
ATOM     23  N   UNL     1       1.432   8.902  19.706  0.00  0.00    +0.000 N 
ATOM     24  H   UNL     1       1.958   9.465  19.045  0.00  0.00    +0.000 HD
BRANCH  21  31
ATOM     25  C   UNL     1      -1.371  10.275  17.976  0.00  0.00    +0.000 C 
ATOM     26  C   UNL     1      -0.638  11.300  18.794  0.00  0.00    +0.000 A 
ATOM     27  C   UNL     1      -0.750  12.651  18.435  0.00  0.00    +0.000 A 
ATOM     28  C   UNL     1      -0.077  13.631  19.163  0.00  0.00    +0.000 A 
ATOM     29  C   UNL     1       0.700  13.225  20.238  0.00  0.00    +0.000 A 
ATOM     30  N   UNL     1       0.838  11.934  20.631  0.00  0.00    +0.000 NA
ATOM     31  C   UNL     1       0.174  10.987  19.898  0.00  0.00    +0.000 A 
BRANCH  28  32
ATOM     32  C   UNL     1      -0.182  15.012  18.819  0.00  0.00    +0.000 C 
ATOM     33  N   UNL     1      -0.266  16.138  18.546  0.00  0.00    +0.000 NA
ENDBRANCH  28  32
ENDBRANCH  21  31
ENDBRANCH   1  23
TORSDOF 5
ENDMDL
MODEL 5
REMARK VINA RESULT:      -8.4      1.335      1.553
REMARK  Name = 
REMARK  7 active torsions:
REMARK  status: ('A' for Active; 'I' for Inactive)
REMARK    1  A    between atoms: C_1  and  C_2
REMARK    2  A    between atoms: C_4  and  C_5
REMARK    3  A    between atoms: C_9  and  C_10
REMARK    4  A    between atoms: N_12  and  C_13
REMARK    5  A    between atoms: C_18  and  C_19
REMARK    6  A    between atoms: C_19  and  C_20
REMARK    7  A    between atoms: C_22  and  C_23
REMARK                            x       y       z     vdW  Elec       q    Type
REMARK                         _______ _______ _______ _____ _____    ______ ____
ROOT
ATOM      1  C   UNL     1       2.413   7.579  18.251  0.00  0.00    +0.000 A 
ATOM      2  C   UNL     1       1.731   6.368  18.370  0.00  0.00    +0.000 A 
ATOM      3  C   UNL     1       2.357   5.163  18.065  0.00  0.00    +0.000 A 
ATOM      4  C   UNL     1       3.669   5.162  17.612  0.00  0.00    +0.000 A 
ATOM      5  F   UNL     1       4.234   3.969  17.384  0.00  0.00    +0.000 F 
ATOM      6  C   UNL     1       4.385   6.352  17.418  0.00  0.00    +0.000 A 
ATOM      7  C   UNL     1       3.738   7.561  17.778  0.00  0.00    +0.000 A 
ENDROOT
BRANCH   6   8
ATOM      8  C   UNL     1       5.825   6.341  16.883  0.00  0.00    +0.000 C 
ATOM      9  C   UNL     1       6.457   7.756  16.860  0.00  0.00    +0.000 C 
ATOM     10  C   UNL     1       5.838   5.786  15.489  0.00  0.00    +0.000 C 
ATOM     11  C   UNL     1       6.653   4.789  15.126  0.00  0.00    +0.000 C 
ATOM     12  O   UNL     1       7.570   4.244  16.039  0.00  0.00    +0.000 OA
ATOM     13  C   UNL     1       7.502   4.695  17.321  0.00  0.00    +0.000 C 
ATOM     14  N   UNL     1       8.400   4.068  18.118  0.00  0.00    +0.000 N 
ATOM     15  N   UNL     1       6.707   5.585  17.786  0.00  0.00    +0.000 NA
ATOM     16  H   UNL     1       8.714   3.159  17.811  0.00  0.00    +0.000 HD
ATOM     17  H   UNL     1       8.204   4.161  19.106  0.00  0.00    +0.000 HD
BRANCH  11  18
ATOM     18  C   UNL     1       6.687   4.168  13.761  0.00  0.00    +0.000 C 
ATOM     19  F   UNL     1       5.427   4.000  13.276  0.00  0.00    +0.000 F 
ATOM     20  F   UNL     1       7.335   4.954  12.858  0.00  0.00    +0.000 F 
ENDBRANCH  11  18
ENDBRANCH   6   8
BRANCH   1  23
ATOM     21  C   UNL     1       1.157   9.145  19.748  0.00  0.00    +0.000 C 
ATOM     22  O   UNL     1       1.059   8.420  20.732  0.00  0.00    +0.000 OA
ATOM     23  N   UNL     1       1.816   8.821  18.567  0.00  0.00    +0.000 N 
ATOM     24  H   UNL     1       1.865   9.568  17.881  0.00  0.00    +0.000 HD
BRANCH  21  31
ATOM     25  C   UNL     1      -1.086   9.984  17.858  0.00  0.00    +0.000 C 
ATOM     26  C   UNL     1      -0.487  10.901  18.887  0.00  0.00    +0.000 A 
ATOM     27  C   UNL     1      -0.962  12.218  18.971  0.00  0.00    +0.000 A 
ATOM     28  C   UNL     1      -0.425  13.101  19.907  0.00  0.00    +0.000 A 
ATOM     29  C   UNL     1       0.586  12.636  20.736  0.00  0.00    +0.000 A 
ATOM     30  N   UNL     1       1.077  11.373  20.698  0.00  0.00    +0.000 NA
ATOM     31  C   UNL     1       0.540  10.523  19.768  0.00  0.00    +0.000 A 
BRANCH  28  32
ATOM     32  C   UNL     1      -0.899  14.443  20.015  0.00  0.00    +0.000 C 
ATOM     33  N   UNL     1      -1.290  15.533  20.108  0.00  0.00    +0.000 NA
ENDBRANCH  28  32
ENDBRANCH  21  31
ENDBRANCH   1  23
TORSDOF 5
ENDMDL
MODEL 6
REMARK VINA RESULT:      -8.3      2.578      3.185
REMARK  Name = 
REMARK  7 active torsions:
REMARK  status: ('A' for Active; 'I' for Inactive)
REMARK    1  A    between atoms: C_1  and  C_2
REMARK    2  A    between atoms: C_4  and  C_5
REMARK    3  A    between atoms: C_9  and  C_10
REMARK    4  A    between atoms: N_12  and  C_13
REMARK    5  A    between atoms: C_18  and  C_19
REMARK    6  A    between atoms: C_19  and  C_20
REMARK    7  A    between atoms: C_22  and  C_23
REMARK                            x       y       z     vdW  Elec       q    Type
REMARK                         _______ _______ _______ _____ _____    ______ ____
ROOT
ATOM      1  C   UNL     1       2.280   7.378  18.075  0.00  0.00    +0.000 A 
ATOM      2  C   UNL     1       1.383   6.314  17.968  0.00  0.00    +0.000 A 
ATOM      3  C   UNL     1       1.840   5.005  17.850  0.00  0.00    +0.000 A 
ATOM      4  C   UNL     1       3.204   4.750  17.813  0.00  0.00    +0.000 A 
ATOM      5  F   UNL     1       3.583   3.467  17.750  0.00  0.00    +0.000 F 
ATOM      6  C   UNL     1       4.151   5.784  17.856  0.00  0.00    +0.000 A 
ATOM      7  C   UNL     1       3.658   7.104  18.020  0.00  0.00    +0.000 A 
ENDROOT
BRANCH   6   8
ATOM      8  C   UNL     1       5.657   5.493  17.778  0.00  0.00    +0.000 C 
ATOM      9  C   UNL     1       6.082   4.331  18.712  0.00  0.00    +0.000 C 
ATOM     10  C   UNL     1       6.426   6.723  18.160  0.00  0.00    +0.000 C 
ATOM     11  C   UNL     1       7.398   7.224  17.389  0.00  0.00    +0.000 C 
ATOM     12  O   UNL     1       7.769   6.583  16.196  0.00  0.00    +0.000 OA
ATOM     13  C   UNL     1       7.019   5.514  15.814  0.00  0.00    +0.000 C 
ATOM     14  N   UNL     1       7.440   5.008  14.630  0.00  0.00    +0.000 N 
ATOM     15  N   UNL     1       6.022   5.008  16.438  0.00  0.00    +0.000 NA
ATOM     16  H   UNL     1       7.947   5.639  14.028  0.00  0.00    +0.000 HD
ATOM     17  H   UNL     1       6.762   4.409  14.178  0.00  0.00    +0.000 HD
BRANCH  11  18
ATOM     18  C   UNL     1       8.177   8.468  17.698  0.00  0.00    +0.000 C 
ATOM     19  F   UNL     1       7.351   9.547  17.777  0.00  0.00    +0.000 F 
ATOM     20  F   UNL     1       8.809   8.391  18.902  0.00  0.00    +0.000 F 
ENDBRANCH  11  18
ENDBRANCH   6   8
BRANCH   1  23
ATOM     21  C   UNL     1       1.236   9.280  19.324  0.00  0.00    +0.000 C 
ATOM     22  O   UNL     1       1.034   8.711  20.391  0.00  0.00    +0.000 OA
ATOM     23  N   UNL     1       1.853   8.719  18.211  0.00  0.00    +0.000 N 
ATOM     24  H   UNL     1       2.008   9.356  17.436  0.00  0.00    +0.000 HD
BRANCH  21  31
ATOM     25  C   UNL     1      -1.455  10.081  18.127  0.00  0.00    +0.000 C 
ATOM     26  C   UNL     1      -0.428  11.076  18.589  0.00  0.00    +0.000 A 
ATOM     27  C   UNL     1      -0.704  12.443  18.444  0.00  0.00    +0.000 A 
ATOM     28  C   UNL     1       0.228  13.396  18.852  0.00  0.00    +0.000 A 
ATOM     29  C   UNL     1       1.423  12.947  19.395  0.00  0.00    +0.000 A 
ATOM     30  N   UNL     1       1.737  11.639  19.562  0.00  0.00    +0.000 NA
ATOM     31  C   UNL     1       0.811  10.719  19.149  0.00  0.00    +0.000 A 
BRANCH  28  32
ATOM     32  C   UNL     1      -0.036  14.793  18.719  0.00  0.00    +0.000 C 
ATOM     33  N   UNL     1      -0.257  15.927  18.606  0.00  0.00    +0.000 NA
ENDBRANCH  28  32
ENDBRANCH  21  31
ENDBRANCH   1  23
TORSDOF 5
ENDMDL
MODEL 7
REMARK VINA RESULT:      -8.3      1.098      1.098
REMARK  Name = 
REMARK  7 active torsions:
REMARK  status: ('A' for Active; 'I' for Inactive)
REMARK    1  A    between atoms: C_1  and  C_2
REMARK    2  A    between atoms: C_4  and  C_5
REMARK    3  A    between atoms: C_9  and  C_10
REMARK    4  A    between atoms: N_12  and  C_13
REMARK    5  A    between atoms: C_18  and  C_19
REMARK    6  A    between atoms: C_19  and  C_20
REMARK    7  A    between atoms: C_22  and  C_23
REMARK                            x       y       z     vdW  Elec       q    Type
REMARK                         _______ _______ _______ _____ _____    ______ ____
ROOT
ATOM      1  C   UNL     1       2.352   7.127  18.590  0.00  0.00    +0.000 A 
ATOM      2  C   UNL     1       1.730   5.879  18.651  0.00  0.00    +0.000 A 
ATOM      3  C   UNL     1       2.391   4.731  18.224  0.00  0.00    +0.000 A 
ATOM      4  C   UNL     1       3.676   4.826  17.708  0.00  0.00    +0.000 A 
ATOM      5  F   UNL     1       4.280   3.681  17.362  0.00  0.00    +0.000 F 
ATOM      6  C   UNL     1       4.328   6.060  17.568  0.00  0.00    +0.000 A 
ATOM      7  C   UNL     1       3.648   7.207  18.051  0.00  0.00    +0.000 A 
ENDROOT
BRANCH   6   8
ATOM      8  C   UNL     1       5.735   6.157  16.961  0.00  0.00    +0.000 C 
ATOM      9  C   UNL     1       6.263   7.614  16.926  0.00  0.00    +0.000 C 
ATOM     10  C   UNL     1       5.717   5.618  15.561  0.00  0.00    +0.000 C 
ATOM     11  C   UNL     1       6.581   4.685  15.145  0.00  0.00    +0.000 C 
ATOM     12  O   UNL     1       7.580   4.198  16.004  0.00  0.00    +0.000 OA
ATOM     13  C   UNL     1       7.545   4.631  17.293  0.00  0.00    +0.000 C 
ATOM     14  N   UNL     1       8.524   4.062  18.036  0.00  0.00    +0.000 N 
ATOM     15  N   UNL     1       6.714   5.457  17.809  0.00  0.00    +0.000 NA
ATOM     16  H   UNL     1       8.886   3.181  17.701  0.00  0.00    +0.000 HD
ATOM     17  H   UNL     1       8.373   4.131  19.033  0.00  0.00    +0.000 HD
BRANCH  11  18
ATOM     18  C   UNL     1       6.590   4.082  13.771  0.00  0.00    +0.000 C 
ATOM     19  F   UNL     1       5.329   4.022  13.263  0.00  0.00    +0.000 F 
ATOM     20  F   UNL     1       7.315   4.825  12.891  0.00  0.00    +0.000 F 
ENDBRANCH  11  18
ENDBRANCH   6   8
BRANCH   1  23
ATOM     21  C   UNL     1       1.340   8.613  20.333  0.00  0.00    +0.000 C 
ATOM     22  O   UNL     1       1.566   7.922  21.319  0.00  0.00    +0.000 OA
ATOM     23  N   UNL     1       1.718   8.313  19.029  0.00  0.00    +0.000 N 
ATOM     24  H   UNL     1       1.515   9.033  18.342  0.00  0.00    +0.000 HD
BRANCH  21  31
ATOM     25  C   UNL     1      -0.434   9.241  22.736  0.00  0.00    +0.000 C 
ATOM     26  C   UNL     1      -0.221  10.196  21.595  0.00  0.00    +0.000 A 
ATOM     27  C   UNL     1      -0.887  11.430  21.618  0.00  0.00    +0.000 A 
ATOM     28  C   UNL     1      -0.722  12.339  20.573  0.00  0.00    +0.000 A 
ATOM     29  C   UNL     1       0.110  11.978  19.523  0.00  0.00    +0.000 A 
ATOM     30  N   UNL     1       0.780  10.802  19.454  0.00  0.00    +0.000 NA
ATOM     31  C   UNL     1       0.599   9.921  20.487  0.00  0.00    +0.000 A 
BRANCH  28  32
ATOM     32  C   UNL     1      -1.384  13.602  20.580  0.00  0.00    +0.000 C 
ATOM     33  N   UNL     1      -1.920  14.633  20.593  0.00  0.00    +0.000 NA
ENDBRANCH  28  32
ENDBRANCH  21  31
ENDBRANCH   1  23
TORSDOF 5
ENDMDL
MODEL 8
REMARK VINA RESULT:      -8.2      1.070      1.362
REMARK  Name = 
REMARK  7 active torsions:
REMARK  status: ('A' for Active; 'I' for Inactive)
REMARK    1  A    between atoms: C_1  and  C_2
REMARK    2  A    between atoms: C_4  and  C_5
REMARK    3  A    between atoms: C_9  and  C_10
REMARK    4  A    between atoms: N_12  and  C_13
REMARK    5  A    between atoms: C_18  and  C_19
REMARK    6  A    between atoms: C_19  and  C_20
REMARK    7  A    between atoms: C_22  and  C_23
REMARK                            x       y       z     vdW  Elec       q    Type
REMARK                         _______ _______ _______ _____ _____    ______ ____
ROOT
ATOM      1  C   UNL     1       2.232   6.946  18.814  0.00  0.00    +0.000 A 
ATOM      2  C   UNL     1       1.739   5.648  18.959  0.00  0.00    +0.000 A 
ATOM      3  C   UNL     1       2.506   4.548  18.590  0.00  0.00    +0.000 A 
ATOM      4  C   UNL     1       3.769   4.738  18.046  0.00  0.00    +0.000 A 
ATOM      5  F   UNL     1       4.480   3.640  17.757  0.00  0.00    +0.000 F 
ATOM      6  C   UNL     1       4.292   6.020  17.821  0.00  0.00    +0.000 A 
ATOM      7  C   UNL     1       3.507   7.121  18.248  0.00  0.00    +0.000 A 
ENDROOT
BRANCH   6   8
ATOM      8  C   UNL     1       5.676   6.219  17.186  0.00  0.00    +0.000 C 
ATOM      9  C   UNL     1       6.179   7.680  17.312  0.00  0.00    +0.000 C 
ATOM     10  C   UNL     1       5.618   5.855  15.731  0.00  0.00    +0.000 C 
ATOM     11  C   UNL     1       6.481   4.997  15.175  0.00  0.00    +0.000 C 
ATOM     12  O   UNL     1       7.518   4.430  15.935  0.00  0.00    +0.000 OA
ATOM     13  C   UNL     1       7.521   4.701  17.268  0.00  0.00    +0.000 C 
ATOM     14  N   UNL     1       8.535   4.066  17.903  0.00  0.00    +0.000 N 
ATOM     15  N   UNL     1       6.695   5.441  17.908  0.00  0.00    +0.000 NA
ATOM     16  H   UNL     1       8.899   3.240  17.451  0.00  0.00    +0.000 HD
ATOM     17  H   UNL     1       8.417   4.009  18.906  0.00  0.00    +0.000 HD
BRANCH  11  18
ATOM     18  C   UNL     1       6.452   4.567  13.739  0.00  0.00    +0.000 C 
ATOM     19  F   UNL     1       7.566   4.995  13.085  0.00  0.00    +0.000 F 
ATOM     20  F   UNL     1       6.439   3.211  13.611  0.00  0.00    +0.000 F 
ENDBRANCH  11  18
ENDBRANCH   6   8
BRANCH   1  23
ATOM     21  C   UNL     1       1.429   9.299  18.512  0.00  0.00    +0.000 C 
ATOM     22  O   UNL     1       1.959   9.537  17.433  0.00  0.00    +0.000 OA
ATOM     23  N   UNL     1       1.488   8.087  19.193  0.00  0.00    +0.000 N 
ATOM     24  H   UNL     1       0.928   8.039  20.039  0.00  0.00    +0.000 HD
BRANCH  21  31
ATOM     25  C   UNL     1      -1.398  10.057  17.650  0.00  0.00    +0.000 C 
ATOM     26  C   UNL     1      -0.679  10.716  18.792  0.00  0.00    +0.000 A 
ATOM     27  C   UNL     1      -1.325  11.749  19.487  0.00  0.00    +0.000 A 
ATOM     28  C   UNL     1      -0.687  12.392  20.547  0.00  0.00    +0.000 A 
ATOM     29  C   UNL     1       0.595  11.979  20.881  0.00  0.00    +0.000 A 
ATOM     30  N   UNL     1       1.262  10.983  20.246  0.00  0.00    +0.000 NA
ATOM     31  C   UNL     1       0.619  10.370  19.204  0.00  0.00    +0.000 A 
BRANCH  28  32
ATOM     32  C   UNL     1      -1.329  13.440  21.271  0.00  0.00    +0.000 C 
ATOM     33  N   UNL     1      -1.846  14.292  21.868  0.00  0.00    +0.000 NA
ENDBRANCH  28  32
ENDBRANCH  21  31
ENDBRANCH   1  23
TORSDOF 5
ENDMDL
MODEL 9
REMARK VINA RESULT:      -8.2      2.699      3.290
REMARK  Name = 
REMARK  7 active torsions:
REMARK  status: ('A' for Active; 'I' for Inactive)
REMARK    1  A    between atoms: C_1  and  C_2
REMARK    2  A    between atoms: C_4  and  C_5
REMARK    3  A    between atoms: C_9  and  C_10
REMARK    4  A    between atoms: N_12  and  C_13
REMARK    5  A    between atoms: C_18  and  C_19
REMARK    6  A    between atoms: C_19  and  C_20
REMARK    7  A    between atoms: C_22  and  C_23
REMARK                            x       y       z     vdW  Elec       q    Type
REMARK                         _______ _______ _______ _____ _____    ______ ____
ROOT
ATOM      1  C   UNL     1       1.780   7.035  20.142  0.00  0.00    +0.000 A 
ATOM      2  C   UNL     1       1.189   6.048  20.933  0.00  0.00    +0.000 A 
ATOM      3  C   UNL     1       1.630   4.730  20.876  0.00  0.00    +0.000 A 
ATOM      4  C   UNL     1       2.653   4.380  20.006  0.00  0.00    +0.000 A 
ATOM      5  F   UNL     1       3.068   3.107  20.034  0.00  0.00    +0.000 F 
ATOM      6  C   UNL     1       3.244   5.317  19.145  0.00  0.00    +0.000 A 
ATOM      7  C   UNL     1       2.806   6.661  19.255  0.00  0.00    +0.000 A 
ENDROOT
BRANCH   6   8
ATOM      8  C   UNL     1       4.350   4.911  18.161  0.00  0.00    +0.000 C 
ATOM      9  C   UNL     1       4.186   3.455  17.656  0.00  0.00    +0.000 C 
ATOM     10  C   UNL     1       5.688   5.039  18.828  0.00  0.00    +0.000 C 
ATOM     11  C   UNL     1       6.697   5.726  18.279  0.00  0.00    +0.000 C 
ATOM     12  O   UNL     1       6.552   6.326  17.017  0.00  0.00    +0.000 OA
ATOM     13  C   UNL     1       5.316   6.273  16.450  0.00  0.00    +0.000 C 
ATOM     14  N   UNL     1       5.286   6.922  15.262  0.00  0.00    +0.000 N 
ATOM     15  N   UNL     1       4.269   5.713  16.930  0.00  0.00    +0.000 NA
ATOM     16  H   UNL     1       5.987   7.633  15.121  0.00  0.00    +0.000 HD
ATOM     17  H   UNL     1       4.352   7.148  14.944  0.00  0.00    +0.000 HD
BRANCH  11  18
ATOM     18  C   UNL     1       8.042   5.920  18.912  0.00  0.00    +0.000 C 
ATOM     19  F   UNL     1       8.444   7.216  18.801  0.00  0.00    +0.000 F 
ATOM     20  F   UNL     1       8.025   5.646  20.246  0.00  0.00    +0.000 F 
ENDBRANCH  11  18
ENDBRANCH   6   8
BRANCH   1  23
ATOM     21  C   UNL     1       1.288   9.191  21.316  0.00  0.00    +0.000 C 
ATOM     22  O   UNL     1       1.631   8.868  22.447  0.00  0.00    +0.000 OA
ATOM     23  N   UNL     1       1.370   8.387  20.184  0.00  0.00    +0.000 N 
ATOM     24  H   UNL     1       1.112   8.840  19.312  0.00  0.00    +0.000 HD
BRANCH  21  31
ATOM     25  C   UNL     1      -0.893  10.438  23.049  0.00  0.00    +0.000 C 
ATOM     26  C   UNL     1      -0.279  11.134  21.867  0.00  0.00    +0.000 A 
ATOM     27  C   UNL     1      -0.744  12.412  21.524  0.00  0.00    +0.000 A 
ATOM     28  C   UNL     1      -0.205  13.086  20.428  0.00  0.00    +0.000 A 
ATOM     29  C   UNL     1       0.790  12.451  19.699  0.00  0.00    +0.000 A 
ATOM     30  N   UNL     1       1.278  11.221  19.991  0.00  0.00    +0.000 NA
ATOM     31  C   UNL     1       0.731  10.573  21.067  0.00  0.00    +0.000 A 
BRANCH  28  32
ATOM     32  C   UNL     1      -0.659  14.389  20.066  0.00  0.00    +0.000 C 
ATOM     33  N   UNL     1      -1.035  15.450  19.777  0.00  0.00    +0.000 NA
ENDBRANCH  28  32
ENDBRANCH  21  31
ENDBRANCH   1  23
TORSDOF 5
ENDMDL
