MODEL 1
REMARK VINA RESULT:      -8.0      0.000      0.000
REMARK  Name = 
REMARK  7 active torsions:
REMARK  status: ('A' for Active; 'I' for Inactive)
REMARK    1  A    between atoms: C_1  and  C_2
REMARK    2  A    between atoms: C_4  and  O_5
REMARK    3  A    between atoms: C_7  and  O_8
REMARK    4  A    between atoms: C_9  and  S_10
REMARK    5  A    between atoms: S_10  and  N_13
REMARK    6  A    between atoms: N_13  and  C_14
REMARK    7  A    between atoms: C_19  and  N_20
REMARK                            x       y       z     vdW  Elec       q    Type
REMARK                         _______ _______ _______ _____ _____    ______ ____
ROOT
ATOM      1  S   UNL     1       6.079   5.201  19.151  0.00  0.00    +0.000 S 
ATOM      2  O   UNL     1       7.294   5.560  19.853  0.00  0.00    +0.000 OA
ATOM      3  O   UNL     1       4.843   5.900  19.427  0.00  0.00    +0.000 OA
ENDROOT
BRANCH   1  10
ATOM      4  C   UNL     1       4.366   6.810  16.895  0.00  0.00    +0.000 C 
ATOM      5  C   UNL     1       5.576   6.007  16.527  0.00  0.00    +0.000 A 
ATOM      6  N   UNL     1       5.862   6.015  15.197  0.00  0.00    +0.000 NA
ATOM      7  C   UNL     1       6.921   5.306  14.806  0.00  0.00    +0.000 A 
ATOM      8  N   UNL     1       7.735   4.592  15.576  0.00  0.00    +0.000 NA
ATOM      9  C   UNL     1       7.415   4.613  16.874  0.00  0.00    +0.000 A 
ATOM     10  C   UNL     1       6.357   5.300  17.424  0.00  0.00    +0.000 A 
BRANCH   7  11
ATOM     11  O   UNL     1       7.177   5.338  13.475  0.00  0.00    +0.000 OA
ATOM     12  H   UNL     1       7.863   6.027  13.461  0.00  0.00    +0.000 HD
ENDBRANCH   7  11
BRANCH   9  13
ATOM     13  O   UNL     1       8.321   3.932  17.624  0.00  0.00    +0.000 OA
ATOM     14  H   UNL     1       7.908   4.003  18.509  0.00  0.00    +0.000 HD
ENDBRANCH   9  13
ENDBRANCH   1  10
BRANCH   1  15
ATOM     15  N   UNL     1       5.798   3.543  19.443  0.00  0.00    +0.000 N 
ATOM     16  H   UNL     1       6.318   3.246  20.274  0.00  0.00    +0.000 HD
BRANCH  15  17
ATOM     17  C   UNL     1       4.466   3.064  19.292  0.00  0.00    +0.000 A 
ATOM     18  C   UNL     1       4.105   2.426  18.104  0.00  0.00    +0.000 A 
ATOM     19  C   UNL     1       2.780   2.027  17.887  0.00  0.00    +0.000 A 
ATOM     20  C   UNL     1       1.798   2.297  18.844  0.00  0.00    +0.000 A 
ATOM     21 CL   UNL     1       0.171   1.865  18.472  0.00  0.00    +0.000 Cl
ATOM     22  C   UNL     1       2.179   2.936  20.023  0.00  0.00    +0.000 A 
ATOM     23  C   UNL     1       3.509   3.311  20.269  0.00  0.00    +0.000 A 
BRANCH  22  24
ATOM     24  N   UNL     1       1.200   3.298  21.022  0.00  0.00    +0.000 N 
ATOM     25  O   UNL     1       1.161   2.617  22.054  0.00  0.00    +0.000 OA
ATOM     26  O   UNL     1       0.523   4.308  20.791  0.00  0.00    +0.000 OA
ENDBRANCH  22  24
ENDBRANCH  15  17
ENDBRANCH   1  15
TORSDOF 6
ENDMDL
MODEL 2
REMARK VINA RESULT:      -7.8      3.022      6.805
REMARK  Name = 
REMARK  7 active torsions:
REMARK  status: ('A' for Active; 'I' for Inactive)
REMARK    1  A    between atoms: C_1  and  C_2
REMARK    2  A    between atoms: C_4  and  O_5
REMARK    3  A    between atoms: C_7  and  O_8
REMARK    4  A    between atoms: C_9  and  S_10
REMARK    5  A    between atoms: S_10  and  N_13
REMARK    6  A    between atoms: N_13  and  C_14
REMARK    7  A    between atoms: C_19  and  N_20
REMARK                            x       y       z     vdW  Elec       q    Type
REMARK                         _______ _______ _______ _____ _____    ______ ____
ROOT
ATOM      1  S   UNL     1       5.089   4.873  18.534  0.00  0.00    +0.000 S 
ATOM      2  O   UNL     1       4.547   6.043  17.875  0.00  0.00    +0.000 OA
ATOM      3  O   UNL     1       6.343   4.953  19.248  0.00  0.00    +0.000 OA
ENDROOT
BRANCH   1  10
ATOM      4  C   UNL     1       2.432   6.319  19.742  0.00  0.00    +0.000 C 
ATOM      5  C   UNL     1       2.792   4.913  20.117  0.00  0.00    +0.000 A 
ATOM      6  N   UNL     1       1.926   4.334  20.992  0.00  0.00    +0.000 NA
ATOM      7  C   UNL     1       2.200   3.087  21.374  0.00  0.00    +0.000 A 
ATOM      8  N   UNL     1       3.229   2.341  20.988  0.00  0.00    +0.000 NA
ATOM      9  C   UNL     1       4.054   2.950  20.130  0.00  0.00    +0.000 A 
ATOM     10  C   UNL     1       3.898   4.230  19.645  0.00  0.00    +0.000 A 
BRANCH   7  11
ATOM     11  O   UNL     1       1.315   2.542  22.244  0.00  0.00    +0.000 OA
ATOM     12  H   UNL     1       1.730   2.811  23.082  0.00  0.00    +0.000 HD
ENDBRANCH   7  11
BRANCH   9  13
ATOM     13  O   UNL     1       5.044   2.119  19.710  0.00  0.00    +0.000 OA
ATOM     14  H   UNL     1       4.536   1.292  19.576  0.00  0.00    +0.000 HD
ENDBRANCH   9  13
ENDBRANCH   1  10
BRANCH   1  15
ATOM     15  N   UNL     1       5.261   3.660  17.345  0.00  0.00    +0.000 N 
ATOM     16  H   UNL     1       4.384   3.140  17.252  0.00  0.00    +0.000 HD
BRANCH  15  17
ATOM     17  C   UNL     1       5.958   4.001  16.151  0.00  0.00    +0.000 A 
ATOM     18  C   UNL     1       6.945   4.986  16.199  0.00  0.00    +0.000 A 
ATOM     19  C   UNL     1       7.582   5.411  15.025  0.00  0.00    +0.000 A 
ATOM     20  C   UNL     1       7.209   4.877  13.790  0.00  0.00    +0.000 A 
ATOM     21 CL   UNL     1       7.964   5.512  12.376  0.00  0.00    +0.000 Cl
ATOM     22  C   UNL     1       6.220   3.894  13.764  0.00  0.00    +0.000 A 
ATOM     23  C   UNL     1       5.598   3.434  14.934  0.00  0.00    +0.000 A 
BRANCH  22  24
ATOM     24  N   UNL     1       5.748   3.347  12.512  0.00  0.00    +0.000 N 
ATOM     25  O   UNL     1       4.614   3.671  12.140  0.00  0.00    +0.000 OA
ATOM     26  O   UNL     1       6.549   2.648  11.878  0.00  0.00    +0.000 OA
ENDBRANCH  22  24
ENDBRANCH  15  17
ENDBRANCH   1  15
TORSDOF 6
ENDMDL
MODEL 3
REMARK VINA RESULT:      -7.5      3.199      6.366
REMARK  Name = 
REMARK  7 active torsions:
REMARK  status: ('A' for Active; 'I' for Inactive)
REMARK    1  A    between atoms: C_1  and  C_2
REMARK    2  A    between atoms: C_4  and  O_5
REMARK    3  A    between atoms: C_7  and  O_8
REMARK    4  A    between atoms: C_9  and  S_10
REMARK    5  A    between atoms: S_10  and  N_13
REMARK    6  A    between atoms: N_13  and  C_14
REMARK    7  A    between atoms: C_19  and  N_20
REMARK                            x       y       z     vdW  Elec       q    Type
REMARK                         _______ _______ _______ _____ _____    ______ ____
ROOT
ATOM      1  S   UNL     1       1.719   3.148  18.426  0.00  0.00    +0.000 S 
ATOM      2  O   UNL     1       0.809   2.090  18.036  0.00  0.00    +0.000 OA
ATOM      3  O   UNL     1       1.212   4.360  19.030  0.00  0.00    +0.000 OA
ENDROOT
BRANCH   1  10
ATOM      4  C   UNL     1       2.204   3.794  21.581  0.00  0.00    +0.000 C 
ATOM      5  C   UNL     1       3.078   2.828  20.841  0.00  0.00    +0.000 A 
ATOM      6  N   UNL     1       4.064   2.279  21.601  0.00  0.00    +0.000 NA
ATOM      7  C   UNL     1       4.884   1.420  20.994  0.00  0.00    +0.000 A 
ATOM      8  N   UNL     1       4.840   1.035  19.724  0.00  0.00    +0.000 NA
ATOM      9  C   UNL     1       3.856   1.599  19.016  0.00  0.00    +0.000 A 
ATOM     10  C   UNL     1       2.935   2.498  19.505  0.00  0.00    +0.000 A 
BRANCH   7  11
ATOM     11  O   UNL     1       5.853   0.893  21.782  0.00  0.00    +0.000 OA
ATOM     12  H   UNL     1       5.296   0.433  22.433  0.00  0.00    +0.000 HD
ENDBRANCH   7  11
BRANCH   9  13
ATOM     13  O   UNL     1       3.811   1.114  17.747  0.00  0.00    +0.000 OA
ATOM     14  H   UNL     1       4.418   1.737  17.297  0.00  0.00    +0.000 HD
ENDBRANCH   9  13
ENDBRANCH   1  10
BRANCH   1  15
ATOM     15  N   UNL     1       2.588   3.605  17.030  0.00  0.00    +0.000 N 
ATOM     16  H   UNL     1       1.936   3.796  16.264  0.00  0.00    +0.000 HD
BRANCH  15  17
ATOM     17  C   UNL     1       3.687   4.494  17.199  0.00  0.00    +0.000 A 
ATOM     18  C   UNL     1       3.447   5.793  17.649  0.00  0.00    +0.000 A 
ATOM     19  C   UNL     1       4.495   6.719  17.737  0.00  0.00    +0.000 A 
ATOM     20  C   UNL     1       5.785   6.361  17.340  0.00  0.00    +0.000 A 
ATOM     21 CL   UNL     1       7.007   7.577  17.383  0.00  0.00    +0.000 Cl
ATOM     22  C   UNL     1       6.004   5.058  16.893  0.00  0.00    +0.000 A 
ATOM     23  C   UNL     1       4.972   4.110  16.832  0.00  0.00    +0.000 A 
BRANCH  22  24
ATOM     24  N   UNL     1       7.303   4.647  16.411  0.00  0.00    +0.000 N 
ATOM     25  O   UNL     1       7.550   4.826  15.214  0.00  0.00    +0.000 OA
ATOM     26  O   UNL     1       8.091   4.206  17.258  0.00  0.00    +0.000 OA
ENDBRANCH  22  24
ENDBRANCH  15  17
ENDBRANCH   1  15
TORSDOF 6
ENDMDL
MODEL 4
REMARK VINA RESULT:      -7.4      3.216      3.929
REMARK  Name = 
REMARK  7 active torsions:
REMARK  status: ('A' for Active; 'I' for Inactive)
REMARK    1  A    between atoms: C_1  and  C_2
REMARK    2  A    between atoms: C_4  and  O_5
REMARK    3  A    between atoms: C_7  and  O_8
REMARK    4  A    between atoms: C_9  and  S_10
REMARK    5  A    between atoms: S_10  and  N_13
REMARK    6  A    between atoms: N_13  and  C_14
REMARK    7  A    between atoms: C_19  and  N_20
REMARK                            x       y       z     vdW  Elec       q    Type
REMARK                         _______ _______ _______ _____ _____    ______ ____
ROOT
ATOM      1  S   UNL     1       5.212   4.720  18.996  0.00  0.00    +0.000 S 
ATOM      2  O   UNL     1       5.500   3.401  19.519  0.00  0.00    +0.000 OA
ATOM      3  O   UNL     1       5.580   5.900  19.748  0.00  0.00    +0.000 OA
ENDROOT
BRANCH   1  10
ATOM      4  C   UNL     1       7.407   6.884  17.942  0.00  0.00    +0.000 C 
ATOM      5  C   UNL     1       6.850   5.833  17.030  0.00  0.00    +0.000 A 
ATOM      6  N   UNL     1       7.335   5.888  15.761  0.00  0.00    +0.000 NA
ATOM      7  C   UNL     1       6.867   4.986  14.898  0.00  0.00    +0.000 A 
ATOM      8  N   UNL     1       5.976   4.031  15.144  0.00  0.00    +0.000 NA
ATOM      9  C   UNL     1       5.527   4.016  16.404  0.00  0.00    +0.000 A 
ATOM     10  C   UNL     1       5.920   4.879  17.402  0.00  0.00    +0.000 A 
BRANCH   7  11
ATOM     11  O   UNL     1       7.374   5.069  13.644  0.00  0.00    +0.000 OA
ATOM     12  H   UNL     1       7.858   4.227  13.611  0.00  0.00    +0.000 HD
ENDBRANCH   7  11
BRANCH   9  13
ATOM     13  O   UNL     1       4.678   2.976  16.620  0.00  0.00    +0.000 OA
ATOM     14  H   UNL     1       4.040   3.114  15.891  0.00  0.00    +0.000 HD
ENDBRANCH   9  13
ENDBRANCH   1  10
BRANCH   1  15
ATOM     15  N   UNL     1       3.529   4.799  18.725  0.00  0.00    +0.000 N 
ATOM     16  H   UNL     1       3.064   4.025  19.209  0.00  0.00    +0.000 HD
BRANCH  15  17
ATOM     17  C   UNL     1       2.911   6.081  18.784  0.00  0.00    +0.000 A 
ATOM     18  C   UNL     1       3.091   6.971  17.724  0.00  0.00    +0.000 A 
ATOM     19  C   UNL     1       2.575   8.272  17.794  0.00  0.00    +0.000 A 
ATOM     20  C   UNL     1       1.905   8.702  18.942  0.00  0.00    +0.000 A 
ATOM     21 CL   UNL     1       1.380  10.343  19.000  0.00  0.00    +0.000 Cl
ATOM     22  C   UNL     1       1.736   7.797  19.989  0.00  0.00    +0.000 A 
ATOM     23  C   UNL     1       2.218   6.481  19.920  0.00  0.00    +0.000 A 
BRANCH  22  24
ATOM     24  N   UNL     1       1.107   8.201  21.226  0.00  0.00    +0.000 N 
ATOM     25  O   UNL     1       1.804   8.803  22.050  0.00  0.00    +0.000 OA
ATOM     26  O   UNL     1      -0.105   7.968  21.330  0.00  0.00    +0.000 OA
ENDBRANCH  22  24
ENDBRANCH  15  17
ENDBRANCH   1  15
TORSDOF 6
ENDMDL
MODEL 5
REMARK VINA RESULT:      -7.4      2.659      6.248
REMARK  Name = 
REMARK  7 active torsions:
REMARK  status: ('A' for Active; 'I' for Inactive)
REMARK    1  A    between atoms: C_1  and  C_2
REMARK    2  A    between atoms: C_4  and  O_5
REMARK    3  A    between atoms: C_7  and  O_8
REMARK    4  A    between atoms: C_9  and  S_10
REMARK    5  A    between atoms: S_10  and  N_13
REMARK    6  A    between atoms: N_13  and  C_14
REMARK    7  A    between atoms: C_19  and  N_20
REMARK                            x       y       z     vdW  Elec       q    Type
REMARK                         _______ _______ _______ _____ _____    ______ ____
ROOT
ATOM      1  S   UNL     1       6.432   5.550  18.640  0.00  0.00    +0.000 S 
ATOM      2  O   UNL     1       6.539   6.820  17.953  0.00  0.00    +0.000 OA
ATOM      3  O   UNL     1       6.970   5.394  19.974  0.00  0.00    +0.000 OA
ENDROOT
BRANCH   1  10
ATOM      4  C   UNL     1       3.798   7.167  17.612  0.00  0.00    +0.000 C 
ATOM      5  C   UNL     1       3.683   5.812  18.241  0.00  0.00    +0.000 A 
ATOM      6  N   UNL     1       2.406   5.355  18.340  0.00  0.00    +0.000 NA
ATOM      7  C   UNL     1       2.237   4.158  18.904  0.00  0.00    +0.000 A 
ATOM      8  N   UNL     1       3.185   3.357  19.377  0.00  0.00    +0.000 NA
ATOM      9  C   UNL     1       4.424   3.847  19.259  0.00  0.00    +0.000 A 
ATOM     10  C   UNL     1       4.751   5.061  18.698  0.00  0.00    +0.000 A 
BRANCH   7  11
ATOM     11  O   UNL     1       0.952   3.735  18.985  0.00  0.00    +0.000 OA
ATOM     12  H   UNL     1       0.649   3.973  18.092  0.00  0.00    +0.000 HD
ENDBRANCH   7  11
BRANCH   9  13
ATOM     13  O   UNL     1       5.357   2.958  19.688  0.00  0.00    +0.000 OA
ATOM     14  H   UNL     1       5.011   2.754  20.581  0.00  0.00    +0.000 HD
ENDBRANCH   9  13
ENDBRANCH   1  10
BRANCH   1  15
ATOM     15  N   UNL     1       7.183   4.377  17.653  0.00  0.00    +0.000 N 
ATOM     16  H   UNL     1       7.282   3.500  18.173  0.00  0.00    +0.000 HD
BRANCH  15  17
ATOM     17  C   UNL     1       6.768   4.296  16.294  0.00  0.00    +0.000 A 
ATOM     18  C   UNL     1       5.684   3.482  15.961  0.00  0.00    +0.000 A 
ATOM     19  C   UNL     1       5.310   3.308  14.622  0.00  0.00    +0.000 A 
ATOM     20  C   UNL     1       6.042   3.921  13.602  0.00  0.00    +0.000 A 
ATOM     21 CL   UNL     1       5.588   3.588  11.973  0.00  0.00    +0.000 Cl
ATOM     22  C   UNL     1       7.122   4.730  13.956  0.00  0.00    +0.000 A 
ATOM     23  C   UNL     1       7.487   4.941  15.294  0.00  0.00    +0.000 A 
BRANCH  22  24
ATOM     24  N   UNL     1       7.955   5.341  12.945  0.00  0.00    +0.000 N 
ATOM     25  O   UNL     1       8.942   5.979  13.328  0.00  0.00    +0.000 OA
ATOM     26  O   UNL     1       7.648   5.115  11.767  0.00  0.00    +0.000 OA
ENDBRANCH  22  24
ENDBRANCH  15  17
ENDBRANCH   1  15
TORSDOF 6
ENDMDL
MODEL 6
REMARK VINA RESULT:      -7.3      3.308      7.074
REMARK  Name = 
REMARK  7 active torsions:
REMARK  status: ('A' for Active; 'I' for Inactive)
REMARK    1  A    between atoms: C_1  and  C_2
REMARK    2  A    between atoms: C_4  and  O_5
REMARK    3  A    between atoms: C_7  and  O_8
REMARK    4  A    between atoms: C_9  and  S_10
REMARK    5  A    between atoms: S_10  and  N_13
REMARK    6  A    between atoms: N_13  and  C_14
REMARK    7  A    between atoms: C_19  and  N_20
REMARK                            x       y       z     vdW  Elec       q    Type
REMARK                         _______ _______ _______ _____ _____    ______ ____
ROOT
ATOM      1  S   UNL     1       3.213   4.215  17.393  0.00  0.00    +0.000 S 
ATOM      2  O   UNL     1       2.394   3.604  16.367  0.00  0.00    +0.000 OA
ATOM      3  O   UNL     1       3.417   5.647  17.408  0.00  0.00    +0.000 OA
ENDROOT
BRANCH   1  10
ATOM      4  C   UNL     1       2.385   6.132  19.893  0.00  0.00    +0.000 C 
ATOM      5  C   UNL     1       2.274   4.641  19.986  0.00  0.00    +0.000 A 
ATOM      6  N   UNL     1       1.817   4.193  21.186  0.00  0.00    +0.000 NA
ATOM      7  C   UNL     1       1.709   2.873  21.335  0.00  0.00    +0.000 A 
ATOM      8  N   UNL     1       1.996   1.941  20.433  0.00  0.00    +0.000 NA
ATOM      9  C   UNL     1       2.442   2.426  19.269  0.00  0.00    +0.000 A 
ATOM     10  C   UNL     1       2.602   3.761  18.970  0.00  0.00    +0.000 A 
BRANCH   7  11
ATOM     11  O   UNL     1       1.250   2.464  22.543  0.00  0.00    +0.000 OA
ATOM     12  H   UNL     1       2.094   2.223  22.961  0.00  0.00    +0.000 HD
ENDBRANCH   7  11
BRANCH   9  13
ATOM     13  O   UNL     1       2.647   1.437  18.360  0.00  0.00    +0.000 OA
ATOM     14  H   UNL     1       2.676   1.961  17.533  0.00  0.00    +0.000 HD
ENDBRANCH   9  13
ENDBRANCH   1  10
BRANCH   1  15
ATOM     15  N   UNL     1       4.755   3.487  17.308  0.00  0.00    +0.000 N 
ATOM     16  H   UNL     1       4.676   2.487  17.513  0.00  0.00    +0.000 HD
BRANCH  15  17
ATOM     17  C   UNL     1       5.609   3.877  16.238  0.00  0.00    +0.000 A 
ATOM     18  C   UNL     1       6.605   4.825  16.475  0.00  0.00    +0.000 A 
ATOM     19  C   UNL     1       7.400   5.298  15.422  0.00  0.00    +0.000 A 
ATOM     20  C   UNL     1       7.179   4.851  14.118  0.00  0.00    +0.000 A 
ATOM     21 CL   UNL     1       8.128   5.546  12.857  0.00  0.00    +0.000 Cl
ATOM     22  C   UNL     1       6.178   3.904  13.902  0.00  0.00    +0.000 A 
ATOM     23  C   UNL     1       5.398   3.396  14.951  0.00  0.00    +0.000 A 
BRANCH  22  24
ATOM     24  N   UNL     1       5.861   3.449  12.568  0.00  0.00    +0.000 N 
ATOM     25  O   UNL     1       6.757   2.888  11.928  0.00  0.00    +0.000 OA
ATOM     26  O   UNL     1       4.689   3.600  12.198  0.00  0.00    +0.000 OA
ENDBRANCH  22  24
ENDBRANCH  15  17
ENDBRANCH   1  15
TORSDOF 6
ENDMDL
MODEL 7
REMARK VINA RESULT:      -7.2      3.547      4.455
REMARK  Name = 
REMARK  7 active torsions:
REMARK  status: ('A' for Active; 'I' for Inactive)
REMARK    1  A    between atoms: C_1  and  C_2
REMARK    2  A    between atoms: C_4  and  O_5
REMARK    3  A    between atoms: C_7  and  O_8
REMARK    4  A    between atoms: C_9  and  S_10
REMARK    5  A    between atoms: S_10  and  N_13
REMARK    6  A    between atoms: N_13  and  C_14
REMARK    7  A    between atoms: C_19  and  N_20
REMARK                            x       y       z     vdW  Elec       q    Type
REMARK                         _______ _______ _______ _____ _____    ______ ____
ROOT
ATOM      1  S   UNL     1       5.021   4.670  18.892  0.00  0.00    +0.000 S 
ATOM      2  O   UNL     1       5.148   3.291  19.317  0.00  0.00    +0.000 OA
ATOM      3  O   UNL     1       5.465   5.744  19.752  0.00  0.00    +0.000 OA
ENDROOT
BRANCH   1  10
ATOM      4  C   UNL     1       7.649   6.455  18.177  0.00  0.00    +0.000 C 
ATOM      5  C   UNL     1       6.939   5.661  17.124  0.00  0.00    +0.000 A 
ATOM      6  N   UNL     1       7.485   5.771  15.883  0.00  0.00    +0.000 NA
ATOM      7  C   UNL     1       6.889   5.096  14.901  0.00  0.00    +0.000 A 
ATOM      8  N   UNL     1       5.816   4.319  15.001  0.00  0.00    +0.000 NA
ATOM      9  C   UNL     1       5.313   4.241  16.238  0.00  0.00    +0.000 A 
ATOM     10  C   UNL     1       5.821   4.877  17.348  0.00  0.00    +0.000 A 
BRANCH   7  11
ATOM     11  O   UNL     1       7.462   5.228  13.679  0.00  0.00    +0.000 OA
ATOM     12  H   UNL     1       6.989   6.019  13.367  0.00  0.00    +0.000 HD
ENDBRANCH   7  11
BRANCH   9  13
ATOM     13  O   UNL     1       4.265   3.376  16.298  0.00  0.00    +0.000 OA
ATOM     14  H   UNL     1       4.130   3.196  15.345  0.00  0.00    +0.000 HD
ENDBRANCH   9  13
ENDBRANCH   1  10
BRANCH   1  15
ATOM     15  N   UNL     1       3.369   4.943  18.556  0.00  0.00    +0.000 N 
ATOM     16  H   UNL     1       2.851   4.063  18.633  0.00  0.00    +0.000 HD
BRANCH  15  17
ATOM     17  C   UNL     1       2.771   6.113  19.103  0.00  0.00    +0.000 A 
ATOM     18  C   UNL     1       2.316   6.090  20.422  0.00  0.00    +0.000 A 
ATOM     19  C   UNL     1       1.638   7.193  20.959  0.00  0.00    +0.000 A 
ATOM     20  C   UNL     1       1.380   8.314  20.167  0.00  0.00    +0.000 A 
ATOM     21 CL   UNL     1       0.458   9.595  20.861  0.00  0.00    +0.000 Cl
ATOM     22  C   UNL     1       1.843   8.317  18.852  0.00  0.00    +0.000 A 
ATOM     23  C   UNL     1       2.552   7.234  18.311  0.00  0.00    +0.000 A 
BRANCH  22  24
ATOM     24  N   UNL     1       1.553   9.420  17.965  0.00  0.00    +0.000 N 
ATOM     25  O   UNL     1       0.380   9.572  17.607  0.00  0.00    +0.000 OA
ATOM     26  O   UNL     1       2.500  10.169  17.689  0.00  0.00    +0.000 OA
ENDBRANCH  22  24
ENDBRANCH  15  17
ENDBRANCH   1  15
TORSDOF 6
ENDMDL
MODEL 8
REMARK VINA RESULT:      -7.2      3.188      6.434
REMARK  Name = 
REMARK  7 active torsions:
REMARK  status: ('A' for Active; 'I' for Inactive)
REMARK    1  A    between atoms: C_1  and  C_2
REMARK    2  A    between atoms: C_4  and  O_5
REMARK    3  A    between atoms: C_7  and  O_8
REMARK    4  A    between atoms: C_9  and  S_10
REMARK    5  A    between atoms: S_10  and  N_13
REMARK    6  A    between atoms: N_13  and  C_14
REMARK    7  A    between atoms: C_19  and  N_20
REMARK                            x       y       z     vdW  Elec       q    Type
REMARK                         _______ _______ _______ _____ _____    ______ ____
ROOT
ATOM      1  S   UNL     1       2.497   2.923  18.257  0.00  0.00    +0.000 S 
ATOM      2  O   UNL     1       1.759   1.813  18.824  0.00  0.00    +0.000 OA
ATOM      3  O   UNL     1       2.283   3.316  16.882  0.00  0.00    +0.000 OA
ENDROOT
BRANCH   1  10
ATOM      4  C   UNL     1       1.763   3.106  21.425  0.00  0.00    +0.000 C 
ATOM      5  C   UNL     1       1.940   4.340  20.595  0.00  0.00    +0.000 A 
ATOM      6  N   UNL     1       1.757   5.501  21.281  0.00  0.00    +0.000 NA
ATOM      7  C   UNL     1       1.888   6.634  20.592  0.00  0.00    +0.000 A 
ATOM      8  N   UNL     1       2.184   6.757  19.303  0.00  0.00    +0.000 NA
ATOM      9  C   UNL     1       2.355   5.592  18.669  0.00  0.00    +0.000 A 
ATOM     10  C   UNL     1       2.255   4.347  19.248  0.00  0.00    +0.000 A 
BRANCH   7  11
ATOM     11  O   UNL     1       1.700   7.770  21.309  0.00  0.00    +0.000 OA
ATOM     12  H   UNL     1       2.251   7.563  22.083  0.00  0.00    +0.000 HD
ENDBRANCH   7  11
BRANCH   9  13
ATOM     13  O   UNL     1       2.730   5.776  17.376  0.00  0.00    +0.000 OA
ATOM     14  H   UNL     1       2.248   6.603  17.168  0.00  0.00    +0.000 HD
ENDBRANCH   9  13
ENDBRANCH   1  10
BRANCH   1  15
ATOM     15  N   UNL     1       4.158   2.564  18.426  0.00  0.00    +0.000 N 
ATOM     16  H   UNL     1       4.362   1.661  17.987  0.00  0.00    +0.000 HD
BRANCH  15  17
ATOM     17  C   UNL     1       5.086   3.623  18.220  0.00  0.00    +0.000 A 
ATOM     18  C   UNL     1       5.577   4.320  19.325  0.00  0.00    +0.000 A 
ATOM     19  C   UNL     1       6.418   5.427  19.150  0.00  0.00    +0.000 A 
ATOM     20  C   UNL     1       6.744   5.867  17.865  0.00  0.00    +0.000 A 
ATOM     21 CL   UNL     1       7.704   7.291  17.721  0.00  0.00    +0.000 Cl
ATOM     22  C   UNL     1       6.243   5.157  16.774  0.00  0.00    +0.000 A 
ATOM     23  C   UNL     1       5.428   4.026  16.935  0.00  0.00    +0.000 A 
BRANCH  22  24
ATOM     24  N   UNL     1       6.494   5.598  15.422  0.00  0.00    +0.000 N 
ATOM     25  O   UNL     1       5.637   6.309  14.885  0.00  0.00    +0.000 OA
ATOM     26  O   UNL     1       7.586   5.280  14.932  0.00  0.00    +0.000 OA
ENDBRANCH  22  24
ENDBRANCH  15  17
ENDBRANCH   1  15
TORSDOF 6
ENDMDL
MODEL 9
REMARK VINA RESULT:      -7.1      2.672      3.722
REMARK  Name = 
REMARK  7 active torsions:
REMARK  status: ('A' for Active; 'I' for Inactive)
REMARK    1  A    between atoms: C_1  and  C_2
REMARK    2  A    between atoms: C_4  and  O_5
REMARK    3  A    between atoms: C_7  and  O_8
REMARK    4  A    between atoms: C_9  and  S_10
REMARK    5  A    between atoms: S_10  and  N_13
REMARK    6  A    between atoms: N_13  and  C_14
REMARK    7  A    between atoms: C_19  and  N_20
REMARK                            x       y       z     vdW  Elec       q    Type
REMARK                         _______ _______ _______ _____ _____    ______ ____
ROOT
ATOM      1  S   UNL     1       4.966   6.011  16.322  0.00  0.00    +0.000 S 
ATOM      2  O   UNL     1       5.429   6.983  15.354  0.00  0.00    +0.000 OA
ATOM      3  O   UNL     1       4.583   4.683  15.897  0.00  0.00    +0.000 OA
ENDROOT
BRANCH   1  10
ATOM      4  C   UNL     1       7.241   8.128  17.297  0.00  0.00    +0.000 C 
ATOM      5  C   UNL     1       7.111   6.778  17.934  0.00  0.00    +0.000 A 
ATOM      6  N   UNL     1       8.019   6.539  18.918  0.00  0.00    +0.000 NA
ATOM      7  C   UNL     1       7.961   5.348  19.514  0.00  0.00    +0.000 A 
ATOM      8  N   UNL     1       7.107   4.364  19.254  0.00  0.00    +0.000 NA
ATOM      9  C   UNL     1       6.234   4.643  18.280  0.00  0.00    +0.000 A 
ATOM     10  C   UNL     1       6.171   5.826  17.580  0.00  0.00    +0.000 A 
BRANCH   7  11
ATOM     11  O   UNL     1       8.880   5.147  20.491  0.00  0.00    +0.000 OA
ATOM     12  H   UNL     1       8.695   4.213  20.692  0.00  0.00    +0.000 HD
ENDBRANCH   7  11
BRANCH   9  13
ATOM     13  O   UNL     1       5.338   3.635  18.108  0.00  0.00    +0.000 OA
ATOM     14  H   UNL     1       5.162   3.394  19.041  0.00  0.00    +0.000 HD
ENDBRANCH   9  13
ENDBRANCH   1  10
BRANCH   1  15
ATOM     15  N   UNL     1       3.619   6.694  17.118  0.00  0.00    +0.000 N 
ATOM     16  H   UNL     1       3.038   7.199  16.443  0.00  0.00    +0.000 HD
BRANCH  15  17
ATOM     17  C   UNL     1       2.957   5.897  18.094  0.00  0.00    +0.000 A 
ATOM     18  C   UNL     1       2.925   6.333  19.419  0.00  0.00    +0.000 A 
ATOM     19  C   UNL     1       2.363   5.528  20.419  0.00  0.00    +0.000 A 
ATOM     20  C   UNL     1       1.861   4.263  20.104  0.00  0.00    +0.000 A 
ATOM     21 CL   UNL     1       1.272   3.285  21.396  0.00  0.00    +0.000 Cl
ATOM     22  C   UNL     1       1.903   3.846  18.774  0.00  0.00    +0.000 A 
ATOM     23  C   UNL     1       2.431   4.655  17.757  0.00  0.00    +0.000 A 
BRANCH  22  24
ATOM     24  N   UNL     1       1.456   2.524  18.395  0.00  0.00    +0.000 N 
ATOM     25  O   UNL     1       2.323   1.679  18.146  0.00  0.00    +0.000 OA
ATOM     26  O   UNL     1       0.234   2.328  18.417  0.00  0.00    +0.000 OA
ENDBRANCH  22  24
ENDBRANCH  15  17
ENDBRANCH   1  15
TORSDOF 6
ENDMDL
