MODEL 1
REMARK VINA RESULT:      -7.2      0.000      0.000
REMARK  Name = 
REMARK  5 active torsions:
REMARK  status: ('A' for Active; 'I' for Inactive)
REMARK    1  A    between atoms: O_1  and  C_2
REMARK    2  A    between atoms: C_5  and  C_6
REMARK    3  A    between atoms: C_9  and  S_10
REMARK    4  A    between atoms: N_11  and  C_12
REMARK    5  A    between atoms: C_12  and  C_13
REMARK                            x       y       z     vdW  Elec       q    Type
REMARK                         _______ _______ _______ _____ _____    ______ ____
ROOT
ATOM      1  C   UNL     1       5.086   4.772  18.807  0.00  0.00    +0.000 A 
ATOM      2  N   UNL     1       5.827   4.728  19.905  0.00  0.00    +0.000 NA
ATOM      3  N   UNL     1       6.913   5.551  19.749  0.00  0.00    +0.000 NA
ATOM      4  C   UNL     1       6.813   6.105  18.568  0.00  0.00    +0.000 A 
ATOM      5  N   UNL     1       5.686   5.662  17.930  0.00  0.00    +0.000 N 
ENDROOT
BRANCH   1   9
ATOM      6  C   UNL     1       1.454   2.555  18.382  0.00  0.00    +0.000 A 
ATOM      7  C   UNL     1       2.645   2.053  17.869  0.00  0.00    +0.000 A 
ATOM      8  C   UNL     1       3.817   2.806  17.997  0.00  0.00    +0.000 A 
ATOM      9  C   UNL     1       3.814   4.057  18.639  0.00  0.00    +0.000 A 
ATOM     10  C   UNL     1       2.586   4.566  19.080  0.00  0.00    +0.000 A 
ATOM     11  C   UNL     1       1.414   3.812  18.972  0.00  0.00    +0.000 A 
BRANCH   6  12
ATOM     12  O   UNL     1       0.297   1.842  18.332  0.00  0.00    +0.000 OA
ATOM     13  H   UNL     1      -0.427   2.443  18.086  0.00  0.00    +0.000 HD
ENDBRANCH   6  12
ENDBRANCH   1   9
BRANCH   4  14
ATOM     14  S   UNL     1       7.940   7.237  17.915  0.00  0.00    +0.000 S 
ATOM     15  H   UNL     1       8.902   7.043  18.829  0.00  0.00    +0.000 HD
ENDBRANCH   4  14
BRANCH   5  16
ATOM     16  C   UNL     1       5.163   6.159  16.670  0.00  0.00    +0.000 C 
BRANCH  16  17
ATOM     17  C   UNL     1       5.623   5.353  15.507  0.00  0.00    +0.000 A 
ATOM     18  C   UNL     1       5.117   4.288  14.787  0.00  0.00    +0.000 A 
ATOM     19  C   UNL     1       6.076   3.977  13.794  0.00  0.00    +0.000 A 
ATOM     20  C   UNL     1       7.105   4.872  13.963  0.00  0.00    +0.000 A 
ATOM     21  O   UNL     1       6.841   5.709  14.997  0.00  0.00    +0.000 OA
ENDBRANCH  16  17
ENDBRANCH   5  16
TORSDOF 5
ENDMDL
MODEL 2
REMARK VINA RESULT:      -7.2      0.222      1.105
REMARK  Name = 
REMARK  5 active torsions:
REMARK  status: ('A' for Active; 'I' for Inactive)
REMARK    1  A    between atoms: O_1  and  C_2
REMARK    2  A    between atoms: C_5  and  C_6
REMARK    3  A    between atoms: C_9  and  S_10
REMARK    4  A    between atoms: N_11  and  C_12
REMARK    5  A    between atoms: C_12  and  C_13
REMARK                            x       y       z     vdW  Elec       q    Type
REMARK                         _______ _______ _______ _____ _____    ______ ____
ROOT
ATOM      1  C   UNL     1       5.184   4.636  18.848  0.00  0.00    +0.000 A 
ATOM      2  N   UNL     1       5.968   4.632  19.918  0.00  0.00    +0.000 NA
ATOM      3  N   UNL     1       7.005   5.507  19.719  0.00  0.00    +0.000 NA
ATOM      4  C   UNL     1       6.833   6.052  18.542  0.00  0.00    +0.000 A 
ATOM      5  N   UNL     1       5.706   5.551  17.948  0.00  0.00    +0.000 N 
ENDROOT
BRANCH   1   9
ATOM      6  C   UNL     1       1.490   2.514  18.486  0.00  0.00    +0.000 A 
ATOM      7  C   UNL     1       1.612   3.555  19.399  0.00  0.00    +0.000 A 
ATOM      8  C   UNL     1       2.837   4.221  19.519  0.00  0.00    +0.000 A 
ATOM      9  C   UNL     1       3.944   3.858  18.730  0.00  0.00    +0.000 A 
ATOM     10  C   UNL     1       3.809   2.759  17.874  0.00  0.00    +0.000 A 
ATOM     11  C   UNL     1       2.583   2.101  17.736  0.00  0.00    +0.000 A 
BRANCH   6  12
ATOM     12  O   UNL     1       0.309   1.868  18.291  0.00  0.00    +0.000 OA
ATOM     13  H   UNL     1      -0.021   1.557  19.151  0.00  0.00    +0.000 HD
ENDBRANCH   6  12
ENDBRANCH   1   9
BRANCH   4  14
ATOM     14  S   UNL     1       7.877   7.236  17.845  0.00  0.00    +0.000 S 
ATOM     15  H   UNL     1       8.457   7.625  18.991  0.00  0.00    +0.000 HD
ENDBRANCH   4  14
BRANCH   5  16
ATOM     16  C   UNL     1       5.113   6.018  16.709  0.00  0.00    +0.000 C 
BRANCH  16  17
ATOM     17  C   UNL     1       5.596   5.256  15.525  0.00  0.00    +0.000 A 
ATOM     18  C   UNL     1       5.136   4.177  14.795  0.00  0.00    +0.000 A 
ATOM     19  C   UNL     1       6.095   3.934  13.782  0.00  0.00    +0.000 A 
ATOM     20  C   UNL     1       7.078   4.878  13.952  0.00  0.00    +0.000 A 
ATOM     21  O   UNL     1       6.786   5.684  15.003  0.00  0.00    +0.000 OA
ENDBRANCH  16  17
ENDBRANCH   5  16
TORSDOF 5
ENDMDL
MODEL 3
REMARK VINA RESULT:      -6.9      3.269      5.598
REMARK  Name = 
REMARK  5 active torsions:
REMARK  status: ('A' for Active; 'I' for Inactive)
REMARK    1  A    between atoms: O_1  and  C_2
REMARK    2  A    between atoms: C_5  and  C_6
REMARK    3  A    between atoms: C_9  and  S_10
REMARK    4  A    between atoms: N_11  and  C_12
REMARK    5  A    between atoms: C_12  and  C_13
REMARK                            x       y       z     vdW  Elec       q    Type
REMARK                         _______ _______ _______ _____ _____    ______ ____
ROOT
ATOM      1  C   UNL     1       3.860   3.515  17.888  0.00  0.00    +0.000 A 
ATOM      2  N   UNL     1       3.084   2.478  17.603  0.00  0.00    +0.000 NA
ATOM      3  N   UNL     1       2.132   2.346  18.582  0.00  0.00    +0.000 NA
ATOM      4  C   UNL     1       2.321   3.313  19.441  0.00  0.00    +0.000 A 
ATOM      5  N   UNL     1       3.386   4.084  19.060  0.00  0.00    +0.000 N 
ENDROOT
BRANCH   1   9
ATOM      6  C   UNL     1       6.943   5.008  15.330  0.00  0.00    +0.000 A 
ATOM      7  C   UNL     1       5.700   4.673  14.806  0.00  0.00    +0.000 A 
ATOM      8  C   UNL     1       4.712   4.164  15.656  0.00  0.00    +0.000 A 
ATOM      9  C   UNL     1       4.954   3.988  17.031  0.00  0.00    +0.000 A 
ATOM     10  C   UNL     1       6.238   4.266  17.513  0.00  0.00    +0.000 A 
ATOM     11  C   UNL     1       7.224   4.793  16.674  0.00  0.00    +0.000 A 
BRANCH   6  12
ATOM     12  O   UNL     1       7.921   5.557  14.560  0.00  0.00    +0.000 OA
ATOM     13  H   UNL     1       7.514   6.198  13.954  0.00  0.00    +0.000 HD
ENDBRANCH   6  12
ENDBRANCH   1   9
BRANCH   4  14
ATOM     14  S   UNL     1       1.360   3.580  20.849  0.00  0.00    +0.000 S 
ATOM     15  H   UNL     1       2.262   4.317  21.515  0.00  0.00    +0.000 HD
ENDBRANCH   4  14
BRANCH   5  16
ATOM     16  C   UNL     1       3.808   5.327  19.679  0.00  0.00    +0.000 C 
BRANCH  16  17
ATOM     17  C   UNL     1       3.192   6.520  19.035  0.00  0.00    +0.000 A 
ATOM     18  C   UNL     1       3.291   7.132  17.800  0.00  0.00    +0.000 A 
ATOM     19  C   UNL     1       2.437   8.259  17.836  0.00  0.00    +0.000 A 
ATOM     20  C   UNL     1       1.866   8.266  19.086  0.00  0.00    +0.000 A 
ATOM     21  O   UNL     1       2.316   7.217  19.819  0.00  0.00    +0.000 OA
ENDBRANCH  16  17
ENDBRANCH   5  16
TORSDOF 5
ENDMDL
MODEL 4
REMARK VINA RESULT:      -6.9      3.288      5.637
REMARK  Name = 
REMARK  5 active torsions:
REMARK  status: ('A' for Active; 'I' for Inactive)
REMARK    1  A    between atoms: O_1  and  C_2
REMARK    2  A    between atoms: C_5  and  C_6
REMARK    3  A    between atoms: C_9  and  S_10
REMARK    4  A    between atoms: N_11  and  C_12
REMARK    5  A    between atoms: C_12  and  C_13
REMARK                            x       y       z     vdW  Elec       q    Type
REMARK                         _______ _______ _______ _____ _____    ______ ____
ROOT
ATOM      1  C   UNL     1       3.821   3.532  17.882  0.00  0.00    +0.000 A 
ATOM      2  N   UNL     1       3.075   2.475  17.593  0.00  0.00    +0.000 NA
ATOM      3  N   UNL     1       2.164   2.278  18.599  0.00  0.00    +0.000 NA
ATOM      4  C   UNL     1       2.347   3.227  19.480  0.00  0.00    +0.000 A 
ATOM      5  N   UNL     1       3.368   4.049  19.086  0.00  0.00    +0.000 N 
ENDROOT
BRANCH   1   9
ATOM      6  C   UNL     1       6.961   4.981  15.368  0.00  0.00    +0.000 A 
ATOM      7  C   UNL     1       7.204   4.721  16.712  0.00  0.00    +0.000 A 
ATOM      8  C   UNL     1       6.157   4.271  17.523  0.00  0.00    +0.000 A 
ATOM      9  C   UNL     1       4.865   4.072  17.002  0.00  0.00    +0.000 A 
ATOM     10  C   UNL     1       4.637   4.412  15.663  0.00  0.00    +0.000 A 
ATOM     11  C   UNL     1       5.683   4.845  14.843  0.00  0.00    +0.000 A 
BRANCH   6  12
ATOM     12  O   UNL     1       7.954   5.369  14.524  0.00  0.00    +0.000 OA
ATOM     13  H   UNL     1       7.598   5.404  13.621  0.00  0.00    +0.000 HD
ENDBRANCH   6  12
ENDBRANCH   1   9
BRANCH   4  14
ATOM     14  S   UNL     1       1.427   3.415  20.928  0.00  0.00    +0.000 S 
ATOM     15  H   UNL     1       0.262   3.713  20.333  0.00  0.00    +0.000 HD
ENDBRANCH   4  14
BRANCH   5  16
ATOM     16  C   UNL     1       3.764   5.289  19.727  0.00  0.00    +0.000 C 
BRANCH  16  17
ATOM     17  C   UNL     1       3.110   6.479  19.117  0.00  0.00    +0.000 A 
ATOM     18  C   UNL     1       3.148   7.097  17.881  0.00  0.00    +0.000 A 
ATOM     19  C   UNL     1       2.286   8.216  17.961  0.00  0.00    +0.000 A 
ATOM     20  C   UNL     1       1.771   8.212  19.235  0.00  0.00    +0.000 A 
ATOM     21  O   UNL     1       2.262   7.164  19.942  0.00  0.00    +0.000 OA
ENDBRANCH  16  17
ENDBRANCH   5  16
TORSDOF 5
ENDMDL
MODEL 5
REMARK VINA RESULT:      -6.9      3.003      5.548
REMARK  Name = 
REMARK  5 active torsions:
REMARK  status: ('A' for Active; 'I' for Inactive)
REMARK    1  A    between atoms: O_1  and  C_2
REMARK    2  A    between atoms: C_5  and  C_6
REMARK    3  A    between atoms: C_9  and  S_10
REMARK    4  A    between atoms: N_11  and  C_12
REMARK    5  A    between atoms: C_12  and  C_13
REMARK                            x       y       z     vdW  Elec       q    Type
REMARK                         _______ _______ _______ _____ _____    ______ ____
ROOT
ATOM      1  C   UNL     1       4.529   3.541  18.942  0.00  0.00    +0.000 A 
ATOM      2  N   UNL     1       5.037   2.706  19.838  0.00  0.00    +0.000 NA
ATOM      3  N   UNL     1       4.055   2.347  20.727  0.00  0.00    +0.000 NA
ATOM      4  C   UNL     1       2.955   2.949  20.353  0.00  0.00    +0.000 A 
ATOM      5  N   UNL     1       3.185   3.707  19.237  0.00  0.00    +0.000 N 
ENDROOT
BRANCH   1   9
ATOM      6  C   UNL     1       6.856   5.092  15.708  0.00  0.00    +0.000 A 
ATOM      7  C   UNL     1       7.120   5.490  17.013  0.00  0.00    +0.000 A 
ATOM      8  C   UNL     1       6.331   4.989  18.055  0.00  0.00    +0.000 A 
ATOM      9  C   UNL     1       5.280   4.088  17.805  0.00  0.00    +0.000 A 
ATOM     10  C   UNL     1       4.995   3.764  16.473  0.00  0.00    +0.000 A 
ATOM     11  C   UNL     1       5.790   4.246  15.430  0.00  0.00    +0.000 A 
BRANCH   6  12
ATOM     12  O   UNL     1       7.624   5.506  14.664  0.00  0.00    +0.000 OA
ATOM     13  H   UNL     1       7.991   4.724  14.219  0.00  0.00    +0.000 HD
ENDBRANCH   6  12
ENDBRANCH   1   9
BRANCH   4  14
ATOM     14  S   UNL     1       1.433   2.800  21.151  0.00  0.00    +0.000 S 
ATOM     15  H   UNL     1       0.925   3.971  20.737  0.00  0.00    +0.000 HD
ENDBRANCH   4  14
BRANCH   5  16
ATOM     16  C   UNL     1       2.181   4.400  18.450  0.00  0.00    +0.000 C 
BRANCH  16  17
ATOM     17  C   UNL     1       2.226   5.875  18.643  0.00  0.00    +0.000 A 
ATOM     18  C   UNL     1       2.489   6.965  17.836  0.00  0.00    +0.000 A 
ATOM     19  C   UNL     1       2.380   8.113  18.655  0.00  0.00    +0.000 A 
ATOM     20  C   UNL     1       2.053   7.657  19.910  0.00  0.00    +0.000 A 
ATOM     21  O   UNL     1       1.957   6.304  19.913  0.00  0.00    +0.000 OA
ENDBRANCH  16  17
ENDBRANCH   5  16
TORSDOF 5
ENDMDL
MODEL 6
REMARK VINA RESULT:      -6.7      3.015      5.484
REMARK  Name = 
REMARK  5 active torsions:
REMARK  status: ('A' for Active; 'I' for Inactive)
REMARK    1  A    between atoms: O_1  and  C_2
REMARK    2  A    between atoms: C_5  and  C_6
REMARK    3  A    between atoms: C_9  and  S_10
REMARK    4  A    between atoms: N_11  and  C_12
REMARK    5  A    between atoms: C_12  and  C_13
REMARK                            x       y       z     vdW  Elec       q    Type
REMARK                         _______ _______ _______ _____ _____    ______ ____
ROOT
ATOM      1  C   UNL     1       4.560   3.603  18.839  0.00  0.00    +0.000 A 
ATOM      2  N   UNL     1       4.971   2.759  19.775  0.00  0.00    +0.000 NA
ATOM      3  N   UNL     1       3.921   2.459  20.604  0.00  0.00    +0.000 NA
ATOM      4  C   UNL     1       2.876   3.105  20.156  0.00  0.00    +0.000 A 
ATOM      5  N   UNL     1       3.209   3.835  19.047  0.00  0.00    +0.000 N 
ENDROOT
BRANCH   1   9
ATOM      6  C   UNL     1       6.880   5.069  15.560  0.00  0.00    +0.000 A 
ATOM      7  C   UNL     1       5.955   4.050  15.363  0.00  0.00    +0.000 A 
ATOM      8  C   UNL     1       5.224   3.568  16.453  0.00  0.00    +0.000 A 
ATOM      9  C   UNL     1       5.404   4.099  17.744  0.00  0.00    +0.000 A 
ATOM     10  C   UNL     1       6.394   5.072  17.921  0.00  0.00    +0.000 A 
ATOM     11  C   UNL     1       7.116   5.571  16.833  0.00  0.00    +0.000 A 
BRANCH   6  12
ATOM     12  O   UNL     1       7.580   5.610  14.527  0.00  0.00    +0.000 OA
ATOM     13  H   UNL     1       8.526   5.591  14.749  0.00  0.00    +0.000 HD
ENDBRANCH   6  12
ENDBRANCH   1   9
BRANCH   4  14
ATOM     14  S   UNL     1       1.302   3.037  20.859  0.00  0.00    +0.000 S 
ATOM     15  H   UNL     1       0.835   4.166  20.305  0.00  0.00    +0.000 HD
ENDBRANCH   4  14
BRANCH   5  16
ATOM     16  C   UNL     1       2.289   4.561  18.191  0.00  0.00    +0.000 C 
BRANCH  16  17
ATOM     17  C   UNL     1       2.294   6.024  18.462  0.00  0.00    +0.000 A 
ATOM     18  C   UNL     1       2.555   7.161  17.721  0.00  0.00    +0.000 A 
ATOM     19  C   UNL     1       2.396   8.261  18.597  0.00  0.00    +0.000 A 
ATOM     20  C   UNL     1       2.044   7.733  19.815  0.00  0.00    +0.000 A 
ATOM     21  O   UNL     1       1.979   6.379  19.744  0.00  0.00    +0.000 OA
ENDBRANCH  16  17
ENDBRANCH   5  16
TORSDOF 5
ENDMDL
MODEL 7
REMARK VINA RESULT:      -6.5      2.099      3.314
REMARK  Name = 
REMARK  5 active torsions:
REMARK  status: ('A' for Active; 'I' for Inactive)
REMARK    1  A    between atoms: O_1  and  C_2
REMARK    2  A    between atoms: C_5  and  C_6
REMARK    3  A    between atoms: C_9  and  S_10
REMARK    4  A    between atoms: N_11  and  C_12
REMARK    5  A    between atoms: C_12  and  C_13
REMARK                            x       y       z     vdW  Elec       q    Type
REMARK                         _______ _______ _______ _____ _____    ______ ____
ROOT
ATOM      1  C   UNL     1       5.212   4.629  18.583  0.00  0.00    +0.000 A 
ATOM      2  N   UNL     1       6.260   4.449  19.376  0.00  0.00    +0.000 NA
ATOM      3  N   UNL     1       7.184   5.432  19.130  0.00  0.00    +0.000 NA
ATOM      4  C   UNL     1       6.685   6.213  18.207  0.00  0.00    +0.000 A 
ATOM      5  N   UNL     1       5.448   5.766  17.827  0.00  0.00    +0.000 N 
ENDROOT
BRANCH   1   9
ATOM      6  C   UNL     1       1.612   2.328  18.737  0.00  0.00    +0.000 A 
ATOM      7  C   UNL     1       2.114   2.921  19.890  0.00  0.00    +0.000 A 
ATOM      8  C   UNL     1       3.306   3.649  19.823  0.00  0.00    +0.000 A 
ATOM      9  C   UNL     1       4.003   3.796  18.610  0.00  0.00    +0.000 A 
ATOM     10  C   UNL     1       3.510   3.126  17.484  0.00  0.00    +0.000 A 
ATOM     11  C   UNL     1       2.310   2.412  17.540  0.00  0.00    +0.000 A 
BRANCH   6  12
ATOM     12  O   UNL     1       0.431   1.654  18.735  0.00  0.00    +0.000 OA
ATOM     13  H   UNL     1       0.011   1.760  19.605  0.00  0.00    +0.000 HD
ENDBRANCH   6  12
ENDBRANCH   1   9
BRANCH   4  14
ATOM     14  S   UNL     1       7.473   7.609  17.568  0.00  0.00    +0.000 S 
ATOM     15  H   UNL     1       6.359   8.312  17.314  0.00  0.00    +0.000 HD
ENDBRANCH   4  14
BRANCH   5  16
ATOM     16  C   UNL     1       4.528   6.450  16.937  0.00  0.00    +0.000 C 
BRANCH  16  17
ATOM     17  C   UNL     1       3.501   7.234  17.676  0.00  0.00    +0.000 A 
ATOM     18  C   UNL     1       2.819   7.085  18.868  0.00  0.00    +0.000 A 
ATOM     19  C   UNL     1       1.952   8.198  18.982  0.00  0.00    +0.000 A 
ATOM     20  C   UNL     1       2.159   8.960  17.858  0.00  0.00    +0.000 A 
ATOM     21  O   UNL     1       3.095   8.387  17.061  0.00  0.00    +0.000 OA
ENDBRANCH  16  17
ENDBRANCH   5  16
TORSDOF 5
ENDMDL
MODEL 8
REMARK VINA RESULT:      -6.4      3.961      6.009
REMARK  Name = 
REMARK  5 active torsions:
REMARK  status: ('A' for Active; 'I' for Inactive)
REMARK    1  A    between atoms: O_1  and  C_2
REMARK    2  A    between atoms: C_5  and  C_6
REMARK    3  A    between atoms: C_9  and  S_10
REMARK    4  A    between atoms: N_11  and  C_12
REMARK    5  A    between atoms: C_12  and  C_13
REMARK                            x       y       z     vdW  Elec       q    Type
REMARK                         _______ _______ _______ _____ _____    ______ ____
ROOT
ATOM      1  C   UNL     1       3.168   6.856  18.120  0.00  0.00    +0.000 A 
ATOM      2  N   UNL     1       4.389   7.096  17.663  0.00  0.00    +0.000 NA
ATOM      3  N   UNL     1       4.934   5.926  17.199  0.00  0.00    +0.000 NA
ATOM      4  C   UNL     1       4.035   4.989  17.358  0.00  0.00    +0.000 A 
ATOM      5  N   UNL     1       2.903   5.509  17.924  0.00  0.00    +0.000 N 
ENDROOT
BRANCH   1   9
ATOM      6  C   UNL     1       0.430   9.828  19.519  0.00  0.00    +0.000 A 
ATOM      7  C   UNL     1       0.841   9.824  18.190  0.00  0.00    +0.000 A 
ATOM      8  C   UNL     1       1.756   8.858  17.759  0.00  0.00    +0.000 A 
ATOM      9  C   UNL     1       2.264   7.888  18.643  0.00  0.00    +0.000 A 
ATOM     10  C   UNL     1       1.886   7.965  19.989  0.00  0.00    +0.000 A 
ATOM     11  C   UNL     1       0.959   8.916  20.423  0.00  0.00    +0.000 A 
BRANCH   6  12
ATOM     12  O   UNL     1      -0.496  10.711  19.979  0.00  0.00    +0.000 OA
ATOM     13  H   UNL     1      -0.164  11.612  19.834  0.00  0.00    +0.000 HD
ENDBRANCH   6  12
ENDBRANCH   1   9
BRANCH   4  14
ATOM     14  S   UNL     1       4.247   3.336  16.909  0.00  0.00    +0.000 S 
ATOM     15  H   UNL     1       2.960   3.087  16.623  0.00  0.00    +0.000 HD
ENDBRANCH   4  14
BRANCH   5  16
ATOM     16  C   UNL     1       1.645   4.813  18.118  0.00  0.00    +0.000 C 
BRANCH  16  17
ATOM     17  C   UNL     1       1.597   4.076  19.411  0.00  0.00    +0.000 A 
ATOM     18  C   UNL     1       0.917   2.972  19.889  0.00  0.00    +0.000 A 
ATOM     19  C   UNL     1       1.318   2.800  21.235  0.00  0.00    +0.000 A 
ATOM     20  C   UNL     1       2.219   3.804  21.496  0.00  0.00    +0.000 A 
ATOM     21  O   UNL     1       2.396   4.581  20.399  0.00  0.00    +0.000 OA
ENDBRANCH  16  17
ENDBRANCH   5  16
TORSDOF 5
ENDMDL
MODEL 9
REMARK VINA RESULT:      -6.4      3.944      5.976
REMARK  Name = 
REMARK  5 active torsions:
REMARK  status: ('A' for Active; 'I' for Inactive)
REMARK    1  A    between atoms: O_1  and  C_2
REMARK    2  A    between atoms: C_5  and  C_6
REMARK    3  A    between atoms: C_9  and  S_10
REMARK    4  A    between atoms: N_11  and  C_12
REMARK    5  A    between atoms: C_12  and  C_13
REMARK                            x       y       z     vdW  Elec       q    Type
REMARK                         _______ _______ _______ _____ _____    ______ ____
ROOT
ATOM      1  C   UNL     1       3.207   6.888  18.079  0.00  0.00    +0.000 A 
ATOM      2  N   UNL     1       4.434   7.172  17.665  0.00  0.00    +0.000 NA
ATOM      3  N   UNL     1       5.032   6.025  17.208  0.00  0.00    +0.000 NA
ATOM      4  C   UNL     1       4.159   5.058  17.327  0.00  0.00    +0.000 A 
ATOM      5  N   UNL     1       2.993   5.536  17.861  0.00  0.00    +0.000 N 
ENDROOT
BRANCH   1   9
ATOM      6  C   UNL     1       0.538   9.827  19.666  0.00  0.00    +0.000 A 
ATOM      7  C   UNL     1       1.063   8.840  20.492  0.00  0.00    +0.000 A 
ATOM      8  C   UNL     1       1.915   7.873  19.948  0.00  0.00    +0.000 A 
ATOM      9  C   UNL     1       2.254   7.885  18.582  0.00  0.00    +0.000 A 
ATOM     10  C   UNL     1       1.651   8.848  17.765  0.00  0.00    +0.000 A 
ATOM     11  C   UNL     1       0.813   9.828  18.304  0.00  0.00    +0.000 A 
BRANCH   6  12
ATOM     12  O   UNL     1      -0.253  10.822  20.152  0.00  0.00    +0.000 OA
ATOM     13  H   UNL     1      -0.386  10.675  21.103  0.00  0.00    +0.000 HD
ENDBRANCH   6  12
ENDBRANCH   1   9
BRANCH   4  14
ATOM     14  S   UNL     1       4.439   3.419  16.868  0.00  0.00    +0.000 S 
ATOM     15  H   UNL     1       5.672   3.605  16.374  0.00  0.00    +0.000 HD
ENDBRANCH   4  14
BRANCH   5  16
ATOM     16  C   UNL     1       1.752   4.798  18.006  0.00  0.00    +0.000 C 
BRANCH  16  17
ATOM     17  C   UNL     1       1.654   4.103  19.319  0.00  0.00    +0.000 A 
ATOM     18  C   UNL     1       0.897   3.065  19.829  0.00  0.00    +0.000 A 
ATOM     19  C   UNL     1       1.289   2.903  21.179  0.00  0.00    +0.000 A 
ATOM     20  C   UNL     1       2.261   3.845  21.411  0.00  0.00    +0.000 A 
ATOM     21  O   UNL     1       2.491   4.576  20.292  0.00  0.00    +0.000 OA
ENDBRANCH  16  17
ENDBRANCH   5  16
TORSDOF 5
ENDMDL
