MODEL 1
REMARK VINA RESULT:      -7.1      0.000      0.000
REMARK  Name = 
REMARK  4 active torsions:
REMARK  status: ('A' for Active; 'I' for Inactive)
REMARK    1  A    between atoms: C_1  and  N_2
REMARK    2  A    between atoms: C_3  and  C_4
REMARK    3  A    between atoms: C_5  and  C_6
REMARK    4  A    between atoms: N_15  and  C_16
REMARK                            x       y       z     vdW  Elec       q    Type
REMARK                         _______ _______ _______ _____ _____    ______ ____
ROOT
ATOM      1  C   UNL     1       8.304   9.490  18.012  0.00  0.00    +0.000 C 
ATOM      2  C   UNL     1       7.600   8.521  17.912  0.00  0.00    +0.000 C 
ENDROOT
BRANCH   1   5
ATOM      3  C   UNL     1       7.621  12.368  17.133  0.00  0.00    +0.000 C 
ATOM      4  N   UNL     1       8.860  11.925  17.737  0.00  0.00    +0.000 N 
ATOM      5  C   UNL     1       9.156  10.637  18.127  0.00  0.00    +0.000 A 
ATOM      6  C   UNL     1      10.433  10.654  18.651  0.00  0.00    +0.000 A 
ATOM      7  C   UNL     1      10.931  11.984  18.579  0.00  0.00    +0.000 A 
ATOM      8  C   UNL     1      12.148  12.591  18.955  0.00  0.00    +0.000 A 
ATOM      9  C   UNL     1      12.333  13.962  18.747  0.00  0.00    +0.000 A 
ATOM     10  C   UNL     1      11.322  14.724  18.172  0.00  0.00    +0.000 A 
ATOM     11 BR   UNL     1      11.600  16.578  17.903  0.00  0.00    +0.000 Br
ATOM     12  C   UNL     1      10.103  14.150  17.789  0.00  0.00    +0.000 A 
ATOM     13  C   UNL     1       9.929  12.769  18.003  0.00  0.00    +0.000 A 
ENDBRANCH   1   5
BRANCH   2  14
ATOM     14  C   UNL     1       6.740   7.378  17.801  0.00  0.00    +0.000 A 
ATOM     15  C   UNL     1       5.644   7.256  16.975  0.00  0.00    +0.000 A 
ATOM     16  C   UNL     1       5.073   5.969  17.175  0.00  0.00    +0.000 A 
ATOM     17  C   UNL     1       3.962   5.301  16.617  0.00  0.00    +0.000 A 
ATOM     18  C   UNL     1       3.649   4.004  17.034  0.00  0.00    +0.000 A 
ATOM     19  C   UNL     1       4.430   3.374  17.996  0.00  0.00    +0.000 A 
ATOM     20 BR   UNL     1       3.985   1.617  18.546  0.00  0.00    +0.000 Br
ATOM     21  C   UNL     1       5.538   4.010  18.568  0.00  0.00    +0.000 A 
ATOM     22  C   UNL     1       5.847   5.318  18.141  0.00  0.00    +0.000 A 
ATOM     23  N   UNL     1       6.854   6.196  18.506  0.00  0.00    +0.000 N 
ATOM     24  C   UNL     1       7.888   5.931  19.483  0.00  0.00    +0.000 C 
ENDBRANCH   2  14
TORSDOF 2
ENDMDL
MODEL 2
REMARK VINA RESULT:      -7.1      0.175      9.873
REMARK  Name = 
REMARK  4 active torsions:
REMARK  status: ('A' for Active; 'I' for Inactive)
REMARK    1  A    between atoms: C_1  and  N_2
REMARK    2  A    between atoms: C_3  and  C_4
REMARK    3  A    between atoms: C_5  and  C_6
REMARK    4  A    between atoms: N_15  and  C_16
REMARK                            x       y       z     vdW  Elec       q    Type
REMARK                         _______ _______ _______ _____ _____    ______ ____
ROOT
ATOM      1  C   UNL     1       7.670   8.483  17.934  0.00  0.00    +0.000 C 
ATOM      2  C   UNL     1       8.363   9.455  18.069  0.00  0.00    +0.000 C 
ENDROOT
BRANCH   1   5
ATOM      3  C   UNL     1       7.748   5.931  19.668  0.00  0.00    +0.000 C 
ATOM      4  N   UNL     1       6.861   6.186  18.552  0.00  0.00    +0.000 N 
ATOM      5  C   UNL     1       6.833   7.329  17.784  0.00  0.00    +0.000 A 
ATOM      6  C   UNL     1       5.845   7.157  16.835  0.00  0.00    +0.000 A 
ATOM      7  C   UNL     1       5.254   5.877  17.027  0.00  0.00    +0.000 A 
ATOM      8  C   UNL     1       4.222   5.173  16.374  0.00  0.00    +0.000 A 
ATOM      9  C   UNL     1       3.865   3.895  16.818  0.00  0.00    +0.000 A 
ATOM     10  C   UNL     1       4.526   3.321  17.899  0.00  0.00    +0.000 A 
ATOM     11 BR   UNL     1       4.022   1.590  18.478  0.00  0.00    +0.000 Br
ATOM     12  C   UNL     1       5.555   3.996  18.567  0.00  0.00    +0.000 A 
ATOM     13  C   UNL     1       5.904   5.282  18.111  0.00  0.00    +0.000 A 
ENDBRANCH   1   5
BRANCH   2  14
ATOM     14  C   UNL     1       9.208  10.606  18.213  0.00  0.00    +0.000 A 
ATOM     15  C   UNL     1      10.458  10.635  18.793  0.00  0.00    +0.000 A 
ATOM     16  C   UNL     1      10.948  11.969  18.732  0.00  0.00    +0.000 A 
ATOM     17  C   UNL     1      12.144  12.585  19.158  0.00  0.00    +0.000 A 
ATOM     18  C   UNL     1      12.333  13.955  18.951  0.00  0.00    +0.000 A 
ATOM     19  C   UNL     1      11.345  14.708  18.328  0.00  0.00    +0.000 A 
ATOM     20 BR   UNL     1      11.623  16.562  18.059  0.00  0.00    +0.000 Br
ATOM     21  C   UNL     1      10.147  14.126  17.894  0.00  0.00    +0.000 A 
ATOM     22  C   UNL     1       9.966  12.744  18.106  0.00  0.00    +0.000 A 
ATOM     23  N   UNL     1       8.918  11.891  17.800  0.00  0.00    +0.000 N 
ATOM     24  C   UNL     1       7.687  12.274  17.143  0.00  0.00    +0.000 C 
ENDBRANCH   2  14
TORSDOF 2
ENDMDL
MODEL 3
REMARK VINA RESULT:      -7.0      6.723     11.416
REMARK  Name = 
REMARK  4 active torsions:
REMARK  status: ('A' for Active; 'I' for Inactive)
REMARK    1  A    between atoms: C_1  and  N_2
REMARK    2  A    between atoms: C_3  and  C_4
REMARK    3  A    between atoms: C_5  and  C_6
REMARK    4  A    between atoms: N_15  and  C_16
REMARK                            x       y       z     vdW  Elec       q    Type
REMARK                         _______ _______ _______ _____ _____    ______ ____
ROOT
ATOM      1  C   UNL     1       1.683  10.061  18.951  0.00  0.00    +0.000 C 
ATOM      2  C   UNL     1       1.537  11.250  18.848  0.00  0.00    +0.000 C 
ENDROOT
BRANCH   1   5
ATOM      3  C   UNL     1       1.220   8.364  21.487  0.00  0.00    +0.000 C 
ATOM      4  N   UNL     1       1.642   7.876  20.191  0.00  0.00    +0.000 N 
ATOM      5  C   UNL     1       1.846   8.642  19.063  0.00  0.00    +0.000 A 
ATOM      6  C   UNL     1       2.239   7.784  18.055  0.00  0.00    +0.000 A 
ATOM      7  C   UNL     1       2.278   6.462  18.578  0.00  0.00    +0.000 A 
ATOM      8  C   UNL     1       2.601   5.205  18.027  0.00  0.00    +0.000 A 
ATOM      9  C   UNL     1       2.539   4.059  18.827  0.00  0.00    +0.000 A 
ATOM     10  C   UNL     1       2.159   4.159  20.161  0.00  0.00    +0.000 A 
ATOM     11 BR   UNL     1       2.083   2.590  21.220  0.00  0.00    +0.000 Br
ATOM     12  C   UNL     1       1.832   5.393  20.737  0.00  0.00    +0.000 A 
ATOM     13  C   UNL     1       1.899   6.538  19.921  0.00  0.00    +0.000 A 
ENDBRANCH   1   5
BRANCH   2  14
ATOM     14  C   UNL     1       1.382  12.672  18.744  0.00  0.00    +0.000 A 
ATOM     15  C   UNL     1       2.388  13.592  18.544  0.00  0.00    +0.000 A 
ATOM     16  C   UNL     1       1.806  14.889  18.502  0.00  0.00    +0.000 A 
ATOM     17  C   UNL     1       2.334  16.186  18.327  0.00  0.00    +0.000 A 
ATOM     18  C   UNL     1       1.479  17.293  18.336  0.00  0.00    +0.000 A 
ATOM     19  C   UNL     1       0.112  17.116  18.518  0.00  0.00    +0.000 A 
ATOM     20 BR   UNL     1      -1.026  18.630  18.528  0.00  0.00    +0.000 Br
ATOM     21  C   UNL     1      -0.442  15.842  18.695  0.00  0.00    +0.000 A 
ATOM     22  C   UNL     1       0.428  14.732  18.683  0.00  0.00    +0.000 A 
ATOM     23  N   UNL     1       0.196  13.374  18.827  0.00  0.00    +0.000 N 
ATOM     24  C   UNL     1      -1.098  12.759  19.037  0.00  0.00    +0.000 C 
ENDBRANCH   2  14
TORSDOF 2
ENDMDL
MODEL 4
REMARK VINA RESULT:      -7.0      7.514      9.046
REMARK  Name = 
REMARK  4 active torsions:
REMARK  status: ('A' for Active; 'I' for Inactive)
REMARK    1  A    between atoms: C_1  and  N_2
REMARK    2  A    between atoms: C_3  and  C_4
REMARK    3  A    between atoms: C_5  and  C_6
REMARK    4  A    between atoms: N_15  and  C_16
REMARK                            x       y       z     vdW  Elec       q    Type
REMARK                         _______ _______ _______ _____ _____    ______ ____
ROOT
ATOM      1  C   UNL     1       0.833   9.307  20.893  0.00  0.00    +0.000 C 
ATOM      2  C   UNL     1       1.435   8.401  20.380  0.00  0.00    +0.000 C 
ENDROOT
BRANCH   1   5
ATOM      3  C   UNL     1       1.386  12.323  20.554  0.00  0.00    +0.000 C 
ATOM      4  N   UNL     1       0.341  11.726  21.359  0.00  0.00    +0.000 N 
ATOM      5  C   UNL     1       0.102  10.377  21.504  0.00  0.00    +0.000 A 
ATOM      6  C   UNL     1      -0.979  10.245  22.353  0.00  0.00    +0.000 A 
ATOM      7  C   UNL     1      -1.411  11.545  22.737  0.00  0.00    +0.000 A 
ATOM      8  C   UNL     1      -2.445  12.022  23.569  0.00  0.00    +0.000 A 
ATOM      9  C   UNL     1      -2.614  13.399  23.747  0.00  0.00    +0.000 A 
ATOM     10  C   UNL     1      -1.765  14.295  23.105  0.00  0.00    +0.000 A 
ATOM     11 BR   UNL     1      -2.018  16.154  23.363  0.00  0.00    +0.000 Br
ATOM     12  C   UNL     1      -0.730  13.852  22.272  0.00  0.00    +0.000 A 
ATOM     13  C   UNL     1      -0.571  12.463  22.103  0.00  0.00    +0.000 A 
ENDBRANCH   1   5
BRANCH   2  14
ATOM     14  C   UNL     1       2.176   7.336  19.769  0.00  0.00    +0.000 A 
ATOM     15  C   UNL     1       2.402   6.085  20.303  0.00  0.00    +0.000 A 
ATOM     16  C   UNL     1       3.179   5.337  19.376  0.00  0.00    +0.000 A 
ATOM     17  C   UNL     1       3.701   4.026  19.381  0.00  0.00    +0.000 A 
ATOM     18  C   UNL     1       4.448   3.570  18.290  0.00  0.00    +0.000 A 
ATOM     19  C   UNL     1       4.675   4.407  17.203  0.00  0.00    +0.000 A 
ATOM     20 BR   UNL     1       5.690   3.767  15.738  0.00  0.00    +0.000 Br
ATOM     21  C   UNL     1       4.170   5.713  17.169  0.00  0.00    +0.000 A 
ATOM     22  C   UNL     1       3.418   6.163  18.273  0.00  0.00    +0.000 A 
ATOM     23  N   UNL     1       2.797   7.373  18.537  0.00  0.00    +0.000 N 
ATOM     24  C   UNL     1       2.790   8.524  17.659  0.00  0.00    +0.000 C 
ENDBRANCH   2  14
TORSDOF 2
ENDMDL
MODEL 5
REMARK VINA RESULT:      -7.0      7.926     11.112
REMARK  Name = 
REMARK  4 active torsions:
REMARK  status: ('A' for Active; 'I' for Inactive)
REMARK    1  A    between atoms: C_1  and  N_2
REMARK    2  A    between atoms: C_3  and  C_4
REMARK    3  A    between atoms: C_5  and  C_6
REMARK    4  A    between atoms: N_15  and  C_16
REMARK                            x       y       z     vdW  Elec       q    Type
REMARK                         _______ _______ _______ _____ _____    ______ ____
ROOT
ATOM      1  C   UNL     1       1.066   8.892  20.710  0.00  0.00    +0.000 C 
ATOM      2  C   UNL     1       0.482   9.809  21.222  0.00  0.00    +0.000 C 
ENDROOT
BRANCH   1   5
ATOM      3  C   UNL     1       2.404   8.870  17.930  0.00  0.00    +0.000 C 
ATOM      4  N   UNL     1       2.367   7.774  18.875  0.00  0.00    +0.000 N 
ATOM      5  C   UNL     1       1.767   7.793  20.115  0.00  0.00    +0.000 A 
ATOM      6  C   UNL     1       1.966   6.550  20.682  0.00  0.00    +0.000 A 
ATOM      7  C   UNL     1       2.705   5.750  19.766  0.00  0.00    +0.000 A 
ATOM      8  C   UNL     1       3.189   4.426  19.799  0.00  0.00    +0.000 A 
ATOM      9  C   UNL     1       3.903   3.921  18.707  0.00  0.00    +0.000 A 
ATOM     10  C   UNL     1       4.134   4.721  17.594  0.00  0.00    +0.000 A 
ATOM     11 BR   UNL     1       5.104   4.010  16.130  0.00  0.00    +0.000 Br
ATOM     12  C   UNL     1       3.666   6.039  17.531  0.00  0.00    +0.000 A 
ATOM     13  C   UNL     1       2.949   6.536  18.637  0.00  0.00    +0.000 A 
ENDBRANCH   1   5
BRANCH   2  14
ATOM     14  C   UNL     1      -0.223  10.913  21.808  0.00  0.00    +0.000 A 
ATOM     15  C   UNL     1      -1.300  10.833  22.665  0.00  0.00    +0.000 A 
ATOM     16  C   UNL     1      -1.697  12.155  23.009  0.00  0.00    +0.000 A 
ATOM     17  C   UNL     1      -2.715  12.680  23.832  0.00  0.00    +0.000 A 
ATOM     18  C   UNL     1      -2.853  14.065  23.970  0.00  0.00    +0.000 A 
ATOM     19  C   UNL     1      -1.990  14.921  23.297  0.00  0.00    +0.000 A 
ATOM     20 BR   UNL     1      -2.197  16.793  23.499  0.00  0.00    +0.000 Br
ATOM     21  C   UNL     1      -0.969  14.430  22.474  0.00  0.00    +0.000 A 
ATOM     22  C   UNL     1      -0.837  13.033  22.341  0.00  0.00    +0.000 A 
ATOM     23  N   UNL     1       0.050  12.252  21.618  0.00  0.00    +0.000 N 
ATOM     24  C   UNL     1       1.117  12.752  20.777  0.00  0.00    +0.000 C 
ENDBRANCH   2  14
TORSDOF 2
ENDMDL
MODEL 6
REMARK VINA RESULT:      -6.9      8.064      9.642
REMARK  Name = 
REMARK  4 active torsions:
REMARK  status: ('A' for Active; 'I' for Inactive)
REMARK    1  A    between atoms: C_1  and  N_2
REMARK    2  A    between atoms: C_3  and  C_4
REMARK    3  A    between atoms: C_5  and  C_6
REMARK    4  A    between atoms: N_15  and  C_16
REMARK                            x       y       z     vdW  Elec       q    Type
REMARK                         _______ _______ _______ _____ _____    ______ ____
ROOT
ATOM      1  C   UNL     1       0.338   9.461  20.768  0.00  0.00    +0.000 C 
ATOM      2  C   UNL     1       1.062   8.605  20.333  0.00  0.00    +0.000 C 
ENDROOT
BRANCH   1   5
ATOM      3  C   UNL     1      -1.127  11.632  19.136  0.00  0.00    +0.000 C 
ATOM      4  N   UNL     1      -1.169  11.462  20.573  0.00  0.00    +0.000 N 
ATOM      5  C   UNL     1      -0.512  10.488  21.294  0.00  0.00    +0.000 A 
ATOM      6  C   UNL     1      -0.823  10.687  22.624  0.00  0.00    +0.000 A 
ATOM      7  C   UNL     1      -1.692  11.809  22.721  0.00  0.00    +0.000 A 
ATOM      8  C   UNL     1      -2.321  12.464  23.799  0.00  0.00    +0.000 A 
ATOM      9  C   UNL     1      -3.140  13.572  23.556  0.00  0.00    +0.000 A 
ATOM     10  C   UNL     1      -3.332  14.027  22.255  0.00  0.00    +0.000 A 
ATOM     11 BR   UNL     1      -4.446  15.529  21.956  0.00  0.00    +0.000 Br
ATOM     12  C   UNL     1      -2.720  13.397  21.164  0.00  0.00    +0.000 A 
ATOM     13  C   UNL     1      -1.899  12.283  21.423  0.00  0.00    +0.000 A 
ENDBRANCH   1   5
BRANCH   2  14
ATOM     14  C   UNL     1       1.904   7.572  19.804  0.00  0.00    +0.000 A 
ATOM     15  C   UNL     1       2.213   6.376  20.415  0.00  0.00    +0.000 A 
ATOM     16  C   UNL     1       3.077   5.644  19.554  0.00  0.00    +0.000 A 
ATOM     17  C   UNL     1       3.703   4.382  19.648  0.00  0.00    +0.000 A 
ATOM     18  C   UNL     1       4.517   3.930  18.606  0.00  0.00    +0.000 A 
ATOM     19  C   UNL     1       4.711   4.721  17.480  0.00  0.00    +0.000 A 
ATOM     20 BR   UNL     1       5.821   4.087  16.082  0.00  0.00    +0.000 Br
ATOM     21  C   UNL     1       4.105   5.977  17.356  0.00  0.00    +0.000 A 
ATOM     22  C   UNL     1       3.284   6.424  18.412  0.00  0.00    +0.000 A 
ATOM     23  N   UNL     1       2.560   7.592  18.589  0.00  0.00    +0.000 N 
ATOM     24  C   UNL     1       2.488   8.688  17.646  0.00  0.00    +0.000 C 
ENDBRANCH   2  14
TORSDOF 2
ENDMDL
MODEL 7
REMARK VINA RESULT:      -6.9      6.575      7.595
REMARK  Name = 
REMARK  4 active torsions:
REMARK  status: ('A' for Active; 'I' for Inactive)
REMARK    1  A    between atoms: C_1  and  N_2
REMARK    2  A    between atoms: C_3  and  C_4
REMARK    3  A    between atoms: C_5  and  C_6
REMARK    4  A    between atoms: N_15  and  C_16
REMARK                            x       y       z     vdW  Elec       q    Type
REMARK                         _______ _______ _______ _____ _____    ______ ____
ROOT
ATOM      1  C   UNL     1       1.698  11.183  18.695  0.00  0.00    +0.000 C 
ATOM      2  C   UNL     1       1.871   9.995  18.758  0.00  0.00    +0.000 C 
ENDROOT
BRANCH   1   5
ATOM      3  C   UNL     1      -1.004  12.660  18.895  0.00  0.00    +0.000 C 
ATOM      4  N   UNL     1       0.294  13.267  18.691  0.00  0.00    +0.000 N 
ATOM      5  C   UNL     1       1.496  12.599  18.604  0.00  0.00    +0.000 A 
ATOM      6  C   UNL     1       2.477  13.551  18.410  0.00  0.00    +0.000 A 
ATOM      7  C   UNL     1       1.861  14.832  18.377  0.00  0.00    +0.000 A 
ATOM      8  C   UNL     1       2.350  16.145  18.211  0.00  0.00    +0.000 A 
ATOM      9  C   UNL     1       1.461  17.224  18.229  0.00  0.00    +0.000 A 
ATOM     10  C   UNL     1       0.099  17.004  18.409  0.00  0.00    +0.000 A 
ATOM     11 BR   UNL     1      -1.082  18.485  18.429  0.00  0.00    +0.000 Br
ATOM     12  C   UNL     1      -0.416  15.713  18.576  0.00  0.00    +0.000 A 
ATOM     13  C   UNL     1       0.490  14.635  18.556  0.00  0.00    +0.000 A 
ENDBRANCH   1   5
BRANCH   2  14
ATOM     14  C   UNL     1       2.070   8.578  18.859  0.00  0.00    +0.000 A 
ATOM     15  C   UNL     1       2.531   7.744  17.863  0.00  0.00    +0.000 A 
ATOM     16  C   UNL     1       2.579   6.418  18.376  0.00  0.00    +0.000 A 
ATOM     17  C   UNL     1       2.961   5.177  17.825  0.00  0.00    +0.000 A 
ATOM     18  C   UNL     1       2.893   4.019  18.606  0.00  0.00    +0.000 A 
ATOM     19  C   UNL     1       2.449   4.091  19.921  0.00  0.00    +0.000 A 
ATOM     20 BR   UNL     1       2.364   2.508  20.959  0.00  0.00    +0.000 Br
ATOM     21  C   UNL     1       2.063   5.308  20.496  0.00  0.00    +0.000 A 
ATOM     22  C   UNL     1       2.136   6.470  19.701  0.00  0.00    +0.000 A 
ATOM     23  N   UNL     1       1.833   7.795  19.970  0.00  0.00    +0.000 N 
ATOM     24  C   UNL     1       1.338   8.305  21.231  0.00  0.00    +0.000 C 
ENDBRANCH   2  14
TORSDOF 2
ENDMDL
MODEL 8
REMARK VINA RESULT:      -6.9      8.082     10.944
REMARK  Name = 
REMARK  4 active torsions:
REMARK  status: ('A' for Active; 'I' for Inactive)
REMARK    1  A    between atoms: C_1  and  N_2
REMARK    2  A    between atoms: C_3  and  C_4
REMARK    3  A    between atoms: C_5  and  C_6
REMARK    4  A    between atoms: N_15  and  C_16
REMARK                            x       y       z     vdW  Elec       q    Type
REMARK                         _______ _______ _______ _____ _____    ______ ____
ROOT
ATOM      1  C   UNL     1       1.018   8.624  20.350  0.00  0.00    +0.000 C 
ATOM      2  C   UNL     1       0.302   9.490  20.778  0.00  0.00    +0.000 C 
ENDROOT
BRANCH   1   5
ATOM      3  C   UNL     1       2.512   8.674  17.650  0.00  0.00    +0.000 C 
ATOM      4  N   UNL     1       2.530   7.602  18.623  0.00  0.00    +0.000 N 
ATOM      5  C   UNL     1       1.860   7.589  19.827  0.00  0.00    +0.000 A 
ATOM      6  C   UNL     1       2.149   6.387  20.440  0.00  0.00    +0.000 A 
ATOM      7  C   UNL     1       3.017   5.645  19.592  0.00  0.00    +0.000 A 
ATOM      8  C   UNL     1       3.630   4.379  19.691  0.00  0.00    +0.000 A 
ATOM      9  C   UNL     1       4.453   3.923  18.656  0.00  0.00    +0.000 A 
ATOM     10  C   UNL     1       4.668   4.716  17.534  0.00  0.00    +0.000 A 
ATOM     11 BR   UNL     1       5.788   4.073  16.148  0.00  0.00    +0.000 Br
ATOM     12  C   UNL     1       4.074   5.978  17.406  0.00  0.00    +0.000 A 
ATOM     13  C   UNL     1       3.247   6.425  18.455  0.00  0.00    +0.000 A 
ENDBRANCH   1   5
BRANCH   2  14
ATOM     14  C   UNL     1      -0.534  10.527  21.309  0.00  0.00    +0.000 A 
ATOM     15  C   UNL     1      -0.832  10.738  22.638  0.00  0.00    +0.000 A 
ATOM     16  C   UNL     1      -1.694  11.866  22.730  0.00  0.00    +0.000 A 
ATOM     17  C   UNL     1      -2.309  12.532  23.811  0.00  0.00    +0.000 A 
ATOM     18  C   UNL     1      -3.124  13.643  23.570  0.00  0.00    +0.000 A 
ATOM     19  C   UNL     1      -3.328  14.088  22.270  0.00  0.00    +0.000 A 
ATOM     20 BR   UNL     1      -4.437  15.594  21.968  0.00  0.00    +0.000 Br
ATOM     21  C   UNL     1      -2.731  13.448  21.176  0.00  0.00    +0.000 A 
ATOM     22  C   UNL     1      -1.910  12.330  21.429  0.00  0.00    +0.000 A 
ATOM     23  N   UNL     1      -1.194  11.499  20.584  0.00  0.00    +0.000 N 
ATOM     24  C   UNL     1      -1.133  11.616  19.142  0.00  0.00    +0.000 C 
ENDBRANCH   2  14
TORSDOF 2
ENDMDL
MODEL 9
REMARK VINA RESULT:      -6.8      7.699      9.424
REMARK  Name = 
REMARK  4 active torsions:
REMARK  status: ('A' for Active; 'I' for Inactive)
REMARK    1  A    between atoms: C_1  and  N_2
REMARK    2  A    between atoms: C_3  and  C_4
REMARK    3  A    between atoms: C_5  and  C_6
REMARK    4  A    between atoms: N_15  and  C_16
REMARK                            x       y       z     vdW  Elec       q    Type
REMARK                         _______ _______ _______ _____ _____    ______ ____
ROOT
ATOM      1  C   UNL     1       0.653   9.414  20.409  0.00  0.00    +0.000 C 
ATOM      2  C   UNL     1       1.333   8.514  19.993  0.00  0.00    +0.000 C 
ENDROOT
BRANCH   1   5
ATOM      3  C   UNL     1      -0.285   9.766  23.327  0.00  0.00    +0.000 C 
ATOM      4  N   UNL     1      -0.573  10.652  22.219  0.00  0.00    +0.000 N 
ATOM      5  C   UNL     1      -0.148  10.487  20.918  0.00  0.00    +0.000 A 
ATOM      6  C   UNL     1      -0.642  11.552  20.192  0.00  0.00    +0.000 A 
ATOM      7  C   UNL     1      -1.387  12.389  21.068  0.00  0.00    +0.000 A 
ATOM      8  C   UNL     1      -2.104  13.591  20.893  0.00  0.00    +0.000 A 
ATOM      9  C   UNL     1      -2.746  14.182  21.986  0.00  0.00    +0.000 A 
ATOM     10  C   UNL     1      -2.677  13.587  23.242  0.00  0.00    +0.000 A 
ATOM     11 BR   UNL     1      -3.555  14.410  24.704  0.00  0.00    +0.000 Br
ATOM     12  C   UNL     1      -1.973  12.394  23.447  0.00  0.00    +0.000 A 
ATOM     13  C   UNL     1      -1.332  11.809  22.338  0.00  0.00    +0.000 A 
ENDBRANCH   1   5
BRANCH   2  14
ATOM     14  C   UNL     1       2.129   7.439  19.474  0.00  0.00    +0.000 A 
ATOM     15  C   UNL     1       2.331   6.212  20.067  0.00  0.00    +0.000 A 
ATOM     16  C   UNL     1       3.183   5.444  19.226  0.00  0.00    +0.000 A 
ATOM     17  C   UNL     1       3.720   4.141  19.316  0.00  0.00    +0.000 A 
ATOM     18  C   UNL     1       4.549   3.659  18.298  0.00  0.00    +0.000 A 
ATOM     19  C   UNL     1       4.844   4.461  17.202  0.00  0.00    +0.000 A 
ATOM     20 BR   UNL     1       5.971   3.786  15.837  0.00  0.00    +0.000 Br
ATOM     21  C   UNL     1       4.327   5.757  17.084  0.00  0.00    +0.000 A 
ATOM     22  C   UNL     1       3.491   6.234  18.115  0.00  0.00    +0.000 A 
ATOM     23  N   UNL     1       2.838   7.443  18.290  0.00  0.00    +0.000 N 
ATOM     24  C   UNL     1       2.880   8.562  17.373  0.00  0.00    +0.000 C 
ENDBRANCH   2  14
TORSDOF 2
ENDMDL
