MODEL 1
REMARK VINA RESULT:      -8.5      0.000      0.000
REMARK  Name = 
REMARK  14 active torsions:
REMARK  status: ('A' for Active; 'I' for Inactive)
REMARK    1  A    between atoms: C_1  and  C_2
REMARK    2  A    between atoms: C_2  and  C_3
REMARK    3  A    between atoms: C_3  and  C_4
REMARK    4  A    between atoms: C_4  and  C_5
REMARK    5  A    between atoms: C_5  and  C_6
REMARK    6  A    between atoms: C_6  and  C_7
REMARK    7  A    between atoms: C_7  and  S_8
REMARK    8  A    between atoms: C_7  and  C_30
REMARK    9  A    between atoms: S_8  and  C_9
REMARK   10  A    between atoms: C_14  and  N_15
REMARK   11  A    between atoms: N_15  and  C_16
REMARK   12  A    between atoms: C_19  and  C_20
REMARK   13  A    between atoms: C_20  and  C_21
REMARK   14  A    between atoms: C_30  and  O_32
REMARK                            x       y       z     vdW  Elec       q    Type
REMARK                         _______ _______ _______ _____ _____    ______ ____
ROOT
ATOM      1  C   UNL     1       4.256   4.534  19.035  0.00  0.00    +0.000 A 
ATOM      2  N   UNL     1       3.494   3.510  18.658  0.00  0.00    +0.000 NA
ATOM      3  C   UNL     1       2.212   3.597  19.042  0.00  0.00    +0.000 A 
ATOM      4 CL   UNL     1       1.231   2.272  18.560  0.00  0.00    +0.000 Cl
ATOM      5  C   UNL     1       1.667   4.639  19.749  0.00  0.00    +0.000 A 
ATOM      6  C   UNL     1       2.553   5.617  20.128  0.00  0.00    +0.000 A 
ATOM      7  N   UNL     1       3.846   5.560  19.780  0.00  0.00    +0.000 NA
ENDROOT
BRANCH   6   8
ATOM      8  N   UNL     1       2.070   6.708  20.877  0.00  0.00    +0.000 N 
ATOM      9  H   UNL     1       1.557   6.373  21.687  0.00  0.00    +0.000 HD
BRANCH   8  10
ATOM     10  C   UNL     1       1.546   7.926  20.390  0.00  0.00    +0.000 A 
ATOM     11  C   UNL     1       0.555   8.642  21.069  0.00  0.00    +0.000 A 
ATOM     12  C   UNL     1      -0.038   9.775  20.506  0.00  0.00    +0.000 A 
ATOM     13  C   UNL     1       0.315  10.196  19.222  0.00  0.00    +0.000 A 
ATOM     14  C   UNL     1       1.289   9.474  18.523  0.00  0.00    +0.000 A 
ATOM     15  C   UNL     1       1.880   8.340  19.090  0.00  0.00    +0.000 A 
BRANCH  13  16
ATOM     16  C   UNL     1      -0.375  11.382  18.606  0.00  0.00    +0.000 C 
BRANCH  16  17
ATOM     17  C   UNL     1      -1.782  11.133  18.121  0.00  0.00    +0.000 A 
ATOM     18  C   UNL     1      -2.868  11.771  18.733  0.00  0.00    +0.000 A 
ATOM     19  C   UNL     1      -4.155  11.641  18.206  0.00  0.00    +0.000 A 
ATOM     20  C   UNL     1      -4.369  10.864  17.069  0.00  0.00    +0.000 A 
ATOM     21  C   UNL     1      -3.303  10.184  16.482  0.00  0.00    +0.000 A 
ATOM     22  C   UNL     1      -2.018  10.307  17.012  0.00  0.00    +0.000 A 
ENDBRANCH  16  17
ENDBRANCH  13  16
ENDBRANCH   8  10
ENDBRANCH   6   8
BRANCH   1  23
ATOM     23  S   UNL     1       5.926   4.592  18.441  0.00  0.00    +0.000 S 
BRANCH  23  24
ATOM     24  C   UNL     1       5.625   4.875  16.641  0.00  0.00    +0.000 C 
BRANCH  24  25
ATOM     25  C   UNL     1       5.802   6.361  16.302  0.00  0.00    +0.000 C 
ATOM     26  O   UNL     1       5.006   7.038  15.675  0.00  0.00    +0.000 OA
BRANCH  25  27
ATOM     27  O   UNL     1       6.928   6.906  16.828  0.00  0.00    +0.000 OA
ATOM     28  H   UNL     1       6.763   7.413  17.650  0.00  0.00    +0.000 HD
ENDBRANCH  25  27
ENDBRANCH  24  25
BRANCH  24  29
ATOM     29  C   UNL     1       6.413   3.999  15.650  0.00  0.00    +0.000 C 
BRANCH  29  30
ATOM     30  C   UNL     1       6.520   4.484  14.204  0.00  0.00    +0.000 C 
BRANCH  30  31
ATOM     31  C   UNL     1       5.521   3.845  13.235  0.00  0.00    +0.000 C 
BRANCH  31  32
ATOM     32  C   UNL     1       6.279   3.219  12.060  0.00  0.00    +0.000 C 
BRANCH  32  34
ATOM     33  C   UNL     1       6.538   0.967  10.978  0.00  0.00    +0.000 C 
ATOM     34  C   UNL     1       5.550   2.022  11.456  0.00  0.00    +0.000 C 
ENDBRANCH  32  34
ENDBRANCH  31  32
ENDBRANCH  30  31
ENDBRANCH  29  30
ENDBRANCH  24  29
ENDBRANCH  23  24
ENDBRANCH   1  23
TORSDOF 13
ENDMDL
MODEL 2
REMARK VINA RESULT:      -8.2      0.579      1.369
REMARK  Name = 
REMARK  14 active torsions:
REMARK  status: ('A' for Active; 'I' for Inactive)
REMARK    1  A    between atoms: C_1  and  C_2
REMARK    2  A    between atoms: C_2  and  C_3
REMARK    3  A    between atoms: C_3  and  C_4
REMARK    4  A    between atoms: C_4  and  C_5
REMARK    5  A    between atoms: C_5  and  C_6
REMARK    6  A    between atoms: C_6  and  C_7
REMARK    7  A    between atoms: C_7  and  S_8
REMARK    8  A    between atoms: C_7  and  C_30
REMARK    9  A    between atoms: S_8  and  C_9
REMARK   10  A    between atoms: C_14  and  N_15
REMARK   11  A    between atoms: N_15  and  C_16
REMARK   12  A    between atoms: C_19  and  C_20
REMARK   13  A    between atoms: C_20  and  C_21
REMARK   14  A    between atoms: C_30  and  O_32
REMARK                            x       y       z     vdW  Elec       q    Type
REMARK                         _______ _______ _______ _____ _____    ______ ____
ROOT
ATOM      1  C   UNL     1       4.253   4.492  18.887  0.00  0.00    +0.000 A 
ATOM      2  N   UNL     1       3.422   3.497  18.580  0.00  0.00    +0.000 NA
ATOM      3  C   UNL     1       2.155   3.688  18.975  0.00  0.00    +0.000 A 
ATOM      4 CL   UNL     1       1.085   2.402  18.584  0.00  0.00    +0.000 Cl
ATOM      5  C   UNL     1       1.688   4.802  19.626  0.00  0.00    +0.000 A 
ATOM      6  C   UNL     1       2.639   5.742  19.935  0.00  0.00    +0.000 A 
ATOM      7  N   UNL     1       3.920   5.583  19.575  0.00  0.00    +0.000 NA
ENDROOT
BRANCH   6   8
ATOM      8  N   UNL     1       2.238   6.904  20.625  0.00  0.00    +0.000 N 
ATOM      9  H   UNL     1       1.900   6.658  21.551  0.00  0.00    +0.000 HD
BRANCH   8  10
ATOM     10  C   UNL     1       1.566   8.029  20.101  0.00  0.00    +0.000 A 
ATOM     11  C   UNL     1       1.814   8.520  18.815  0.00  0.00    +0.000 A 
ATOM     12  C   UNL     1       1.232   9.708  18.365  0.00  0.00    +0.000 A 
ATOM     13  C   UNL     1       0.418  10.464  19.212  0.00  0.00    +0.000 A 
ATOM     14  C   UNL     1       0.181   9.995  20.509  0.00  0.00    +0.000 A 
ATOM     15  C   UNL     1       0.766   8.805  20.956  0.00  0.00    +0.000 A 
BRANCH  13  16
ATOM     16  C   UNL     1      -0.152  11.771  18.734  0.00  0.00    +0.000 C 
BRANCH  16  17
ATOM     17  C   UNL     1      -1.651  11.799  18.561  0.00  0.00    +0.000 A 
ATOM     18  C   UNL     1      -2.246  11.233  17.426  0.00  0.00    +0.000 A 
ATOM     19  C   UNL     1      -3.635  11.145  17.325  0.00  0.00    +0.000 A 
ATOM     20  C   UNL     1      -4.443  11.632  18.351  0.00  0.00    +0.000 A 
ATOM     21  C   UNL     1      -3.862  12.244  19.461  0.00  0.00    +0.000 A 
ATOM     22  C   UNL     1      -2.474  12.339  19.560  0.00  0.00    +0.000 A 
ENDBRANCH  16  17
ENDBRANCH  13  16
ENDBRANCH   8  10
ENDBRANCH   6   8
BRANCH   1  23
ATOM     23  S   UNL     1       5.914   4.408  18.269  0.00  0.00    +0.000 S 
BRANCH  23  24
ATOM     24  C   UNL     1       5.612   4.718  16.474  0.00  0.00    +0.000 C 
BRANCH  24  25
ATOM     25  C   UNL     1       6.083   6.128  16.093  0.00  0.00    +0.000 C 
ATOM     26  O   UNL     1       5.375   7.001  15.623  0.00  0.00    +0.000 OA
BRANCH  25  27
ATOM     27  O   UNL     1       7.386   6.362  16.389  0.00  0.00    +0.000 OA
ATOM     28  H   UNL     1       7.704   7.231  16.066  0.00  0.00    +0.000 HD
ENDBRANCH  25  27
ENDBRANCH  24  25
BRANCH  24  29
ATOM     29  C   UNL     1       6.164   3.679  15.480  0.00  0.00    +0.000 C 
BRANCH  29  30
ATOM     30  C   UNL     1       5.680   3.758  14.031  0.00  0.00    +0.000 C 
BRANCH  30  31
ATOM     31  C   UNL     1       6.708   4.307  13.039  0.00  0.00    +0.000 C 
BRANCH  31  32
ATOM     32  C   UNL     1       6.907   3.302  11.900  0.00  0.00    +0.000 C 
BRANCH  32  34
ATOM     33  C   UNL     1       6.066   1.081  11.080  0.00  0.00    +0.000 C 
ATOM     34  C   UNL     1       5.675   2.436  11.653  0.00  0.00    +0.000 C 
ENDBRANCH  32  34
ENDBRANCH  31  32
ENDBRANCH  30  31
ENDBRANCH  29  30
ENDBRANCH  24  29
ENDBRANCH  23  24
ENDBRANCH   1  23
TORSDOF 13
ENDMDL
MODEL 3
REMARK VINA RESULT:      -8.1      1.981      3.319
REMARK  Name = 
REMARK  14 active torsions:
REMARK  status: ('A' for Active; 'I' for Inactive)
REMARK    1  A    between atoms: C_1  and  C_2
REMARK    2  A    between atoms: C_2  and  C_3
REMARK    3  A    between atoms: C_3  and  C_4
REMARK    4  A    between atoms: C_4  and  C_5
REMARK    5  A    between atoms: C_5  and  C_6
REMARK    6  A    between atoms: C_6  and  C_7
REMARK    7  A    between atoms: C_7  and  S_8
REMARK    8  A    between atoms: C_7  and  C_30
REMARK    9  A    between atoms: S_8  and  C_9
REMARK   10  A    between atoms: C_14  and  N_15
REMARK   11  A    between atoms: N_15  and  C_16
REMARK   12  A    between atoms: C_19  and  C_20
REMARK   13  A    between atoms: C_20  and  C_21
REMARK   14  A    between atoms: C_30  and  O_32
REMARK                            x       y       z     vdW  Elec       q    Type
REMARK                         _______ _______ _______ _____ _____    ______ ____
ROOT
ATOM      1  C   UNL     1       4.031   4.443  19.098  0.00  0.00    +0.000 A 
ATOM      2  N   UNL     1       3.214   3.440  18.783  0.00  0.00    +0.000 NA
ATOM      3  C   UNL     1       1.944   3.610  19.180  0.00  0.00    +0.000 A 
ATOM      4 CL   UNL     1       0.892   2.313  18.779  0.00  0.00    +0.000 Cl
ATOM      5  C   UNL     1       1.463   4.710  19.842  0.00  0.00    +0.000 A 
ATOM      6  C   UNL     1       2.402   5.661  20.159  0.00  0.00    +0.000 A 
ATOM      7  N   UNL     1       3.684   5.522  19.797  0.00  0.00    +0.000 NA
ENDROOT
BRANCH   6   8
ATOM      8  N   UNL     1       1.985   6.810  20.860  0.00  0.00    +0.000 N 
ATOM      9  H   UNL     1       1.473   6.541  21.695  0.00  0.00    +0.000 HD
BRANCH   8  10
ATOM     10  C   UNL     1       1.509   8.025  20.321  0.00  0.00    +0.000 A 
ATOM     11  C   UNL     1       1.811   8.436  19.018  0.00  0.00    +0.000 A 
ATOM     12  C   UNL     1       1.436   9.698  18.549  0.00  0.00    +0.000 A 
ATOM     13  C   UNL     1       0.786  10.604  19.392  0.00  0.00    +0.000 A 
ATOM     14  C   UNL     1       0.499  10.211  20.704  0.00  0.00    +0.000 A 
ATOM     15  C   UNL     1       0.876   8.947  21.170  0.00  0.00    +0.000 A 
BRANCH  13  16
ATOM     16  C   UNL     1       0.443  11.980  18.891  0.00  0.00    +0.000 C 
BRANCH  16  17
ATOM     17  C   UNL     1       1.521  13.021  19.068  0.00  0.00    +0.000 A 
ATOM     18  C   UNL     1       1.720  13.634  20.311  0.00  0.00    +0.000 A 
ATOM     19  C   UNL     1       2.796  14.502  20.508  0.00  0.00    +0.000 A 
ATOM     20  C   UNL     1       3.676  14.773  19.462  0.00  0.00    +0.000 A 
ATOM     21  C   UNL     1       3.458  14.207  18.207  0.00  0.00    +0.000 A 
ATOM     22  C   UNL     1       2.378  13.346  18.006  0.00  0.00    +0.000 A 
ENDBRANCH  16  17
ENDBRANCH  13  16
ENDBRANCH   8  10
ENDBRANCH   6   8
BRANCH   1  23
ATOM     23  S   UNL     1       5.692   4.388  18.478  0.00  0.00    +0.000 S 
BRANCH  23  24
ATOM     24  C   UNL     1       5.723   5.943  17.482  0.00  0.00    +0.000 C 
BRANCH  24  25
ATOM     25  C   UNL     1       7.038   6.698  17.720  0.00  0.00    +0.000 C 
ATOM     26  O   UNL     1       7.914   6.355  18.494  0.00  0.00    +0.000 OA
BRANCH  25  27
ATOM     27  O   UNL     1       7.188   7.787  16.925  0.00  0.00    +0.000 OA
ATOM     28  H   UNL     1       7.608   7.581  16.064  0.00  0.00    +0.000 HD
ENDBRANCH  25  27
ENDBRANCH  24  25
BRANCH  24  29
ATOM     29  C   UNL     1       5.438   5.817  15.975  0.00  0.00    +0.000 C 
BRANCH  29  30
ATOM     30  C   UNL     1       6.291   4.834  15.171  0.00  0.00    +0.000 C 
BRANCH  30  31
ATOM     31  C   UNL     1       5.513   3.982  14.165  0.00  0.00    +0.000 C 
BRANCH  31  32
ATOM     32  C   UNL     1       6.327   3.847  12.874  0.00  0.00    +0.000 C 
BRANCH  32  34
ATOM     33  C   UNL     1       4.275   3.322  11.522  0.00  0.00    +0.000 C 
ATOM     34  C   UNL     1       5.691   2.888  11.871  0.00  0.00    +0.000 C 
ENDBRANCH  32  34
ENDBRANCH  31  32
ENDBRANCH  30  31
ENDBRANCH  29  30
ENDBRANCH  24  29
ENDBRANCH  23  24
ENDBRANCH   1  23
TORSDOF 13
ENDMDL
MODEL 4
REMARK VINA RESULT:      -8.0      2.232      4.236
REMARK  Name = 
REMARK  14 active torsions:
REMARK  status: ('A' for Active; 'I' for Inactive)
REMARK    1  A    between atoms: C_1  and  C_2
REMARK    2  A    between atoms: C_2  and  C_3
REMARK    3  A    between atoms: C_3  and  C_4
REMARK    4  A    between atoms: C_4  and  C_5
REMARK    5  A    between atoms: C_5  and  C_6
REMARK    6  A    between atoms: C_6  and  C_7
REMARK    7  A    between atoms: C_7  and  S_8
REMARK    8  A    between atoms: C_7  and  C_30
REMARK    9  A    between atoms: S_8  and  C_9
REMARK   10  A    between atoms: C_14  and  N_15
REMARK   11  A    between atoms: N_15  and  C_16
REMARK   12  A    between atoms: C_19  and  C_20
REMARK   13  A    between atoms: C_20  and  C_21
REMARK   14  A    between atoms: C_30  and  O_32
REMARK                            x       y       z     vdW  Elec       q    Type
REMARK                         _______ _______ _______ _____ _____    ______ ____
ROOT
ATOM      1  C   UNL     1       5.317   4.469  18.526  0.00  0.00    +0.000 A 
ATOM      2  N   UNL     1       4.651   3.445  17.996  0.00  0.00    +0.000 NA
ATOM      3  C   UNL     1       3.334   3.448  18.246  0.00  0.00    +0.000 A 
ATOM      4 CL   UNL     1       2.477   2.123  17.567  0.00  0.00    +0.000 Cl
ATOM      5  C   UNL     1       2.667   4.407  18.964  0.00  0.00    +0.000 A 
ATOM      6  C   UNL     1       3.458   5.390  19.506  0.00  0.00    +0.000 A 
ATOM      7  N   UNL     1       4.781   5.415  19.296  0.00  0.00    +0.000 NA
ENDROOT
BRANCH   6   8
ATOM      8  N   UNL     1       2.845   6.399  20.276  0.00  0.00    +0.000 N 
ATOM      9  H   UNL     1       2.457   5.999  21.126  0.00  0.00    +0.000 HD
BRANCH   8  10
ATOM     10  C   UNL     1       2.082   7.493  19.815  0.00  0.00    +0.000 A 
ATOM     11  C   UNL     1       2.224   8.015  18.525  0.00  0.00    +0.000 A 
ATOM     12  C   UNL     1       1.552   9.177  18.133  0.00  0.00    +0.000 A 
ATOM     13  C   UNL     1       0.754   9.875  19.042  0.00  0.00    +0.000 A 
ATOM     14  C   UNL     1       0.624   9.375  20.342  0.00  0.00    +0.000 A 
ATOM     15  C   UNL     1       1.298   8.213  20.731  0.00  0.00    +0.000 A 
BRANCH  13  16
ATOM     16  C   UNL     1       0.086  11.156  18.623  0.00  0.00    +0.000 C 
BRANCH  16  17
ATOM     17  C   UNL     1      -1.372  11.036  18.252  0.00  0.00    +0.000 A 
ATOM     18  C   UNL     1      -1.801  10.034  17.373  0.00  0.00    +0.000 A 
ATOM     19  C   UNL     1      -3.162   9.841  17.128  0.00  0.00    +0.000 A 
ATOM     20  C   UNL     1      -4.106  10.656  17.752  0.00  0.00    +0.000 A 
ATOM     21  C   UNL     1      -3.686  11.689  18.590  0.00  0.00    +0.000 A 
ATOM     22  C   UNL     1      -2.326  11.887  18.828  0.00  0.00    +0.000 A 
ENDBRANCH  16  17
ENDBRANCH  13  16
ENDBRANCH   8  10
ENDBRANCH   6   8
BRANCH   1  23
ATOM     23  S   UNL     1       7.035   4.644  18.120  0.00  0.00    +0.000 S 
BRANCH  23  24
ATOM     24  C   UNL     1       6.903   5.538  16.510  0.00  0.00    +0.000 C 
BRANCH  24  25
ATOM     25  C   UNL     1       6.170   4.668  15.480  0.00  0.00    +0.000 C 
ATOM     26  O   UNL     1       6.646   3.700  14.912  0.00  0.00    +0.000 OA
BRANCH  25  27
ATOM     27  O   UNL     1       4.877   5.032  15.286  0.00  0.00    +0.000 OA
ATOM     28  H   UNL     1       4.394   5.199  16.121  0.00  0.00    +0.000 HD
ENDBRANCH  25  27
ENDBRANCH  24  25
BRANCH  24  29
ATOM     29  C   UNL     1       6.305   6.956  16.541  0.00  0.00    +0.000 C 
BRANCH  29  30
ATOM     30  C   UNL     1       6.662   7.851  17.728  0.00  0.00    +0.000 C 
BRANCH  30  31
ATOM     31  C   UNL     1       8.141   8.233  17.823  0.00  0.00    +0.000 C 
BRANCH  31  32
ATOM     32  C   UNL     1       8.266   9.747  18.027  0.00  0.00    +0.000 C 
BRANCH  32  34
ATOM     33  C   UNL     1      10.181  11.245  18.659  0.00  0.00    +0.000 C 
ATOM     34  C   UNL     1       9.267  10.117  19.117  0.00  0.00    +0.000 C 
ENDBRANCH  32  34
ENDBRANCH  31  32
ENDBRANCH  30  31
ENDBRANCH  29  30
ENDBRANCH  24  29
ENDBRANCH  23  24
ENDBRANCH   1  23
TORSDOF 13
ENDMDL
MODEL 5
REMARK VINA RESULT:      -8.0      0.566      1.125
REMARK  Name = 
REMARK  14 active torsions:
REMARK  status: ('A' for Active; 'I' for Inactive)
REMARK    1  A    between atoms: C_1  and  C_2
REMARK    2  A    between atoms: C_2  and  C_3
REMARK    3  A    between atoms: C_3  and  C_4
REMARK    4  A    between atoms: C_4  and  C_5
REMARK    5  A    between atoms: C_5  and  C_6
REMARK    6  A    between atoms: C_6  and  C_7
REMARK    7  A    between atoms: C_7  and  S_8
REMARK    8  A    between atoms: C_7  and  C_30
REMARK    9  A    between atoms: S_8  and  C_9
REMARK   10  A    between atoms: C_14  and  N_15
REMARK   11  A    between atoms: N_15  and  C_16
REMARK   12  A    between atoms: C_19  and  C_20
REMARK   13  A    between atoms: C_20  and  C_21
REMARK   14  A    between atoms: C_30  and  O_32
REMARK                            x       y       z     vdW  Elec       q    Type
REMARK                         _______ _______ _______ _____ _____    ______ ____
ROOT
ATOM      1  C   UNL     1       4.285   4.659  19.199  0.00  0.00    +0.000 A 
ATOM      2  N   UNL     1       3.456   3.642  18.969  0.00  0.00    +0.000 NA
ATOM      3  C   UNL     1       2.180   3.874  19.311  0.00  0.00    +0.000 A 
ATOM      4 CL   UNL     1       1.113   2.560  19.020  0.00  0.00    +0.000 Cl
ATOM      5  C   UNL     1       1.703   5.048  19.838  0.00  0.00    +0.000 A 
ATOM      6  C   UNL     1       2.652   6.010  20.079  0.00  0.00    +0.000 A 
ATOM      7  N   UNL     1       3.941   5.812  19.769  0.00  0.00    +0.000 NA
ENDROOT
BRANCH   6   8
ATOM      8  N   UNL     1       2.240   7.235  20.642  0.00  0.00    +0.000 N 
ATOM      9  H   UNL     1       2.011   7.106  21.623  0.00  0.00    +0.000 HD
BRANCH   8  10
ATOM     10  C   UNL     1       1.444   8.235  20.043  0.00  0.00    +0.000 A 
ATOM     11  C   UNL     1       1.697   8.725  18.758  0.00  0.00    +0.000 A 
ATOM     12  C   UNL     1       0.977   9.803  18.235  0.00  0.00    +0.000 A 
ATOM     13  C   UNL     1       0.011  10.452  19.009  0.00  0.00    +0.000 A 
ATOM     14  C   UNL     1      -0.234   9.985  20.306  0.00  0.00    +0.000 A 
ATOM     15  C   UNL     1       0.490   8.906  20.825  0.00  0.00    +0.000 A 
BRANCH  13  16
ATOM     16  C   UNL     1      -0.713  11.648  18.456  0.00  0.00    +0.000 C 
BRANCH  16  17
ATOM     17  C   UNL     1      -2.121  11.389  17.977  0.00  0.00    +0.000 A 
ATOM     18  C   UNL     1      -3.219  11.802  18.743  0.00  0.00    +0.000 A 
ATOM     19  C   UNL     1      -4.517  11.677  18.244  0.00  0.00    +0.000 A 
ATOM     20  C   UNL     1      -4.730  11.129  16.980  0.00  0.00    +0.000 A 
ATOM     21  C   UNL     1      -3.648  10.669  16.231  0.00  0.00    +0.000 A 
ATOM     22  C   UNL     1      -2.351  10.786  16.732  0.00  0.00    +0.000 A 
ENDBRANCH  16  17
ENDBRANCH  13  16
ENDBRANCH   8  10
ENDBRANCH   6   8
BRANCH   1  23
ATOM     23  S   UNL     1       5.960   4.510  18.635  0.00  0.00    +0.000 S 
BRANCH  23  24
ATOM     24  C   UNL     1       5.794   5.196  16.929  0.00  0.00    +0.000 C 
BRANCH  24  25
ATOM     25  C   UNL     1       5.889   6.727  16.963  0.00  0.00    +0.000 C 
ATOM     26  O   UNL     1       6.893   7.374  16.723  0.00  0.00    +0.000 OA
BRANCH  25  27
ATOM     27  O   UNL     1       4.707   7.337  17.230  0.00  0.00    +0.000 OA
ATOM     28  H   UNL     1       4.595   8.186  16.754  0.00  0.00    +0.000 HD
ENDBRANCH  25  27
ENDBRANCH  24  25
BRANCH  24  29
ATOM     29  C   UNL     1       6.727   4.622  15.847  0.00  0.00    +0.000 C 
BRANCH  29  30
ATOM     30  C   UNL     1       6.344   4.852  14.385  0.00  0.00    +0.000 C 
BRANCH  30  31
ATOM     31  C   UNL     1       5.735   3.638  13.680  0.00  0.00    +0.000 C 
BRANCH  31  32
ATOM     32  C   UNL     1       6.169   3.628  12.211  0.00  0.00    +0.000 C 
BRANCH  32  34
ATOM     33  C   UNL     1       6.014   1.229  11.481  0.00  0.00    +0.000 C 
ATOM     34  C   UNL     1       5.395   2.616  11.371  0.00  0.00    +0.000 C 
ENDBRANCH  32  34
ENDBRANCH  31  32
ENDBRANCH  30  31
ENDBRANCH  29  30
ENDBRANCH  24  29
ENDBRANCH  23  24
ENDBRANCH   1  23
TORSDOF 13
ENDMDL
MODEL 6
REMARK VINA RESULT:      -7.9      1.852      3.086
REMARK  Name = 
REMARK  14 active torsions:
REMARK  status: ('A' for Active; 'I' for Inactive)
REMARK    1  A    between atoms: C_1  and  C_2
REMARK    2  A    between atoms: C_2  and  C_3
REMARK    3  A    between atoms: C_3  and  C_4
REMARK    4  A    between atoms: C_4  and  C_5
REMARK    5  A    between atoms: C_5  and  C_6
REMARK    6  A    between atoms: C_6  and  C_7
REMARK    7  A    between atoms: C_7  and  S_8
REMARK    8  A    between atoms: C_7  and  C_30
REMARK    9  A    between atoms: S_8  and  C_9
REMARK   10  A    between atoms: C_14  and  N_15
REMARK   11  A    between atoms: N_15  and  C_16
REMARK   12  A    between atoms: C_19  and  C_20
REMARK   13  A    between atoms: C_20  and  C_21
REMARK   14  A    between atoms: C_30  and  O_32
REMARK                            x       y       z     vdW  Elec       q    Type
REMARK                         _______ _______ _______ _____ _____    ______ ____
ROOT
ATOM      1  C   UNL     1       3.930   3.882  18.088  0.00  0.00    +0.000 A 
ATOM      2  N   UNL     1       2.935   2.997  18.090  0.00  0.00    +0.000 NA
ATOM      3  C   UNL     1       1.843   3.388  18.762  0.00  0.00    +0.000 A 
ATOM      4 CL   UNL     1       0.562   2.243  18.769  0.00  0.00    +0.000 Cl
ATOM      5  C   UNL     1       1.695   4.594  19.399  0.00  0.00    +0.000 A 
ATOM      6  C   UNL     1       2.800   5.409  19.375  0.00  0.00    +0.000 A 
ATOM      7  N   UNL     1       3.918   5.049  18.730  0.00  0.00    +0.000 NA
ENDROOT
BRANCH   6   8
ATOM      8  N   UNL     1       2.730   6.656  20.028  0.00  0.00    +0.000 N 
ATOM      9  H   UNL     1       2.705   6.520  21.034  0.00  0.00    +0.000 HD
BRANCH   8  10
ATOM     10  C   UNL     1       1.997   7.796  19.633  0.00  0.00    +0.000 A 
ATOM     11  C   UNL     1       2.067   8.322  18.339  0.00  0.00    +0.000 A 
ATOM     12  C   UNL     1       1.435   9.523  18.007  0.00  0.00    +0.000 A 
ATOM     13  C   UNL     1       0.751  10.257  18.979  0.00  0.00    +0.000 A 
ATOM     14  C   UNL     1       0.695   9.752  20.283  0.00  0.00    +0.000 A 
ATOM     15  C   UNL     1       1.329   8.550  20.612  0.00  0.00    +0.000 A 
BRANCH  13  16
ATOM     16  C   UNL     1       0.127  11.577  18.621  0.00  0.00    +0.000 C 
BRANCH  16  17
ATOM     17  C   UNL     1       0.984  12.792  18.883  0.00  0.00    +0.000 A 
ATOM     18  C   UNL     1       2.132  13.029  18.117  0.00  0.00    +0.000 A 
ATOM     19  C   UNL     1       2.854  14.214  18.273  0.00  0.00    +0.000 A 
ATOM     20  C   UNL     1       2.440  15.168  19.202  0.00  0.00    +0.000 A 
ATOM     21  C   UNL     1       1.328  14.918  20.004  0.00  0.00    +0.000 A 
ATOM     22  C   UNL     1       0.610  13.731  19.855  0.00  0.00    +0.000 A 
ENDBRANCH  16  17
ENDBRANCH  13  16
ENDBRANCH   8  10
ENDBRANCH   6   8
BRANCH   1  23
ATOM     23  S   UNL     1       5.356   3.527  17.095  0.00  0.00    +0.000 S 
BRANCH  23  24
ATOM     24  C   UNL     1       5.731   5.215  16.445  0.00  0.00    +0.000 C 
BRANCH  24  25
ATOM     25  C   UNL     1       7.157   5.627  16.835  0.00  0.00    +0.000 C 
ATOM     26  O   UNL     1       7.609   6.756  16.752  0.00  0.00    +0.000 OA
BRANCH  25  27
ATOM     27  O   UNL     1       7.890   4.613  17.359  0.00  0.00    +0.000 OA
ATOM     28  H   UNL     1       7.739   3.756  16.908  0.00  0.00    +0.000 HD
ENDBRANCH  25  27
ENDBRANCH  24  25
BRANCH  24  29
ATOM     29  C   UNL     1       5.491   5.459  14.944  0.00  0.00    +0.000 C 
BRANCH  29  30
ATOM     30  C   UNL     1       6.508   4.881  13.960  0.00  0.00    +0.000 C 
BRANCH  30  31
ATOM     31  C   UNL     1       6.228   3.443  13.515  0.00  0.00    +0.000 C 
BRANCH  31  32
ATOM     32  C   UNL     1       5.573   3.454  12.130  0.00  0.00    +0.000 C 
BRANCH  32  34
ATOM     33  C   UNL     1       7.070   1.697  11.140  0.00  0.00    +0.000 C 
ATOM     34  C   UNL     1       5.632   2.097  11.436  0.00  0.00    +0.000 C 
ENDBRANCH  32  34
ENDBRANCH  31  32
ENDBRANCH  30  31
ENDBRANCH  29  30
ENDBRANCH  24  29
ENDBRANCH  23  24
ENDBRANCH   1  23
TORSDOF 13
ENDMDL
MODEL 7
REMARK VINA RESULT:      -7.9      2.533      4.382
REMARK  Name = 
REMARK  14 active torsions:
REMARK  status: ('A' for Active; 'I' for Inactive)
REMARK    1  A    between atoms: C_1  and  C_2
REMARK    2  A    between atoms: C_2  and  C_3
REMARK    3  A    between atoms: C_3  and  C_4
REMARK    4  A    between atoms: C_4  and  C_5
REMARK    5  A    between atoms: C_5  and  C_6
REMARK    6  A    between atoms: C_6  and  C_7
REMARK    7  A    between atoms: C_7  and  S_8
REMARK    8  A    between atoms: C_7  and  C_30
REMARK    9  A    between atoms: S_8  and  C_9
REMARK   10  A    between atoms: C_14  and  N_15
REMARK   11  A    between atoms: N_15  and  C_16
REMARK   12  A    between atoms: C_19  and  C_20
REMARK   13  A    between atoms: C_20  and  C_21
REMARK   14  A    between atoms: C_30  and  O_32
REMARK                            x       y       z     vdW  Elec       q    Type
REMARK                         _______ _______ _______ _____ _____    ______ ____
ROOT
ATOM      1  C   UNL     1       5.315   4.402  18.651  0.00  0.00    +0.000 A 
ATOM      2  N   UNL     1       4.682   3.435  17.989  0.00  0.00    +0.000 NA
ATOM      3  C   UNL     1       3.349   3.437  18.140  0.00  0.00    +0.000 A 
ATOM      4 CL   UNL     1       2.534   2.186  17.291  0.00  0.00    +0.000 Cl
ATOM      5  C   UNL     1       2.638   4.344  18.884  0.00  0.00    +0.000 A 
ATOM      6  C   UNL     1       3.395   5.267  19.562  0.00  0.00    +0.000 A 
ATOM      7  N   UNL     1       4.730   5.289  19.454  0.00  0.00    +0.000 NA
ENDROOT
BRANCH   6   8
ATOM      8  N   UNL     1       2.734   6.218  20.366  0.00  0.00    +0.000 N 
ATOM      9  H   UNL     1       2.137   5.748  21.040  0.00  0.00    +0.000 HD
BRANCH   8  10
ATOM     10  C   UNL     1       2.201   7.463  19.968  0.00  0.00    +0.000 A 
ATOM     11  C   UNL     1       1.357   8.215  20.792  0.00  0.00    +0.000 A 
ATOM     12  C   UNL     1       0.739   9.380  20.330  0.00  0.00    +0.000 A 
ATOM     13  C   UNL     1       0.915   9.799  19.008  0.00  0.00    +0.000 A 
ATOM     14  C   UNL     1       1.738   9.041  18.168  0.00  0.00    +0.000 A 
ATOM     15  C   UNL     1       2.354   7.876  18.635  0.00  0.00    +0.000 A 
BRANCH  13  16
ATOM     16  C   UNL     1       0.196  11.022  18.508  0.00  0.00    +0.000 C 
BRANCH  16  17
ATOM     17  C   UNL     1      -1.283  10.849  18.264  0.00  0.00    +0.000 A 
ATOM     18  C   UNL     1      -2.210  11.690  18.893  0.00  0.00    +0.000 A 
ATOM     19  C   UNL     1      -3.567  11.614  18.572  0.00  0.00    +0.000 A 
ATOM     20  C   UNL     1      -4.011  10.692  17.626  0.00  0.00    +0.000 A 
ATOM     21  C   UNL     1      -3.103   9.816  17.032  0.00  0.00    +0.000 A 
ATOM     22  C   UNL     1      -1.749   9.885  17.358  0.00  0.00    +0.000 A 
ENDBRANCH  16  17
ENDBRANCH  13  16
ENDBRANCH   8  10
ENDBRANCH   6   8
BRANCH   1  23
ATOM     23  S   UNL     1       7.060   4.583  18.389  0.00  0.00    +0.000 S 
BRANCH  23  24
ATOM     24  C   UNL     1       7.076   6.071  17.297  0.00  0.00    +0.000 C 
BRANCH  24  25
ATOM     25  C   UNL     1       5.853   6.060  16.369  0.00  0.00    +0.000 C 
ATOM     26  O   UNL     1       4.938   6.865  16.403  0.00  0.00    +0.000 OA
BRANCH  25  27
ATOM     27  O   UNL     1       5.896   5.084  15.428  0.00  0.00    +0.000 OA
ATOM     28  H   UNL     1       5.015   4.868  15.057  0.00  0.00    +0.000 HD
ENDBRANCH  25  27
ENDBRANCH  24  25
BRANCH  24  29
ATOM     29  C   UNL     1       7.221   7.443  17.980  0.00  0.00    +0.000 C 
BRANCH  29  30
ATOM     30  C   UNL     1       8.040   8.512  17.257  0.00  0.00    +0.000 C 
BRANCH  30  31
ATOM     31  C   UNL     1       8.200   9.829  18.022  0.00  0.00    +0.000 C 
BRANCH  31  32
ATOM     32  C   UNL     1       9.188   9.632  19.176  0.00  0.00    +0.000 C 
BRANCH  32  34
ATOM     33  C   UNL     1      10.734  11.588  19.486  0.00  0.00    +0.000 C 
ATOM     34  C   UNL     1       9.451  10.917  19.956  0.00  0.00    +0.000 C 
ENDBRANCH  32  34
ENDBRANCH  31  32
ENDBRANCH  30  31
ENDBRANCH  29  30
ENDBRANCH  24  29
ENDBRANCH  23  24
ENDBRANCH   1  23
TORSDOF 13
ENDMDL
MODEL 8
REMARK VINA RESULT:      -7.9      3.321      5.106
REMARK  Name = 
REMARK  14 active torsions:
REMARK  status: ('A' for Active; 'I' for Inactive)
REMARK    1  A    between atoms: C_1  and  C_2
REMARK    2  A    between atoms: C_2  and  C_3
REMARK    3  A    between atoms: C_3  and  C_4
REMARK    4  A    between atoms: C_4  and  C_5
REMARK    5  A    between atoms: C_5  and  C_6
REMARK    6  A    between atoms: C_6  and  C_7
REMARK    7  A    between atoms: C_7  and  S_8
REMARK    8  A    between atoms: C_7  and  C_30
REMARK    9  A    between atoms: S_8  and  C_9
REMARK   10  A    between atoms: C_14  and  N_15
REMARK   11  A    between atoms: N_15  and  C_16
REMARK   12  A    between atoms: C_19  and  C_20
REMARK   13  A    between atoms: C_20  and  C_21
REMARK   14  A    between atoms: C_30  and  O_32
REMARK                            x       y       z     vdW  Elec       q    Type
REMARK                         _______ _______ _______ _____ _____    ______ ____
ROOT
ATOM      1  C   UNL     1       3.916   4.809  18.232  0.00  0.00    +0.000 A 
ATOM      2  N   UNL     1       3.144   3.727  18.155  0.00  0.00    +0.000 NA
ATOM      3  C   UNL     1       2.051   3.766  18.931  0.00  0.00    +0.000 A 
ATOM      4 CL   UNL     1       1.059   2.366  18.836  0.00  0.00    +0.000 Cl
ATOM      5  C   UNL     1       1.693   4.812  19.742  0.00  0.00    +0.000 A 
ATOM      6  C   UNL     1       2.585   5.855  19.781  0.00  0.00    +0.000 A 
ATOM      7  N   UNL     1       3.698   5.849  19.036  0.00  0.00    +0.000 NA
ENDROOT
BRANCH   6   8
ATOM      8  N   UNL     1       2.295   6.957  20.611  0.00  0.00    +0.000 N 
ATOM      9  H   UNL     1       2.223   6.654  21.578  0.00  0.00    +0.000 HD
BRANCH   8  10
ATOM     10  C   UNL     1       1.437   8.043  20.335  0.00  0.00    +0.000 A 
ATOM     11  C   UNL     1       1.512   8.774  19.144  0.00  0.00    +0.000 A 
ATOM     12  C   UNL     1       0.740   9.922  18.946  0.00  0.00    +0.000 A 
ATOM     13  C   UNL     1      -0.096  10.398  19.959  0.00  0.00    +0.000 A 
ATOM     14  C   UNL     1      -0.160   9.688  21.164  0.00  0.00    +0.000 A 
ATOM     15  C   UNL     1       0.613   8.539  21.358  0.00  0.00    +0.000 A 
BRANCH  13  16
ATOM     16  C   UNL     1      -0.874  11.668  19.754  0.00  0.00    +0.000 C 
BRANCH  16  17
ATOM     17  C   UNL     1      -0.061  12.939  19.791  0.00  0.00    +0.000 A 
ATOM     18  C   UNL     1      -0.240  13.925  18.812  0.00  0.00    +0.000 A 
ATOM     19  C   UNL     1       0.418  15.153  18.916  0.00  0.00    +0.000 A 
ATOM     20  C   UNL     1       1.267  15.402  19.992  0.00  0.00    +0.000 A 
ATOM     21  C   UNL     1       1.491  14.408  20.945  0.00  0.00    +0.000 A 
ATOM     22  C   UNL     1       0.841  13.178  20.838  0.00  0.00    +0.000 A 
ENDBRANCH  16  17
ENDBRANCH  13  16
ENDBRANCH   8  10
ENDBRANCH   6   8
BRANCH   1  23
ATOM     23  S   UNL     1       5.298   4.925  17.126  0.00  0.00    +0.000 S 
BRANCH  23  24
ATOM     24  C   UNL     1       6.409   6.030  18.104  0.00  0.00    +0.000 C 
BRANCH  24  25
ATOM     25  C   UNL     1       7.483   5.201  18.821  0.00  0.00    +0.000 C 
ATOM     26  O   UNL     1       8.197   4.368  18.291  0.00  0.00    +0.000 OA
BRANCH  25  27
ATOM     27  O   UNL     1       7.628   5.520  20.132  0.00  0.00    +0.000 OA
ATOM     28  H   UNL     1       8.040   6.398  20.271  0.00  0.00    +0.000 HD
ENDBRANCH  25  27
ENDBRANCH  24  25
BRANCH  24  29
ATOM     29  C   UNL     1       7.050   7.216  17.362  0.00  0.00    +0.000 C 
BRANCH  29  30
ATOM     30  C   UNL     1       8.132   8.010  18.095  0.00  0.00    +0.000 C 
BRANCH  30  31
ATOM     31  C   UNL     1       8.142   9.512  17.796  0.00  0.00    +0.000 C 
BRANCH  31  32
ATOM     32  C   UNL     1       9.100  10.218  18.760  0.00  0.00    +0.000 C 
BRANCH  32  34
ATOM     33  C   UNL     1       9.312  12.575  17.916  0.00  0.00    +0.000 C 
ATOM     34  C   UNL     1      10.006  11.228  18.061  0.00  0.00    +0.000 C 
ENDBRANCH  32  34
ENDBRANCH  31  32
ENDBRANCH  30  31
ENDBRANCH  29  30
ENDBRANCH  24  29
ENDBRANCH  23  24
ENDBRANCH   1  23
TORSDOF 13
ENDMDL
MODEL 9
REMARK VINA RESULT:      -7.9      1.923      2.897
REMARK  Name = 
REMARK  14 active torsions:
REMARK  status: ('A' for Active; 'I' for Inactive)
REMARK    1  A    between atoms: C_1  and  C_2
REMARK    2  A    between atoms: C_2  and  C_3
REMARK    3  A    between atoms: C_3  and  C_4
REMARK    4  A    between atoms: C_4  and  C_5
REMARK    5  A    between atoms: C_5  and  C_6
REMARK    6  A    between atoms: C_6  and  C_7
REMARK    7  A    between atoms: C_7  and  S_8
REMARK    8  A    between atoms: C_7  and  C_30
REMARK    9  A    between atoms: S_8  and  C_9
REMARK   10  A    between atoms: C_14  and  N_15
REMARK   11  A    between atoms: N_15  and  C_16
REMARK   12  A    between atoms: C_19  and  C_20
REMARK   13  A    between atoms: C_20  and  C_21
REMARK   14  A    between atoms: C_30  and  O_32
REMARK                            x       y       z     vdW  Elec       q    Type
REMARK                         _______ _______ _______ _____ _____    ______ ____
ROOT
ATOM      1  C   UNL     1       3.131   4.224  18.694  0.00  0.00    +0.000 A 
ATOM      2  N   UNL     1       2.635   3.264  19.472  0.00  0.00    +0.000 NA
ATOM      3  C   UNL     1       2.053   3.703  20.597  0.00  0.00    +0.000 A 
ATOM      4 CL   UNL     1       1.419   2.463  21.602  0.00  0.00    +0.000 Cl
ATOM      5  C   UNL     1       1.929   5.019  20.962  0.00  0.00    +0.000 A 
ATOM      6  C   UNL     1       2.519   5.922  20.112  0.00  0.00    +0.000 A 
ATOM      7  N   UNL     1       3.127   5.524  18.986  0.00  0.00    +0.000 NA
ENDROOT
BRANCH   6   8
ATOM      8  N   UNL     1       2.452   7.292  20.434  0.00  0.00    +0.000 N 
ATOM      9  H   UNL     1       2.613   7.423  21.428  0.00  0.00    +0.000 HD
BRANCH   8  10
ATOM     10  C   UNL     1       1.565   8.259  19.912  0.00  0.00    +0.000 A 
ATOM     11  C   UNL     1       1.656   8.728  18.598  0.00  0.00    +0.000 A 
ATOM     12  C   UNL     1       0.851   9.776  18.143  0.00  0.00    +0.000 A 
ATOM     13  C   UNL     1      -0.039  10.415  19.010  0.00  0.00    +0.000 A 
ATOM     14  C   UNL     1      -0.121   9.968  20.334  0.00  0.00    +0.000 A 
ATOM     15  C   UNL     1       0.687   8.920  20.786  0.00  0.00    +0.000 A 
BRANCH  13  16
ATOM     16  C   UNL     1      -0.855  11.580  18.522  0.00  0.00    +0.000 C 
BRANCH  16  17
ATOM     17  C   UNL     1      -0.395  12.937  18.995  0.00  0.00    +0.000 A 
ATOM     18  C   UNL     1       0.817  13.473  18.544  0.00  0.00    +0.000 A 
ATOM     19  C   UNL     1       1.183  14.778  18.879  0.00  0.00    +0.000 A 
ATOM     20  C   UNL     1       0.345  15.555  19.677  0.00  0.00    +0.000 A 
ATOM     21  C   UNL     1      -0.840  15.013  20.174  0.00  0.00    +0.000 A 
ATOM     22  C   UNL     1      -1.202  13.707  19.846  0.00  0.00    +0.000 A 
ENDBRANCH  16  17
ENDBRANCH  13  16
ENDBRANCH   8  10
ENDBRANCH   6   8
BRANCH   1  23
ATOM     23  S   UNL     1       3.779   3.759  17.109  0.00  0.00    +0.000 S 
BRANCH  23  24
ATOM     24  C   UNL     1       5.153   4.983  16.945  0.00  0.00    +0.000 C 
BRANCH  24  25
ATOM     25  C   UNL     1       6.377   4.514  17.742  0.00  0.00    +0.000 C 
ATOM     26  O   UNL     1       7.538   4.734  17.441  0.00  0.00    +0.000 OA
BRANCH  25  27
ATOM     27  O   UNL     1       6.060   3.863  18.890  0.00  0.00    +0.000 OA
ATOM     28  H   UNL     1       5.148   3.505  18.890  0.00  0.00    +0.000 HD
ENDBRANCH  25  27
ENDBRANCH  24  25
BRANCH  24  29
ATOM     29  C   UNL     1       5.563   5.390  15.518  0.00  0.00    +0.000 C 
BRANCH  29  30
ATOM     30  C   UNL     1       5.378   4.359  14.405  0.00  0.00    +0.000 C 
BRANCH  30  31
ATOM     31  C   UNL     1       6.675   3.885  13.743  0.00  0.00    +0.000 C 
BRANCH  31  32
ATOM     32  C   UNL     1       6.476   3.806  12.226  0.00  0.00    +0.000 C 
BRANCH  32  34
ATOM     33  C   UNL     1       5.942   1.532  11.302  0.00  0.00    +0.000 C 
ATOM     34  C   UNL     1       5.365   2.840  11.824  0.00  0.00    +0.000 C 
ENDBRANCH  32  34
ENDBRANCH  31  32
ENDBRANCH  30  31
ENDBRANCH  29  30
ENDBRANCH  24  29
ENDBRANCH  23  24
ENDBRANCH   1  23
TORSDOF 13
ENDMDL
