MODEL 1
REMARK VINA RESULT:      -7.1      0.000      0.000
REMARK  Name = 
REMARK  6 active torsions:
REMARK  status: ('A' for Active; 'I' for Inactive)
REMARK    1  A    between atoms: C_1  and  C_2
REMARK    2  A    between atoms: C_2  and  C_3
REMARK    3  A    between atoms: C_2  and  N_4
REMARK    4  A    between atoms: C_8  and  N_9
REMARK    5  A    between atoms: N_9  and  C_10
REMARK    6  A    between atoms: C_10  and  C_11
REMARK                            x       y       z     vdW  Elec       q    Type
REMARK                         _______ _______ _______ _____ _____    ______ ____
ROOT
ATOM      1  N   UNL     1       0.968   9.265  19.446  0.00  0.00    +0.000 N 
ATOM      2  C   UNL     1       1.883   8.827  18.480  0.00  0.00    +0.000 C 
ATOM      3  O   UNL     1       2.103   9.451  17.434  0.00  0.00    +0.000 OA
ATOM      4  C   UNL     1       2.604   7.557  18.752  0.00  0.00    +0.000 C 
ATOM      5  C   UNL     1       3.453   7.102  17.810  0.00  0.00    +0.000 C 
ATOM      6  C   UNL     1       2.395   6.848  20.018  0.00  0.00    +0.000 C 
ATOM      7  O   UNL     1       2.831   5.739  20.292  0.00  0.00    +0.000 OA
ATOM      8  N   UNL     1       1.639   7.549  20.913  0.00  0.00    +0.000 N 
ATOM      9  C   UNL     1       0.920   8.699  20.719  0.00  0.00    +0.000 C 
ATOM     10  S   UNL     1       0.065   9.252  22.057  0.00  0.00    +0.000 S 
ATOM     11  H   UNL     1       1.518   7.094  21.816  0.00  0.00    +0.000 HD
ENDROOT
BRANCH   1  13
ATOM     12  C   UNL     1       0.968  11.716  18.867  0.00  0.00    +0.000 C 
ATOM     13  C   UNL     1       0.129  10.456  19.110  0.00  0.00    +0.000 C 
ATOM     14  C   UNL     1      -0.856  10.229  17.953  0.00  0.00    +0.000 C 
ENDBRANCH   1  13
BRANCH   5  15
ATOM     15  N   UNL     1       4.246   5.980  17.705  0.00  0.00    +0.000 N 
ATOM     16  H   UNL     1       5.248   6.169  17.787  0.00  0.00    +0.000 HD
BRANCH  15  17
ATOM     17  C   UNL     1       3.995   4.872  16.785  0.00  0.00    +0.000 C 
BRANCH  17  18
ATOM     18  C   UNL     1       3.235   3.822  17.559  0.00  0.00    +0.000 A 
ATOM     19  C   UNL     1       1.837   3.911  17.650  0.00  0.00    +0.000 A 
ATOM     20  C   UNL     1       1.113   3.002  18.421  0.00  0.00    +0.000 A 
ATOM     21  C   UNL     1       1.778   1.984  19.098  0.00  0.00    +0.000 A 
ATOM     22  C   UNL     1       3.163   1.870  18.998  0.00  0.00    +0.000 A 
ATOM     23  C   UNL     1       3.892   2.784  18.231  0.00  0.00    +0.000 A 
ENDBRANCH  17  18
ENDBRANCH  15  17
ENDBRANCH   5  15
TORSDOF 4
ENDMDL
MODEL 2
REMARK VINA RESULT:      -7.1      2.097      3.262
REMARK  Name = 
REMARK  6 active torsions:
REMARK  status: ('A' for Active; 'I' for Inactive)
REMARK    1  A    between atoms: C_1  and  C_2
REMARK    2  A    between atoms: C_2  and  C_3
REMARK    3  A    between atoms: C_2  and  N_4
REMARK    4  A    between atoms: C_8  and  N_9
REMARK    5  A    between atoms: N_9  and  C_10
REMARK    6  A    between atoms: C_10  and  C_11
REMARK                            x       y       z     vdW  Elec       q    Type
REMARK                         _______ _______ _______ _____ _____    ______ ____
ROOT
ATOM      1  N   UNL     1       1.376   8.983  19.477  0.00  0.00    +0.000 N 
ATOM      2  C   UNL     1       2.035   8.357  18.411  0.00  0.00    +0.000 C 
ATOM      3  O   UNL     1       2.206   8.904  17.315  0.00  0.00    +0.000 OA
ATOM      4  C   UNL     1       2.538   6.977  18.638  0.00  0.00    +0.000 C 
ATOM      5  C   UNL     1       3.133   6.348  17.606  0.00  0.00    +0.000 C 
ATOM      6  C   UNL     1       2.395   6.348  19.954  0.00  0.00    +0.000 C 
ATOM      7  O   UNL     1       2.652   5.182  20.217  0.00  0.00    +0.000 OA
ATOM      8  N   UNL     1       1.929   7.200  20.914  0.00  0.00    +0.000 N 
ATOM      9  C   UNL     1       1.418   8.464  20.770  0.00  0.00    +0.000 C 
ATOM     10  S   UNL     1       0.896   9.199  22.189  0.00  0.00    +0.000 S 
ATOM     11  H   UNL     1       1.865   6.797  21.846  0.00  0.00    +0.000 HD
ENDROOT
BRANCH   1  13
ATOM     12  C   UNL     1       1.729  11.345  18.679  0.00  0.00    +0.000 C 
ATOM     13  C   UNL     1       0.734  10.306  19.208  0.00  0.00    +0.000 C 
ATOM     14  C   UNL     1      -0.507  10.234  18.306  0.00  0.00    +0.000 C 
ENDBRANCH   1  13
BRANCH   5  15
ATOM     15  N   UNL     1       3.676   5.092  17.442  0.00  0.00    +0.000 N 
ATOM     16  H   UNL     1       3.572   4.484  18.257  0.00  0.00    +0.000 HD
BRANCH  15  17
ATOM     17  C   UNL     1       4.927   4.818  16.738  0.00  0.00    +0.000 C 
BRANCH  17  18
ATOM     18  C   UNL     1       6.015   5.568  17.468  0.00  0.00    +0.000 A 
ATOM     19  C   UNL     1       6.506   6.767  16.928  0.00  0.00    +0.000 A 
ATOM     20  C   UNL     1       7.564   7.443  17.535  0.00  0.00    +0.000 A 
ATOM     21  C   UNL     1       8.132   6.936  18.699  0.00  0.00    +0.000 A 
ATOM     22  C   UNL     1       7.640   5.759  19.260  0.00  0.00    +0.000 A 
ATOM     23  C   UNL     1       6.584   5.075  18.649  0.00  0.00    +0.000 A 
ENDBRANCH  17  18
ENDBRANCH  15  17
ENDBRANCH   5  15
TORSDOF 4
ENDMDL
MODEL 3
REMARK VINA RESULT:      -7.1      2.107      3.482
REMARK  Name = 
REMARK  6 active torsions:
REMARK  status: ('A' for Active; 'I' for Inactive)
REMARK    1  A    between atoms: C_1  and  C_2
REMARK    2  A    between atoms: C_2  and  C_3
REMARK    3  A    between atoms: C_2  and  N_4
REMARK    4  A    between atoms: C_8  and  N_9
REMARK    5  A    between atoms: N_9  and  C_10
REMARK    6  A    between atoms: C_10  and  C_11
REMARK                            x       y       z     vdW  Elec       q    Type
REMARK                         _______ _______ _______ _____ _____    ______ ____
ROOT
ATOM      1  N   UNL     1       1.249   9.119  19.435  0.00  0.00    +0.000 N 
ATOM      2  C   UNL     1       1.984   8.489  18.423  0.00  0.00    +0.000 C 
ATOM      3  O   UNL     1       2.215   9.023  17.331  0.00  0.00    +0.000 OA
ATOM      4  C   UNL     1       2.495   7.123  18.703  0.00  0.00    +0.000 C 
ATOM      5  C   UNL     1       3.166   6.489  17.721  0.00  0.00    +0.000 C 
ATOM      6  C   UNL     1       2.280   6.512  20.018  0.00  0.00    +0.000 C 
ATOM      7  O   UNL     1       2.541   5.355  20.316  0.00  0.00    +0.000 OA
ATOM      8  N   UNL     1       1.740   7.369  20.933  0.00  0.00    +0.000 N 
ATOM      9  C   UNL     1       1.217   8.621  20.737  0.00  0.00    +0.000 C 
ATOM     10  S   UNL     1       0.594   9.368  22.108  0.00  0.00    +0.000 S 
ATOM     11  H   UNL     1       1.624   6.979  21.866  0.00  0.00    +0.000 HD
ENDROOT
BRANCH   1  13
ATOM     12  C   UNL     1      -0.924  10.380  19.249  0.00  0.00    +0.000 C 
ATOM     13  C   UNL     1       0.602  10.427  19.104  0.00  0.00    +0.000 C 
ATOM     14  C   UNL     1       1.183  11.629  19.864  0.00  0.00    +0.000 C 
ENDBRANCH   1  13
BRANCH   5  15
ATOM     15  N   UNL     1       3.740   5.241  17.613  0.00  0.00    +0.000 N 
ATOM     16  H   UNL     1       3.767   4.717  18.490  0.00  0.00    +0.000 HD
BRANCH  15  17
ATOM     17  C   UNL     1       4.904   4.936  16.783  0.00  0.00    +0.000 C 
BRANCH  17  18
ATOM     18  C   UNL     1       6.082   5.652  17.398  0.00  0.00    +0.000 A 
ATOM     19  C   UNL     1       6.709   5.102  18.527  0.00  0.00    +0.000 A 
ATOM     20  C   UNL     1       7.749   5.778  19.165  0.00  0.00    +0.000 A 
ATOM     21  C   UNL     1       8.184   7.003  18.673  0.00  0.00    +0.000 A 
ATOM     22  C   UNL     1       7.587   7.551  17.538  0.00  0.00    +0.000 A 
ATOM     23  C   UNL     1       6.539   6.879  16.900  0.00  0.00    +0.000 A 
ENDBRANCH  17  18
ENDBRANCH  15  17
ENDBRANCH   5  15
TORSDOF 4
ENDMDL
MODEL 4
REMARK VINA RESULT:      -7.1      0.122      1.060
REMARK  Name = 
REMARK  6 active torsions:
REMARK  status: ('A' for Active; 'I' for Inactive)
REMARK    1  A    between atoms: C_1  and  C_2
REMARK    2  A    between atoms: C_2  and  C_3
REMARK    3  A    between atoms: C_2  and  N_4
REMARK    4  A    between atoms: C_8  and  N_9
REMARK    5  A    between atoms: N_9  and  C_10
REMARK    6  A    between atoms: C_10  and  C_11
REMARK                            x       y       z     vdW  Elec       q    Type
REMARK                         _______ _______ _______ _____ _____    ______ ____
ROOT
ATOM      1  N   UNL     1       0.861   9.312  19.461  0.00  0.00    +0.000 N 
ATOM      2  C   UNL     1       1.775   8.887  18.488  0.00  0.00    +0.000 C 
ATOM      3  O   UNL     1       1.961   9.502  17.431  0.00  0.00    +0.000 OA
ATOM      4  C   UNL     1       2.537   7.643  18.768  0.00  0.00    +0.000 C 
ATOM      5  C   UNL     1       3.386   7.200  17.820  0.00  0.00    +0.000 C 
ATOM      6  C   UNL     1       2.367   6.947  20.047  0.00  0.00    +0.000 C 
ATOM      7  O   UNL     1       2.840   5.856  20.330  0.00  0.00    +0.000 OA
ATOM      8  N   UNL     1       1.603   7.638  20.943  0.00  0.00    +0.000 N 
ATOM      9  C   UNL     1       0.848   8.764  20.743  0.00  0.00    +0.000 C 
ATOM     10  S   UNL     1      -0.004   9.311  22.086  0.00  0.00    +0.000 S 
ATOM     11  H   UNL     1       1.509   7.193  21.854  0.00  0.00    +0.000 HD
ENDROOT
BRANCH   1  13
ATOM     12  C   UNL     1       0.776  11.765  18.897  0.00  0.00    +0.000 C 
ATOM     13  C   UNL     1      -0.018  10.473  19.121  0.00  0.00    +0.000 C 
ATOM     14  C   UNL     1      -0.979  10.216  17.950  0.00  0.00    +0.000 C 
ENDBRANCH   1  13
BRANCH   5  15
ATOM     15  N   UNL     1       4.211   6.101  17.719  0.00  0.00    +0.000 N 
ATOM     16  H   UNL     1       5.207   6.322  17.770  0.00  0.00    +0.000 HD
BRANCH  15  17
ATOM     17  C   UNL     1       3.969   4.965  16.832  0.00  0.00    +0.000 C 
BRANCH  17  18
ATOM     18  C   UNL     1       3.190   3.944  17.626  0.00  0.00    +0.000 A 
ATOM     19  C   UNL     1       3.871   2.874  18.228  0.00  0.00    +0.000 A 
ATOM     20  C   UNL     1       3.173   1.873  18.902  0.00  0.00    +0.000 A 
ATOM     21  C   UNL     1       1.787   1.939  18.996  0.00  0.00    +0.000 A 
ATOM     22  C   UNL     1       1.099   3.008  18.424  0.00  0.00    +0.000 A 
ATOM     23  C   UNL     1       1.796   4.010  17.742  0.00  0.00    +0.000 A 
ENDBRANCH  17  18
ENDBRANCH  15  17
ENDBRANCH   5  15
TORSDOF 4
ENDMDL
MODEL 5
REMARK VINA RESULT:      -6.8      2.954      5.473
REMARK  Name = 
REMARK  6 active torsions:
REMARK  status: ('A' for Active; 'I' for Inactive)
REMARK    1  A    between atoms: C_1  and  C_2
REMARK    2  A    between atoms: C_2  and  C_3
REMARK    3  A    between atoms: C_2  and  N_4
REMARK    4  A    between atoms: C_8  and  N_9
REMARK    5  A    between atoms: N_9  and  C_10
REMARK    6  A    between atoms: C_10  and  C_11
REMARK                            x       y       z     vdW  Elec       q    Type
REMARK                         _______ _______ _______ _____ _____    ______ ____
ROOT
ATOM      1  N   UNL     1       2.253   4.714  19.719  0.00  0.00    +0.000 N 
ATOM      2  C   UNL     1       2.875   4.045  18.657  0.00  0.00    +0.000 C 
ATOM      3  O   UNL     1       2.785   2.822  18.491  0.00  0.00    +0.000 OA
ATOM      4  C   UNL     1       3.669   4.866  17.707  0.00  0.00    +0.000 C 
ATOM      5  C   UNL     1       4.309   4.228  16.708  0.00  0.00    +0.000 C 
ATOM      6  C   UNL     1       3.725   6.322  17.862  0.00  0.00    +0.000 C 
ATOM      7  O   UNL     1       4.444   7.078  17.223  0.00  0.00    +0.000 OA
ATOM      8  N   UNL     1       2.876   6.799  18.819  0.00  0.00    +0.000 N 
ATOM      9  C   UNL     1       2.147   6.104  19.748  0.00  0.00    +0.000 C 
ATOM     10  S   UNL     1       1.238   7.043  20.805  0.00  0.00    +0.000 S 
ATOM     11  H   UNL     1       2.866   7.813  18.912  0.00  0.00    +0.000 HD
ENDROOT
BRANCH   1  13
ATOM     12  C   UNL     1       0.489   2.975  20.179  0.00  0.00    +0.000 C 
ATOM     13  C   UNL     1       1.583   3.877  20.762  0.00  0.00    +0.000 C 
ATOM     14  C   UNL     1       2.550   3.064  21.636  0.00  0.00    +0.000 C 
ENDBRANCH   1  13
BRANCH   5  15
ATOM     15  N   UNL     1       5.137   4.645  15.688  0.00  0.00    +0.000 N 
ATOM     16  H   UNL     1       4.737   4.534  14.754  0.00  0.00    +0.000 HD
BRANCH  15  17
ATOM     17  C   UNL     1       6.585   4.446  15.666  0.00  0.00    +0.000 C 
BRANCH  17  18
ATOM     18  C   UNL     1       7.167   5.329  16.743  0.00  0.00    +0.000 A 
ATOM     19  C   UNL     1       7.537   4.762  17.973  0.00  0.00    +0.000 A 
ATOM     20  C   UNL     1       8.004   5.562  19.015  0.00  0.00    +0.000 A 
ATOM     21  C   UNL     1       8.122   6.936  18.835  0.00  0.00    +0.000 A 
ATOM     22  C   UNL     1       7.780   7.510  17.612  0.00  0.00    +0.000 A 
ATOM     23  C   UNL     1       7.305   6.712  16.567  0.00  0.00    +0.000 A 
ENDBRANCH  17  18
ENDBRANCH  15  17
ENDBRANCH   5  15
TORSDOF 4
ENDMDL
MODEL 6
REMARK VINA RESULT:      -6.7      2.114      3.353
REMARK  Name = 
REMARK  6 active torsions:
REMARK  status: ('A' for Active; 'I' for Inactive)
REMARK    1  A    between atoms: C_1  and  C_2
REMARK    2  A    between atoms: C_2  and  C_3
REMARK    3  A    between atoms: C_2  and  N_4
REMARK    4  A    between atoms: C_8  and  N_9
REMARK    5  A    between atoms: N_9  and  C_10
REMARK    6  A    between atoms: C_10  and  C_11
REMARK                            x       y       z     vdW  Elec       q    Type
REMARK                         _______ _______ _______ _____ _____    ______ ____
ROOT
ATOM      1  N   UNL     1       0.932   9.859  19.387  0.00  0.00    +0.000 N 
ATOM      2  C   UNL     1       1.713   9.112  18.496  0.00  0.00    +0.000 C 
ATOM      3  O   UNL     1       2.067   9.543  17.391  0.00  0.00    +0.000 OA
ATOM      4  C   UNL     1       2.118   7.749  18.924  0.00  0.00    +0.000 C 
ATOM      5  C   UNL     1       2.831   7.003  18.057  0.00  0.00    +0.000 C 
ATOM      6  C   UNL     1       1.756   7.258  20.257  0.00  0.00    +0.000 C 
ATOM      7  O   UNL     1       1.922   6.116  20.664  0.00  0.00    +0.000 OA
ATOM      8  N   UNL     1       1.192   8.213  21.052  0.00  0.00    +0.000 N 
ATOM      9  C   UNL     1       0.761   9.470  20.715  0.00  0.00    +0.000 C 
ATOM     10  S   UNL     1       0.068  10.357  21.964  0.00  0.00    +0.000 S 
ATOM     11  H   UNL     1       0.973   7.906  21.998  0.00  0.00    +0.000 HD
ENDROOT
BRANCH   1  13
ATOM     12  C   UNL     1      -1.128  11.270  19.057  0.00  0.00    +0.000 C 
ATOM     13  C   UNL     1       0.394  11.167  18.902  0.00  0.00    +0.000 C 
ATOM     14  C   UNL     1       1.086  12.399  19.505  0.00  0.00    +0.000 C 
ENDBRANCH   1  13
BRANCH   5  15
ATOM     15  N   UNL     1       3.338   5.723  18.096  0.00  0.00    +0.000 N 
ATOM     16  H   UNL     1       3.413   5.332  19.038  0.00  0.00    +0.000 HD
BRANCH  15  17
ATOM     17  C   UNL     1       4.417   5.234  17.238  0.00  0.00    +0.000 C 
BRANCH  17  18
ATOM     18  C   UNL     1       5.702   5.818  17.773  0.00  0.00    +0.000 A 
ATOM     19  C   UNL     1       6.283   6.916  17.119  0.00  0.00    +0.000 A 
ATOM     20  C   UNL     1       7.509   7.430  17.540  0.00  0.00    +0.000 A 
ATOM     21  C   UNL     1       8.161   6.862  18.630  0.00  0.00    +0.000 A 
ATOM     22  C   UNL     1       7.585   5.786  19.303  0.00  0.00    +0.000 A 
ATOM     23  C   UNL     1       6.358   5.264  18.879  0.00  0.00    +0.000 A 
ENDBRANCH  17  18
ENDBRANCH  15  17
ENDBRANCH   5  15
TORSDOF 4
ENDMDL
MODEL 7
REMARK VINA RESULT:      -6.7      3.291      5.706
REMARK  Name = 
REMARK  6 active torsions:
REMARK  status: ('A' for Active; 'I' for Inactive)
REMARK    1  A    between atoms: C_1  and  C_2
REMARK    2  A    between atoms: C_2  and  C_3
REMARK    3  A    between atoms: C_2  and  N_4
REMARK    4  A    between atoms: C_8  and  N_9
REMARK    5  A    between atoms: N_9  and  C_10
REMARK    6  A    between atoms: C_10  and  C_11
REMARK                            x       y       z     vdW  Elec       q    Type
REMARK                         _______ _______ _______ _____ _____    ______ ____
ROOT
ATOM      1  N   UNL     1       2.653   3.896  19.206  0.00  0.00    +0.000 N 
ATOM      2  C   UNL     1       3.332   3.517  18.041  0.00  0.00    +0.000 C 
ATOM      3  O   UNL     1       3.414   2.341  17.667  0.00  0.00    +0.000 OA
ATOM      4  C   UNL     1       3.968   4.596  17.243  0.00  0.00    +0.000 C 
ATOM      5  C   UNL     1       4.662   4.239  16.144  0.00  0.00    +0.000 C 
ATOM      6  C   UNL     1       3.819   5.997  17.647  0.00  0.00    +0.000 C 
ATOM      7  O   UNL     1       4.401   6.948  17.145  0.00  0.00    +0.000 OA
ATOM      8  N   UNL     1       2.940   6.173  18.677  0.00  0.00    +0.000 N 
ATOM      9  C   UNL     1       2.348   5.230  19.476  0.00  0.00    +0.000 C 
ATOM     10  S   UNL     1       1.347   5.831  20.685  0.00  0.00    +0.000 S 
ATOM     11  H   UNL     1       2.787   7.144  18.944  0.00  0.00    +0.000 HD
ENDROOT
BRANCH   1  13
ATOM     12  C   UNL     1       2.510   3.026  21.565  0.00  0.00    +0.000 C 
ATOM     13  C   UNL     1       2.144   2.805  20.093  0.00  0.00    +0.000 C 
ATOM     14  C   UNL     1       0.642   2.518  19.944  0.00  0.00    +0.000 C 
ENDBRANCH   1  13
BRANCH   5  15
ATOM     15  N   UNL     1       5.389   4.941  15.208  0.00  0.00    +0.000 N 
ATOM     16  H   UNL     1       4.991   4.915  14.266  0.00  0.00    +0.000 HD
BRANCH  15  17
ATOM     17  C   UNL     1       6.849   4.988  15.159  0.00  0.00    +0.000 C 
BRANCH  17  18
ATOM     18  C   UNL     1       7.317   5.507  16.497  0.00  0.00    +0.000 A 
ATOM     19  C   UNL     1       7.606   4.598  17.526  0.00  0.00    +0.000 A 
ATOM     20  C   UNL     1       7.965   5.048  18.796  0.00  0.00    +0.000 A 
ATOM     21  C   UNL     1       8.055   6.413  19.047  0.00  0.00    +0.000 A 
ATOM     22  C   UNL     1       7.794   7.328  18.029  0.00  0.00    +0.000 A 
ATOM     23  C   UNL     1       7.427   6.879  16.756  0.00  0.00    +0.000 A 
ENDBRANCH  17  18
ENDBRANCH  15  17
ENDBRANCH   5  15
TORSDOF 4
ENDMDL
MODEL 8
REMARK VINA RESULT:      -6.7      2.898      6.825
REMARK  Name = 
REMARK  6 active torsions:
REMARK  status: ('A' for Active; 'I' for Inactive)
REMARK    1  A    between atoms: C_1  and  C_2
REMARK    2  A    between atoms: C_2  and  C_3
REMARK    3  A    between atoms: C_2  and  N_4
REMARK    4  A    between atoms: C_8  and  N_9
REMARK    5  A    between atoms: N_9  and  C_10
REMARK    6  A    between atoms: C_10  and  C_11
REMARK                            x       y       z     vdW  Elec       q    Type
REMARK                         _______ _______ _______ _____ _____    ______ ____
ROOT
ATOM      1  N   UNL     1       4.276   4.460  17.794  0.00  0.00    +0.000 N 
ATOM      2  C   UNL     1       3.910   5.808  17.909  0.00  0.00    +0.000 C 
ATOM      3  O   UNL     1       4.420   6.700  17.220  0.00  0.00    +0.000 OA
ATOM      4  C   UNL     1       2.863   6.146  18.906  0.00  0.00    +0.000 C 
ATOM      5  C   UNL     1       2.535   7.444  19.057  0.00  0.00    +0.000 C 
ATOM      6  C   UNL     1       2.211   5.085  19.678  0.00  0.00    +0.000 C 
ATOM      7  O   UNL     1       1.437   5.255  20.609  0.00  0.00    +0.000 OA
ATOM      8  N   UNL     1       2.547   3.828  19.264  0.00  0.00    +0.000 N 
ATOM      9  C   UNL     1       3.522   3.444  18.381  0.00  0.00    +0.000 C 
ATOM     10  S   UNL     1       3.676   1.786  18.149  0.00  0.00    +0.000 S 
ATOM     11  H   UNL     1       2.071   3.075  19.757  0.00  0.00    +0.000 HD
ENDROOT
BRANCH   1  13
ATOM     12  C   UNL     1       5.165   4.486  15.438  0.00  0.00    +0.000 C 
ATOM     13  C   UNL     1       5.433   4.133  16.905  0.00  0.00    +0.000 C 
ATOM     14  C   UNL     1       6.773   4.724  17.370  0.00  0.00    +0.000 C 
ENDBRANCH   1  13
BRANCH   5  15
ATOM     15  N   UNL     1       1.659   8.115  19.882  0.00  0.00    +0.000 N 
ATOM     16  H   UNL     1       0.936   7.521  20.293  0.00  0.00    +0.000 HD
BRANCH  15  17
ATOM     17  C   UNL     1       1.151   9.462  19.628  0.00  0.00    +0.000 C 
BRANCH  17  18
ATOM     18  C   UNL     1       0.347   9.865  20.841  0.00  0.00    +0.000 A 
ATOM     19  C   UNL     1      -0.434  11.030  20.794  0.00  0.00    +0.000 A 
ATOM     20  C   UNL     1      -1.125  11.472  21.921  0.00  0.00    +0.000 A 
ATOM     21  C   UNL     1      -1.057  10.744  23.105  0.00  0.00    +0.000 A 
ATOM     22  C   UNL     1      -0.304   9.572  23.160  0.00  0.00    +0.000 A 
ATOM     23  C   UNL     1       0.396   9.131  22.033  0.00  0.00    +0.000 A 
ENDBRANCH  17  18
ENDBRANCH  15  17
ENDBRANCH   5  15
TORSDOF 4
ENDMDL
MODEL 9
REMARK VINA RESULT:      -6.7      2.963      5.461
REMARK  Name = 
REMARK  6 active torsions:
REMARK  status: ('A' for Active; 'I' for Inactive)
REMARK    1  A    between atoms: C_1  and  C_2
REMARK    2  A    between atoms: C_2  and  C_3
REMARK    3  A    between atoms: C_2  and  N_4
REMARK    4  A    between atoms: C_8  and  N_9
REMARK    5  A    between atoms: N_9  and  C_10
REMARK    6  A    between atoms: C_10  and  C_11
REMARK                            x       y       z     vdW  Elec       q    Type
REMARK                         _______ _______ _______ _____ _____    ______ ____
ROOT
ATOM      1  N   UNL     1       2.399   4.671  19.656  0.00  0.00    +0.000 N 
ATOM      2  C   UNL     1       3.025   3.993  18.601  0.00  0.00    +0.000 C 
ATOM      3  O   UNL     1       2.981   2.763  18.476  0.00  0.00    +0.000 OA
ATOM      4  C   UNL     1       3.762   4.815  17.607  0.00  0.00    +0.000 C 
ATOM      5  C   UNL     1       4.405   4.171  16.614  0.00  0.00    +0.000 C 
ATOM      6  C   UNL     1       3.761   6.277  17.715  0.00  0.00    +0.000 C 
ATOM      7  O   UNL     1       4.434   7.040  17.036  0.00  0.00    +0.000 OA
ATOM      8  N   UNL     1       2.915   6.749  18.676  0.00  0.00    +0.000 N 
ATOM      9  C   UNL     1       2.236   6.055  19.644  0.00  0.00    +0.000 C 
ATOM     10  S   UNL     1       1.313   6.991  20.692  0.00  0.00    +0.000 S 
ATOM     11  H   UNL     1       2.865   7.764  18.738  0.00  0.00    +0.000 HD
ENDROOT
BRANCH   1  13
ATOM     12  C   UNL     1       0.554   3.067  20.264  0.00  0.00    +0.000 C 
ATOM     13  C   UNL     1       1.788   3.842  20.741  0.00  0.00    +0.000 C 
ATOM     14  C   UNL     1       2.776   2.905  21.452  0.00  0.00    +0.000 C 
ENDBRANCH   1  13
BRANCH   5  15
ATOM     15  N   UNL     1       5.192   4.588  15.562  0.00  0.00    +0.000 N 
ATOM     16  H   UNL     1       4.808   4.368  14.641  0.00  0.00    +0.000 HD
BRANCH  15  17
ATOM     17  C   UNL     1       6.653   4.532  15.550  0.00  0.00    +0.000 C 
BRANCH  17  18
ATOM     18  C   UNL     1       7.135   5.350  16.723  0.00  0.00    +0.000 A 
ATOM     19  C   UNL     1       7.282   6.739  16.579  0.00  0.00    +0.000 A 
ATOM     20  C   UNL     1       7.799   7.513  17.618  0.00  0.00    +0.000 A 
ATOM     21  C   UNL     1       8.159   6.909  18.818  0.00  0.00    +0.000 A 
ATOM     22  C   UNL     1       7.997   5.534  18.983  0.00  0.00    +0.000 A 
ATOM     23  C   UNL     1       7.485   4.755  17.941  0.00  0.00    +0.000 A 
ENDBRANCH  17  18
ENDBRANCH  15  17
ENDBRANCH   5  15
TORSDOF 4
ENDMDL
