MODEL 1
REMARK VINA RESULT:      -9.1      0.000      0.000
REMARK  Name = 
REMARK  1 active torsions:
REMARK  status: ('A' for Active; 'I' for Inactive)
REMARK    1  A    between atoms: C_4  and  C_5
REMARK                            x       y       z     vdW  Elec       q    Type
REMARK                         _______ _______ _______ _____ _____    ______ ____
ROOT
ATOM      1  N   UNL     1       8.164   5.597  19.856  0.00  0.00    +0.000 N 
ATOM      2  C   UNL     1       7.047   5.233  19.139  0.00  0.00    +0.000 A 
ATOM      3  N   UNL     1       7.193   5.073  17.812  0.00  0.00    +0.000 NA
ATOM      4  C   UNL     1       6.113   4.686  17.085  0.00  0.00    +0.000 A 
ATOM      5  C   UNL     1       4.915   4.487  17.698  0.00  0.00    +0.000 A 
ATOM      6  C   UNL     1       4.866   4.700  19.062  0.00  0.00    +0.000 A 
ATOM      7  N   UNL     1       5.902   5.084  19.815  0.00  0.00    +0.000 NA
ATOM      8  C   UNL     1       3.545   4.402  19.563  0.00  0.00    +0.000 A 
ATOM      9  C   UNL     1       3.011   4.451  20.837  0.00  0.00    +0.000 A 
ATOM     10  C   UNL     1       1.674   4.067  21.007  0.00  0.00    +0.000 A 
ATOM     11  C   UNL     1       0.890   3.643  19.914  0.00  0.00    +0.000 A 
ATOM     12  C   UNL     1       1.427   3.600  18.627  0.00  0.00    +0.000 A 
ATOM     13  C   UNL     1       2.745   3.985  18.489  0.00  0.00    +0.000 A 
ATOM     14  C   UNL     1       3.582   4.029  17.273  0.00  0.00    +0.000 C 
ATOM     15  O   UNL     1       3.213   3.737  16.157  0.00  0.00    +0.000 OA
ATOM     16  H   UNL     1       8.853   6.026  19.254  0.00  0.00    +0.000 HD
ATOM     17  H   UNL     1       7.918   6.073  20.711  0.00  0.00    +0.000 HD
ENDROOT
BRANCH   4  18
ATOM     18  C   UNL     1       6.347   4.510  15.661  0.00  0.00    +0.000 A 
ATOM     19  C   UNL     1       5.876   3.646  14.692  0.00  0.00    +0.000 A 
ATOM     20  C   UNL     1       6.541   3.977  13.487  0.00  0.00    +0.000 A 
ATOM     21  C   UNL     1       7.373   5.034  13.781  0.00  0.00    +0.000 A 
ATOM     22 CL   UNL     1       8.430   5.841  12.694  0.00  0.00    +0.000 Cl
ATOM     23  O   UNL     1       7.252   5.368  15.095  0.00  0.00    +0.000 OA
ENDBRANCH   4  18
TORSDOF 1
ENDMDL
MODEL 2
REMARK VINA RESULT:      -8.5      2.783      3.116
REMARK  Name = 
REMARK  1 active torsions:
REMARK  status: ('A' for Active; 'I' for Inactive)
REMARK    1  A    between atoms: C_4  and  C_5
REMARK                            x       y       z     vdW  Elec       q    Type
REMARK                         _______ _______ _______ _____ _____    ______ ____
ROOT
ATOM      1  N   UNL     1       4.752   2.400  19.970  0.00  0.00    +0.000 N 
ATOM      2  C   UNL     1       4.610   3.532  19.201  0.00  0.00    +0.000 A 
ATOM      3  N   UNL     1       5.272   3.567  18.031  0.00  0.00    +0.000 NA
ATOM      4  C   UNL     1       5.128   4.661  17.239  0.00  0.00    +0.000 A 
ATOM      5  C   UNL     1       4.342   5.694  17.643  0.00  0.00    +0.000 A 
ATOM      6  C   UNL     1       3.723   5.569  18.870  0.00  0.00    +0.000 A 
ATOM      7  N   UNL     1       3.840   4.514  19.683  0.00  0.00    +0.000 NA
ATOM      8  C   UNL     1       2.894   6.723  19.129  0.00  0.00    +0.000 A 
ATOM      9  C   UNL     1       2.083   7.053  20.198  0.00  0.00    +0.000 A 
ATOM     10  C   UNL     1       1.371   8.259  20.138  0.00  0.00    +0.000 A 
ATOM     11  C   UNL     1       1.474   9.115  19.022  0.00  0.00    +0.000 A 
ATOM     12  C   UNL     1       2.297   8.784  17.945  0.00  0.00    +0.000 A 
ATOM     13  C   UNL     1       2.988   7.592  18.032  0.00  0.00    +0.000 A 
ATOM     14  C   UNL     1       3.910   6.975  17.058  0.00  0.00    +0.000 C 
ATOM     15  O   UNL     1       4.227   7.454  15.992  0.00  0.00    +0.000 OA
ATOM     16  H   UNL     1       5.593   1.899  19.722  0.00  0.00    +0.000 HD
ATOM     17  H   UNL     1       4.583   2.591  20.947  0.00  0.00    +0.000 HD
ENDROOT
BRANCH   4  18
ATOM     18  C   UNL     1       5.853   4.622  15.980  0.00  0.00    +0.000 A 
ATOM     19  C   UNL     1       7.055   5.131  15.527  0.00  0.00    +0.000 A 
ATOM     20  C   UNL     1       7.168   4.769  14.163  0.00  0.00    +0.000 A 
ATOM     21  C   UNL     1       6.036   4.047  13.859  0.00  0.00    +0.000 A 
ATOM     22 CL   UNL     1       5.635   3.361  12.336  0.00  0.00    +0.000 Cl
ATOM     23  O   UNL     1       5.240   3.946  14.959  0.00  0.00    +0.000 OA
ENDBRANCH   4  18
TORSDOF 1
ENDMDL
MODEL 3
REMARK VINA RESULT:      -8.3      2.784      5.805
REMARK  Name = 
REMARK  1 active torsions:
REMARK  status: ('A' for Active; 'I' for Inactive)
REMARK    1  A    between atoms: C_4  and  C_5
REMARK                            x       y       z     vdW  Elec       q    Type
REMARK                         _______ _______ _______ _____ _____    ______ ____
ROOT
ATOM      1  N   UNL     1       8.379   6.648  19.334  0.00  0.00    +0.000 N 
ATOM      2  C   UNL     1       7.518   5.869  18.595  0.00  0.00    +0.000 A 
ATOM      3  N   UNL     1       6.512   5.269  19.254  0.00  0.00    +0.000 NA
ATOM      4  C   UNL     1       5.631   4.517  18.544  0.00  0.00    +0.000 A 
ATOM      5  C   UNL     1       5.789   4.371  17.201  0.00  0.00    +0.000 A 
ATOM      6  C   UNL     1       6.867   5.011  16.623  0.00  0.00    +0.000 A 
ATOM      7  N   UNL     1       7.760   5.756  17.283  0.00  0.00    +0.000 NA
ATOM      8  C   UNL     1       6.866   4.795  15.195  0.00  0.00    +0.000 A 
ATOM      9  C   UNL     1       7.718   5.230  14.198  0.00  0.00    +0.000 A 
ATOM     10  C   UNL     1       7.425   4.866  12.876  0.00  0.00    +0.000 A 
ATOM     11  C   UNL     1       6.297   4.079  12.566  0.00  0.00    +0.000 A 
ATOM     12  C   UNL     1       5.440   3.635  13.574  0.00  0.00    +0.000 A 
ATOM     13  C   UNL     1       5.754   4.007  14.866  0.00  0.00    +0.000 A 
ATOM     14  C   UNL     1       5.038   3.707  16.123  0.00  0.00    +0.000 C 
ATOM     15  O   UNL     1       4.030   3.043  16.214  0.00  0.00    +0.000 OA
ATOM     16  H   UNL     1       8.347   6.392  20.311  0.00  0.00    +0.000 HD
ATOM     17  H   UNL     1       9.283   6.725  18.892  0.00  0.00    +0.000 HD
ENDROOT
BRANCH   4  18
ATOM     18  C   UNL     1       4.556   3.917  19.316  0.00  0.00    +0.000 A 
ATOM     19  C   UNL     1       4.367   2.705  19.952  0.00  0.00    +0.000 A 
ATOM     20  C   UNL     1       3.061   2.726  20.497  0.00  0.00    +0.000 A 
ATOM     21  C   UNL     1       2.526   3.953  20.177  0.00  0.00    +0.000 A 
ATOM     22 CL   UNL     1       0.957   4.524  20.576  0.00  0.00    +0.000 Cl
ATOM     23  O   UNL     1       3.431   4.683  19.469  0.00  0.00    +0.000 OA
ENDBRANCH   4  18
TORSDOF 1
ENDMDL
MODEL 4
REMARK VINA RESULT:      -8.3      2.708      3.978
REMARK  Name = 
REMARK  1 active torsions:
REMARK  status: ('A' for Active; 'I' for Inactive)
REMARK    1  A    between atoms: C_4  and  C_5
REMARK                            x       y       z     vdW  Elec       q    Type
REMARK                         _______ _______ _______ _____ _____    ______ ____
ROOT
ATOM      1  N   UNL     1       6.620   4.103  13.771  0.00  0.00    +0.000 N 
ATOM      2  C   UNL     1       6.225   4.396  15.057  0.00  0.00    +0.000 A 
ATOM      3  N   UNL     1       6.931   5.328  15.720  0.00  0.00    +0.000 NA
ATOM      4  C   UNL     1       6.546   5.656  16.980  0.00  0.00    +0.000 A 
ATOM      5  C   UNL     1       5.479   5.033  17.550  0.00  0.00    +0.000 A 
ATOM      6  C   UNL     1       4.835   4.075  16.793  0.00  0.00    +0.000 A 
ATOM      7  N   UNL     1       5.182   3.718  15.552  0.00  0.00    +0.000 NA
ATOM      8  C   UNL     1       3.705   3.546  17.519  0.00  0.00    +0.000 A 
ATOM      9  C   UNL     1       2.762   2.591  17.186  0.00  0.00    +0.000 A 
ATOM     10  C   UNL     1       1.751   2.311  18.115  0.00  0.00    +0.000 A 
ATOM     11  C   UNL     1       1.691   2.980  19.355  0.00  0.00    +0.000 A 
ATOM     12  C   UNL     1       2.645   3.940  19.693  0.00  0.00    +0.000 A 
ATOM     13  C   UNL     1       3.631   4.194  18.760  0.00  0.00    +0.000 A 
ATOM     14  C   UNL     1       4.752   5.152  18.825  0.00  0.00    +0.000 C 
ATOM     15  O   UNL     1       4.998   5.882  19.760  0.00  0.00    +0.000 OA
ATOM     16  H   UNL     1       7.582   4.372  13.621  0.00  0.00    +0.000 HD
ATOM     17  H   UNL     1       6.338   3.174  13.499  0.00  0.00    +0.000 HD
ENDROOT
BRANCH   4  18
ATOM     18  C   UNL     1       7.339   6.687  17.629  0.00  0.00    +0.000 A 
ATOM     19  C   UNL     1       8.177   6.731  18.727  0.00  0.00    +0.000 A 
ATOM     20  C   UNL     1       8.614   8.071  18.857  0.00  0.00    +0.000 A 
ATOM     21  C   UNL     1       8.031   8.772  17.826  0.00  0.00    +0.000 A 
ATOM     22 CL   UNL     1       8.203  10.449  17.498  0.00  0.00    +0.000 Cl
ATOM     23  O   UNL     1       7.264   7.936  17.072  0.00  0.00    +0.000 OA
ENDBRANCH   4  18
TORSDOF 1
ENDMDL
MODEL 5
REMARK VINA RESULT:      -8.3      2.912      5.832
REMARK  Name = 
REMARK  1 active torsions:
REMARK  status: ('A' for Active; 'I' for Inactive)
REMARK    1  A    between atoms: C_4  and  C_5
REMARK                            x       y       z     vdW  Elec       q    Type
REMARK                         _______ _______ _______ _____ _____    ______ ____
ROOT
ATOM      1  N   UNL     1       8.400   5.967  19.791  0.00  0.00    +0.000 N 
ATOM      2  C   UNL     1       7.356   5.506  19.022  0.00  0.00    +0.000 A 
ATOM      3  N   UNL     1       6.172   5.329  19.634  0.00  0.00    +0.000 NA
ATOM      4  C   UNL     1       5.118   4.902  18.892  0.00  0.00    +0.000 A 
ATOM      5  C   UNL     1       5.278   4.646  17.566  0.00  0.00    +0.000 A 
ATOM      6  C   UNL     1       6.540   4.839  17.038  0.00  0.00    +0.000 A 
ATOM      7  N   UNL     1       7.605   5.254  17.731  0.00  0.00    +0.000 NA
ATOM      8  C   UNL     1       6.530   4.570  15.619  0.00  0.00    +0.000 A 
ATOM      9  C   UNL     1       7.528   4.631  14.664  0.00  0.00    +0.000 A 
ATOM     10  C   UNL     1       7.190   4.331  13.337  0.00  0.00    +0.000 A 
ATOM     11  C   UNL     1       5.873   3.976  12.981  0.00  0.00    +0.000 A 
ATOM     12  C   UNL     1       4.867   3.909  13.946  0.00  0.00    +0.000 A 
ATOM     13  C   UNL     1       5.229   4.208  15.244  0.00  0.00    +0.000 A 
ATOM     14  C   UNL     1       4.394   4.238  16.461  0.00  0.00    +0.000 C 
ATOM     15  O   UNL     1       3.213   3.975  16.508  0.00  0.00    +0.000 OA
ATOM     16  H   UNL     1       8.233   5.785  20.771  0.00  0.00    +0.000 HD
ATOM     17  H   UNL     1       9.293   5.700  19.404  0.00  0.00    +0.000 HD
ENDROOT
BRANCH   4  18
ATOM     18  C   UNL     1       3.864   4.754  19.612  0.00  0.00    +0.000 A 
ATOM     19  C   UNL     1       2.788   5.578  19.883  0.00  0.00    +0.000 A 
ATOM     20  C   UNL     1       1.892   4.833  20.686  0.00  0.00    +0.000 A 
ATOM     21  C   UNL     1       2.460   3.591  20.853  0.00  0.00    +0.000 A 
ATOM     22 CL   UNL     1       1.812   2.278  21.750  0.00  0.00    +0.000 Cl
ATOM     23  O   UNL     1       3.652   3.534  20.196  0.00  0.00    +0.000 OA
ENDBRANCH   4  18
TORSDOF 1
ENDMDL
MODEL 6
REMARK VINA RESULT:      -8.1      2.887      5.893
REMARK  Name = 
REMARK  1 active torsions:
REMARK  status: ('A' for Active; 'I' for Inactive)
REMARK    1  A    between atoms: C_4  and  C_5
REMARK                            x       y       z     vdW  Elec       q    Type
REMARK                         _______ _______ _______ _____ _____    ______ ____
ROOT
ATOM      1  N   UNL     1       8.213   7.791  18.206  0.00  0.00    +0.000 N 
ATOM      2  C   UNL     1       7.331   6.878  17.675  0.00  0.00    +0.000 A 
ATOM      3  N   UNL     1       6.282   6.520  18.436  0.00  0.00    +0.000 NA
ATOM      4  C   UNL     1       5.381   5.642  17.925  0.00  0.00    +0.000 A 
ATOM      5  C   UNL     1       5.560   5.133  16.677  0.00  0.00    +0.000 A 
ATOM      6  C   UNL     1       6.681   5.547  15.985  0.00  0.00    +0.000 A 
ATOM      7  N   UNL     1       7.595   6.405  16.450  0.00  0.00    +0.000 NA
ATOM      8  C   UNL     1       6.699   4.955  14.668  0.00  0.00    +0.000 A 
ATOM      9  C   UNL     1       7.593   5.068  13.620  0.00  0.00    +0.000 A 
ATOM     10  C   UNL     1       7.312   4.374  12.435  0.00  0.00    +0.000 A 
ATOM     11  C   UNL     1       6.153   3.580  12.310  0.00  0.00    +0.000 A 
ATOM     12  C   UNL     1       5.254   3.460  13.371  0.00  0.00    +0.000 A 
ATOM     13  C   UNL     1       5.557   4.153  14.526  0.00  0.00    +0.000 A 
ATOM     14  C   UNL     1       4.801   4.234  15.791  0.00  0.00    +0.000 C 
ATOM     15  O   UNL     1       3.759   3.661  16.023  0.00  0.00    +0.000 OA
ATOM     16  H   UNL     1       8.147   7.809  19.214  0.00  0.00    +0.000 HD
ATOM     17  H   UNL     1       9.129   7.708  17.791  0.00  0.00    +0.000 HD
ENDROOT
BRANCH   4  18
ATOM     18  C   UNL     1       4.261   5.317  18.793  0.00  0.00    +0.000 A 
ATOM     19  C   UNL     1       3.104   5.965  19.180  0.00  0.00    +0.000 A 
ATOM     20  C   UNL     1       2.441   5.111  20.095  0.00  0.00    +0.000 A 
ATOM     21  C   UNL     1       3.221   3.983  20.208  0.00  0.00    +0.000 A 
ATOM     22 CL   UNL     1       2.907   2.612  21.193  0.00  0.00    +0.000 Cl
ATOM     23  O   UNL     1       4.321   4.098  19.413  0.00  0.00    +0.000 OA
ENDBRANCH   4  18
TORSDOF 1
ENDMDL
MODEL 7
REMARK VINA RESULT:      -8.1      2.393      2.785
REMARK  Name = 
REMARK  1 active torsions:
REMARK  status: ('A' for Active; 'I' for Inactive)
REMARK    1  A    between atoms: C_4  and  C_5
REMARK                            x       y       z     vdW  Elec       q    Type
REMARK                         _______ _______ _______ _____ _____    ______ ____
ROOT
ATOM      1  N   UNL     1       2.798   8.890  17.728  0.00  0.00    +0.000 N 
ATOM      2  C   UNL     1       3.126   7.556  17.806  0.00  0.00    +0.000 A 
ATOM      3  N   UNL     1       4.058   7.101  16.950  0.00  0.00    +0.000 NA
ATOM      4  C   UNL     1       4.422   5.795  17.024  0.00  0.00    +0.000 A 
ATOM      5  C   UNL     1       3.834   4.975  17.936  0.00  0.00    +0.000 A 
ATOM      6  C   UNL     1       2.873   5.535  18.754  0.00  0.00    +0.000 A 
ATOM      7  N   UNL     1       2.482   6.813  18.714  0.00  0.00    +0.000 NA
ATOM      8  C   UNL     1       2.384   4.551  19.692  0.00  0.00    +0.000 A 
ATOM      9  C   UNL     1       1.442   4.629  20.700  0.00  0.00    +0.000 A 
ATOM     10  C   UNL     1       1.204   3.481  21.470  0.00  0.00    +0.000 A 
ATOM     11  C   UNL     1       1.902   2.280  21.227  0.00  0.00    +0.000 A 
ATOM     12  C   UNL     1       2.848   2.200  20.205  0.00  0.00    +0.000 A 
ATOM     13  C   UNL     1       3.060   3.344  19.462  0.00  0.00    +0.000 A 
ATOM     14  C   UNL     1       3.996   3.569  18.342  0.00  0.00    +0.000 C 
ATOM     15  O   UNL     1       4.741   2.737  17.873  0.00  0.00    +0.000 OA
ATOM     16  H   UNL     1       3.043   9.268  16.824  0.00  0.00    +0.000 HD
ATOM     17  H   UNL     1       1.868   9.064  18.080  0.00  0.00    +0.000 HD
ENDROOT
BRANCH   4  18
ATOM     18  C   UNL     1       5.450   5.377  16.085  0.00  0.00    +0.000 A 
ATOM     19  C   UNL     1       6.815   5.562  15.982  0.00  0.00    +0.000 A 
ATOM     20  C   UNL     1       7.229   4.921  14.790  0.00  0.00    +0.000 A 
ATOM     21  C   UNL     1       6.098   4.367  14.235  0.00  0.00    +0.000 A 
ATOM     22 CL   UNL     1       6.006   3.475  12.770  0.00  0.00    +0.000 Cl
ATOM     23  O   UNL     1       5.018   4.632  15.020  0.00  0.00    +0.000 OA
ENDBRANCH   4  18
TORSDOF 1
ENDMDL
MODEL 8
REMARK VINA RESULT:      -8.1      2.645      3.175
REMARK  Name = 
REMARK  1 active torsions:
REMARK  status: ('A' for Active; 'I' for Inactive)
REMARK    1  A    between atoms: C_4  and  C_5
REMARK                            x       y       z     vdW  Elec       q    Type
REMARK                         _______ _______ _______ _____ _____    ______ ____
ROOT
ATOM      1  N   UNL     1       3.455   1.036  18.709  0.00  0.00    +0.000 N 
ATOM      2  C   UNL     1       3.620   2.370  18.414  0.00  0.00    +0.000 A 
ATOM      3  N   UNL     1       4.437   2.678  17.391  0.00  0.00    +0.000 NA
ATOM      4  C   UNL     1       4.596   3.985  17.061  0.00  0.00    +0.000 A 
ATOM      5  C   UNL     1       3.950   4.950  17.770  0.00  0.00    +0.000 A 
ATOM      6  C   UNL     1       3.151   4.530  18.815  0.00  0.00    +0.000 A 
ATOM      7  N   UNL     1       2.969   3.256  19.177  0.00  0.00    +0.000 NA
ATOM      8  C   UNL     1       2.504   5.665  19.432  0.00  0.00    +0.000 A 
ATOM      9  C   UNL     1       1.619   5.757  20.489  0.00  0.00    +0.000 A 
ATOM     10  C   UNL     1       1.139   7.027  20.839  0.00  0.00    +0.000 A 
ATOM     11  C   UNL     1       1.544   8.181  20.137  0.00  0.00    +0.000 A 
ATOM     12  C   UNL     1       2.443   8.088  19.073  0.00  0.00    +0.000 A 
ATOM     13  C   UNL     1       2.900   6.826  18.752  0.00  0.00    +0.000 A 
ATOM     14  C   UNL     1       3.831   6.414  17.682  0.00  0.00    +0.000 C 
ATOM     15  O   UNL     1       4.373   7.163  16.899  0.00  0.00    +0.000 OA
ATOM     16  H   UNL     1       4.225   0.490  18.348  0.00  0.00    +0.000 HD
ATOM     17  H   UNL     1       3.185   0.899  19.672  0.00  0.00    +0.000 HD
ENDROOT
BRANCH   4  18
ATOM     18  C   UNL     1       5.474   4.244  15.932  0.00  0.00    +0.000 A 
ATOM     19  C   UNL     1       6.611   5.003  15.731  0.00  0.00    +0.000 A 
ATOM     20  C   UNL     1       6.966   4.859  14.368  0.00  0.00    +0.000 A 
ATOM     21  C   UNL     1       6.036   4.010  13.812  0.00  0.00    +0.000 A 
ATOM     22 CL   UNL     1       5.969   3.489  12.177  0.00  0.00    +0.000 Cl
ATOM     23  O   UNL     1       5.134   3.626  14.758  0.00  0.00    +0.000 OA
ENDBRANCH   4  18
TORSDOF 1
ENDMDL
MODEL 9
REMARK VINA RESULT:      -8.0      1.078      1.233
REMARK  Name = 
REMARK  1 active torsions:
REMARK  status: ('A' for Active; 'I' for Inactive)
REMARK    1  A    between atoms: C_4  and  C_5
REMARK                            x       y       z     vdW  Elec       q    Type
REMARK                         _______ _______ _______ _____ _____    ______ ____
ROOT
ATOM      1  N   UNL     1       8.228   5.539  19.926  0.00  0.00    +0.000 N 
ATOM      2  C   UNL     1       7.140   5.212  19.149  0.00  0.00    +0.000 A 
ATOM      3  N   UNL     1       7.334   5.134  17.821  0.00  0.00    +0.000 NA
ATOM      4  C   UNL     1       6.284   4.785  17.034  0.00  0.00    +0.000 A 
ATOM      5  C   UNL     1       5.067   4.540  17.590  0.00  0.00    +0.000 A 
ATOM      6  C   UNL     1       4.968   4.668  18.962  0.00  0.00    +0.000 A 
ATOM      7  N   UNL     1       5.973   5.013  19.774  0.00  0.00    +0.000 NA
ATOM      8  C   UNL     1       3.633   4.331  19.397  0.00  0.00    +0.000 A 
ATOM      9  C   UNL     1       3.055   4.297  20.652  0.00  0.00    +0.000 A 
ATOM     10  C   UNL     1       1.716   3.894  20.750  0.00  0.00    +0.000 A 
ATOM     11  C   UNL     1       0.975   3.532  19.606  0.00  0.00    +0.000 A 
ATOM     12  C   UNL     1       1.557   3.571  18.339  0.00  0.00    +0.000 A 
ATOM     13  C   UNL     1       2.876   3.974  18.271  0.00  0.00    +0.000 A 
ATOM     14  C   UNL     1       3.754   4.099  17.091  0.00  0.00    +0.000 C 
ATOM     15  O   UNL     1       3.427   3.873  15.947  0.00  0.00    +0.000 OA
ATOM     16  H   UNL     1       8.933   6.010  19.377  0.00  0.00    +0.000 HD
ATOM     17  H   UNL     1       7.947   5.960  20.799  0.00  0.00    +0.000 HD
ENDROOT
BRANCH   4  18
ATOM     18  C   UNL     1       6.569   4.699  15.611  0.00  0.00    +0.000 A 
ATOM     19  C   UNL     1       7.376   5.394  14.731  0.00  0.00    +0.000 A 
ATOM     20  C   UNL     1       7.167   4.832  13.449  0.00  0.00    +0.000 A 
ATOM     21  C   UNL     1       6.254   3.816  13.615  0.00  0.00    +0.000 A 
ATOM     22 CL   UNL     1       5.621   2.794  12.388  0.00  0.00    +0.000 Cl
ATOM     23  O   UNL     1       5.895   3.724  14.925  0.00  0.00    +0.000 OA
ENDBRANCH   4  18
TORSDOF 1
ENDMDL
