MODEL 1
REMARK VINA RESULT:      -8.4      0.000      0.000
REMARK  Name = 
REMARK  7 active torsions:
REMARK  status: ('A' for Active; 'I' for Inactive)
REMARK    1  A    between atoms: C_1  and  C_2
REMARK    2  A    between atoms: C_6  and  C_7
REMARK    3  A    between atoms: C_8  and  N_9
REMARK    4  A    between atoms: C_10  and  C_12
REMARK    5  A    between atoms: C_12  and  C_13
REMARK    6  A    between atoms: C_12  and  N_19
REMARK    7  A    between atoms: C_22  and  C_23
REMARK                            x       y       z     vdW  Elec       q    Type
REMARK                         _______ _______ _______ _____ _____    ______ ____
ROOT
ATOM      1  C   UNL     1      -0.246  11.111  18.269  0.00  0.00    +0.000 C 
ENDROOT
BRANCH   1   2
ATOM      2  N   UNL     1       0.456  10.070  19.063  0.00  0.00    +0.000 N 
ATOM      3  C   UNL     1       1.440   9.311  18.452  0.00  0.00    +0.000 A 
ATOM      4  O   UNL     1       1.923   9.610  17.367  0.00  0.00    +0.000 OA
ATOM      5  C   UNL     1       1.909   8.059  19.181  0.00  0.00    +0.000 A 
ATOM      6  N   UNL     1       1.596   7.811  20.416  0.00  0.00    +0.000 NA
ATOM      7  C   UNL     1       0.835   8.773  21.101  0.00  0.00    +0.000 A 
ATOM      8  C   UNL     1       0.665   8.571  22.475  0.00  0.00    +0.000 A 
ATOM      9  C   UNL     1       0.045   9.535  23.263  0.00  0.00    +0.000 A 
ATOM     10  C   UNL     1      -0.409  10.712  22.675  0.00  0.00    +0.000 A 
ATOM     11  C   UNL     1      -0.302  10.899  21.288  0.00  0.00    +0.000 A 
ATOM     12  C   UNL     1       0.295   9.928  20.482  0.00  0.00    +0.000 A 
BRANCH   5  13
ATOM     13  C   UNL     1       2.747   7.158  18.429  0.00  0.00    +0.000 A 
ATOM     14  C   UNL     1       2.630   5.811  18.155  0.00  0.00    +0.000 A 
ATOM     15  C   UNL     1       3.812   5.434  17.468  0.00  0.00    +0.000 A 
ATOM     16  C   UNL     1       4.556   6.581  17.325  0.00  0.00    +0.000 A 
ATOM     17  O   UNL     1       3.902   7.629  17.874  0.00  0.00    +0.000 OA
ENDBRANCH   5  13
ENDBRANCH   1   2
BRANCH   1  18
ATOM     18  C   UNL     1       0.127  12.584  18.571  0.00  0.00    +0.000 A 
ATOM     19  C   UNL     1      -0.797  13.594  18.878  0.00  0.00    +0.000 A 
ATOM     20  C   UNL     1      -0.364  14.908  19.020  0.00  0.00    +0.000 A 
ATOM     21  N   UNL     1       0.925  15.284  18.948  0.00  0.00    +0.000 NA
ATOM     22  C   UNL     1       1.820  14.304  18.719  0.00  0.00    +0.000 A 
ATOM     23  C   UNL     1       1.480  12.969  18.533  0.00  0.00    +0.000 A 
ENDBRANCH   1  18
BRANCH   1  25
ATOM     24  N   UNL     1      -2.545  12.048  18.465  0.00  0.00    +0.000 N 
ATOM     25  C   UNL     1      -1.795  10.888  18.294  0.00  0.00    +0.000 C 
ATOM     26  O   UNL     1      -2.264   9.753  18.201  0.00  0.00    +0.000 OA
ATOM     27  H   UNL     1      -2.019  12.831  18.857  0.00  0.00    +0.000 HD
BRANCH  24  35
ATOM     28  C   UNL     1      -4.509  11.449  16.323  0.00  0.00    +0.000 C 
ATOM     29  C   UNL     1      -4.881  11.788  17.741  0.00  0.00    +0.000 A 
ATOM     30  C   UNL     1      -6.246  11.890  18.057  0.00  0.00    +0.000 A 
ATOM     31  C   UNL     1      -6.665  12.292  19.323  0.00  0.00    +0.000 A 
ATOM     32  C   UNL     1      -5.722  12.595  20.298  0.00  0.00    +0.000 A 
ATOM     33  C   UNL     1      -4.352  12.486  20.026  0.00  0.00    +0.000 A 
ATOM     34  C   UNL     1      -3.391  12.784  21.147  0.00  0.00    +0.000 C 
ATOM     35  C   UNL     1      -3.929  12.063  18.743  0.00  0.00    +0.000 A 
ENDBRANCH  24  35
ENDBRANCH   1  25
TORSDOF 5
ENDMDL
MODEL 2
REMARK VINA RESULT:      -8.4      0.162      1.503
REMARK  Name = 
REMARK  7 active torsions:
REMARK  status: ('A' for Active; 'I' for Inactive)
REMARK    1  A    between atoms: C_1  and  C_2
REMARK    2  A    between atoms: C_6  and  C_7
REMARK    3  A    between atoms: C_8  and  N_9
REMARK    4  A    between atoms: C_10  and  C_12
REMARK    5  A    between atoms: C_12  and  C_13
REMARK    6  A    between atoms: C_12  and  N_19
REMARK    7  A    between atoms: C_22  and  C_23
REMARK                            x       y       z     vdW  Elec       q    Type
REMARK                         _______ _______ _______ _____ _____    ______ ____
ROOT
ATOM      1  C   UNL     1      -0.275  11.157  18.295  0.00  0.00    +0.000 C 
ENDROOT
BRANCH   1   2
ATOM      2  N   UNL     1       0.430  10.113  19.084  0.00  0.00    +0.000 N 
ATOM      3  C   UNL     1       1.418   9.362  18.470  0.00  0.00    +0.000 A 
ATOM      4  O   UNL     1       1.902   9.670  17.388  0.00  0.00    +0.000 OA
ATOM      5  C   UNL     1       1.890   8.106  19.191  0.00  0.00    +0.000 A 
ATOM      6  N   UNL     1       1.575   7.849  20.423  0.00  0.00    +0.000 NA
ATOM      7  C   UNL     1       0.810   8.803  21.113  0.00  0.00    +0.000 A 
ATOM      8  C   UNL     1       0.637   8.591  22.486  0.00  0.00    +0.000 A 
ATOM      9  C   UNL     1       0.013   9.547  23.280  0.00  0.00    +0.000 A 
ATOM     10  C   UNL     1      -0.445  10.726  22.698  0.00  0.00    +0.000 A 
ATOM     11  C   UNL     1      -0.336  10.924  21.313  0.00  0.00    +0.000 A 
ATOM     12  C   UNL     1       0.266   9.960  20.502  0.00  0.00    +0.000 A 
BRANCH   5  13
ATOM     13  C   UNL     1       2.733   7.214  18.435  0.00  0.00    +0.000 A 
ATOM     14  C   UNL     1       2.629   5.866  18.162  0.00  0.00    +0.000 A 
ATOM     15  C   UNL     1       3.811   5.501  17.468  0.00  0.00    +0.000 A 
ATOM     16  C   UNL     1       4.542   6.656  17.320  0.00  0.00    +0.000 A 
ATOM     17  O   UNL     1       3.880   7.697  17.872  0.00  0.00    +0.000 OA
ENDBRANCH   5  13
ENDBRANCH   1   2
BRANCH   1  18
ATOM     18  C   UNL     1       0.083  12.629  18.617  0.00  0.00    +0.000 A 
ATOM     19  C   UNL     1      -0.832  13.592  19.070  0.00  0.00    +0.000 A 
ATOM     20  C   UNL     1      -0.429  14.914  19.219  0.00  0.00    +0.000 A 
ATOM     21  N   UNL     1       0.831  15.340  19.019  0.00  0.00    +0.000 NA
ATOM     22  C   UNL     1       1.725  14.403  18.648  0.00  0.00    +0.000 A 
ATOM     23  C   UNL     1       1.409  13.065  18.443  0.00  0.00    +0.000 A 
ENDBRANCH   1  18
BRANCH   1  25
ATOM     24  N   UNL     1      -2.585  12.082  18.357  0.00  0.00    +0.000 N 
ATOM     25  C   UNL     1      -1.822  10.920  18.305  0.00  0.00    +0.000 C 
ATOM     26  O   UNL     1      -2.279   9.776  18.301  0.00  0.00    +0.000 OA
ATOM     27  H   UNL     1      -2.076  12.902  18.691  0.00  0.00    +0.000 HD
BRANCH  24  35
ATOM     28  C   UNL     1      -3.618  12.744  21.058  0.00  0.00    +0.000 C 
ATOM     29  C   UNL     1      -4.490  12.414  19.877  0.00  0.00    +0.000 A 
ATOM     30  C   UNL     1      -5.879  12.352  20.082  0.00  0.00    +0.000 A 
ATOM     31  C   UNL     1      -6.740  11.959  19.061  0.00  0.00    +0.000 A 
ATOM     32  C   UNL     1      -6.226  11.625  17.814  0.00  0.00    +0.000 A 
ATOM     33  C   UNL     1      -4.849  11.693  17.566  0.00  0.00    +0.000 A 
ATOM     34  C   UNL     1      -4.371  11.364  16.176  0.00  0.00    +0.000 C 
ATOM     35  C   UNL     1      -3.976  12.107  18.602  0.00  0.00    +0.000 A 
ENDBRANCH  24  35
ENDBRANCH   1  25
TORSDOF 5
ENDMDL
MODEL 3
REMARK VINA RESULT:      -8.3      1.424      2.291
REMARK  Name = 
REMARK  7 active torsions:
REMARK  status: ('A' for Active; 'I' for Inactive)
REMARK    1  A    between atoms: C_1  and  C_2
REMARK    2  A    between atoms: C_6  and  C_7
REMARK    3  A    between atoms: C_8  and  N_9
REMARK    4  A    between atoms: C_10  and  C_12
REMARK    5  A    between atoms: C_12  and  C_13
REMARK    6  A    between atoms: C_12  and  N_19
REMARK    7  A    between atoms: C_22  and  C_23
REMARK                            x       y       z     vdW  Elec       q    Type
REMARK                         _______ _______ _______ _____ _____    ______ ____
ROOT
ATOM      1  C   UNL     1       0.946  11.694  18.618  0.00  0.00    +0.000 C 
ENDROOT
BRANCH   1   2
ATOM      2  N   UNL     1       1.006  10.457  19.440  0.00  0.00    +0.000 N 
ATOM      3  C   UNL     1       1.823   9.418  19.028  0.00  0.00    +0.000 A 
ATOM      4  O   UNL     1       2.673   9.554  18.157  0.00  0.00    +0.000 OA
ATOM      5  C   UNL     1       1.623   8.065  19.698  0.00  0.00    +0.000 A 
ATOM      6  N   UNL     1       0.899   7.915  20.764  0.00  0.00    +0.000 NA
ATOM      7  C   UNL     1       0.327   9.065  21.331  0.00  0.00    +0.000 A 
ATOM      8  C   UNL     1      -0.296   8.905  22.575  0.00  0.00    +0.000 A 
ATOM      9  C   UNL     1      -0.770  10.007  23.279  0.00  0.00    +0.000 A 
ATOM     10  C   UNL     1      -0.623  11.280  22.737  0.00  0.00    +0.000 A 
ATOM     11  C   UNL     1      -0.060  11.449  21.463  0.00  0.00    +0.000 A 
ATOM     12  C   UNL     1       0.398  10.349  20.735  0.00  0.00    +0.000 A 
BRANCH   5  13
ATOM     13  C   UNL     1       2.304   6.947  19.096  0.00  0.00    +0.000 A 
ATOM     14  C   UNL     1       1.998   6.171  17.996  0.00  0.00    +0.000 A 
ATOM     15  C   UNL     1       2.971   5.140  17.945  0.00  0.00    +0.000 A 
ATOM     16  C   UNL     1       3.836   5.375  18.988  0.00  0.00    +0.000 A 
ATOM     17  O   UNL     1       3.456   6.482  19.664  0.00  0.00    +0.000 OA
ENDBRANCH   5  13
ENDBRANCH   1   2
BRANCH   1  18
ATOM     18  C   UNL     1       1.967  12.807  18.964  0.00  0.00    +0.000 A 
ATOM     19  C   UNL     1       2.252  13.251  20.264  0.00  0.00    +0.000 A 
ATOM     20  C   UNL     1       3.101  14.335  20.455  0.00  0.00    +0.000 A 
ATOM     21  N   UNL     1       3.742  14.969  19.457  0.00  0.00    +0.000 NA
ATOM     22  C   UNL     1       3.520  14.500  18.214  0.00  0.00    +0.000 A 
ATOM     23  C   UNL     1       2.665  13.443  17.923  0.00  0.00    +0.000 A 
ENDBRANCH   1  18
BRANCH   1  25
ATOM     24  N   UNL     1      -1.505  11.273  18.496  0.00  0.00    +0.000 N 
ATOM     25  C   UNL     1      -0.516  12.249  18.543  0.00  0.00    +0.000 C 
ATOM     26  O   UNL     1      -0.720  13.463  18.496  0.00  0.00    +0.000 OA
ATOM     27  H   UNL     1      -1.170  10.352  18.205  0.00  0.00    +0.000 HD
BRANCH  24  35
ATOM     28  C   UNL     1      -3.274  12.508  20.533  0.00  0.00    +0.000 C 
ATOM     29  C   UNL     1      -3.721  12.112  19.152  0.00  0.00    +0.000 A 
ATOM     30  C   UNL     1      -5.079  12.279  18.828  0.00  0.00    +0.000 A 
ATOM     31  C   UNL     1      -5.585  11.847  17.605  0.00  0.00    +0.000 A 
ATOM     32  C   UNL     1      -4.740  11.244  16.681  0.00  0.00    +0.000 A 
ATOM     33  C   UNL     1      -3.377  11.078  16.961  0.00  0.00    +0.000 A 
ATOM     34  C   UNL     1      -2.513  10.462  15.892  0.00  0.00    +0.000 C 
ATOM     35  C   UNL     1      -2.861  11.531  18.199  0.00  0.00    +0.000 A 
ENDBRANCH  24  35
ENDBRANCH   1  25
TORSDOF 5
ENDMDL
MODEL 4
REMARK VINA RESULT:      -8.3      2.367      5.619
REMARK  Name = 
REMARK  7 active torsions:
REMARK  status: ('A' for Active; 'I' for Inactive)
REMARK    1  A    between atoms: C_1  and  C_2
REMARK    2  A    between atoms: C_6  and  C_7
REMARK    3  A    between atoms: C_8  and  N_9
REMARK    4  A    between atoms: C_10  and  C_12
REMARK    5  A    between atoms: C_12  and  C_13
REMARK    6  A    between atoms: C_12  and  N_19
REMARK    7  A    between atoms: C_22  and  C_23
REMARK                            x       y       z     vdW  Elec       q    Type
REMARK                         _______ _______ _______ _____ _____    ______ ____
ROOT
ATOM      1  C   UNL     1      -0.117  12.357  21.562  0.00  0.00    +0.000 C 
ENDROOT
BRANCH   1   2
ATOM      2  N   UNL     1      -0.299  11.423  20.421  0.00  0.00    +0.000 N 
ATOM      3  C   UNL     1       0.569  10.352  20.287  0.00  0.00    +0.000 A 
ATOM      4  O   UNL     1       1.325  10.002  21.185  0.00  0.00    +0.000 OA
ATOM      5  C   UNL     1       0.563   9.610  18.958  0.00  0.00    +0.000 A 
ATOM      6  N   UNL     1      -0.356   9.794  18.060  0.00  0.00    +0.000 NA
ATOM      7  C   UNL     1      -1.401  10.680  18.369  0.00  0.00    +0.000 A 
ATOM      8  C   UNL     1      -2.469  10.725  17.466  0.00  0.00    +0.000 A 
ATOM      9  C   UNL     1      -3.611  11.467  17.752  0.00  0.00    +0.000 A 
ATOM     10  C   UNL     1      -3.687  12.171  18.949  0.00  0.00    +0.000 A 
ATOM     11  C   UNL     1      -2.597  12.187  19.834  0.00  0.00    +0.000 A 
ATOM     12  C   UNL     1      -1.436  11.467  19.547  0.00  0.00    +0.000 A 
BRANCH   5  13
ATOM     13  C   UNL     1       1.630   8.663  18.749  0.00  0.00    +0.000 A 
ATOM     14  C   UNL     1       2.567   8.545  17.743  0.00  0.00    +0.000 A 
ATOM     15  C   UNL     1       3.291   7.354  18.003  0.00  0.00    +0.000 A 
ATOM     16  C   UNL     1       2.784   6.843  19.174  0.00  0.00    +0.000 A 
ATOM     17  O   UNL     1       1.805   7.647  19.644  0.00  0.00    +0.000 OA
ENDBRANCH   5  13
ENDBRANCH   1   2
BRANCH   1  18
ATOM     18  C   UNL     1      -1.400  12.792  22.314  0.00  0.00    +0.000 A 
ATOM     19  C   UNL     1      -1.915  14.097  22.324  0.00  0.00    +0.000 A 
ATOM     20  C   UNL     1      -3.010  14.403  23.126  0.00  0.00    +0.000 A 
ATOM     21  N   UNL     1      -3.674  13.496  23.864  0.00  0.00    +0.000 NA
ATOM     22  C   UNL     1      -3.220  12.229  23.803  0.00  0.00    +0.000 A 
ATOM     23  C   UNL     1      -2.115  11.835  23.056  0.00  0.00    +0.000 A 
ENDBRANCH   1  18
BRANCH   1  25
ATOM     24  N   UNL     1       0.579  14.009  19.833  0.00  0.00    +0.000 N 
ATOM     25  C   UNL     1       0.757  13.588  21.147  0.00  0.00    +0.000 C 
ATOM     26  O   UNL     1       1.551  14.087  21.946  0.00  0.00    +0.000 OA
ATOM     27  H   UNL     1       0.159  13.306  19.223  0.00  0.00    +0.000 HD
BRANCH  24  35
ATOM     28  C   UNL     1       0.006  16.915  20.010  0.00  0.00    +0.000 C 
ATOM     29  C   UNL     1       1.159  16.325  19.244  0.00  0.00    +0.000 A 
ATOM     30  C   UNL     1       1.980  17.201  18.513  0.00  0.00    +0.000 A 
ATOM     31  C   UNL     1       3.006  16.720  17.705  0.00  0.00    +0.000 A 
ATOM     32  C   UNL     1       3.233  15.352  17.617  0.00  0.00    +0.000 A 
ATOM     33  C   UNL     1       2.447  14.449  18.346  0.00  0.00    +0.000 A 
ATOM     34  C   UNL     1       2.784  12.985  18.239  0.00  0.00    +0.000 C 
ATOM     35  C   UNL     1       1.414  14.941  19.179  0.00  0.00    +0.000 A 
ENDBRANCH  24  35
ENDBRANCH   1  25
TORSDOF 5
ENDMDL
MODEL 5
REMARK VINA RESULT:      -8.2      2.934      7.664
REMARK  Name = 
REMARK  7 active torsions:
REMARK  status: ('A' for Active; 'I' for Inactive)
REMARK    1  A    between atoms: C_1  and  C_2
REMARK    2  A    between atoms: C_6  and  C_7
REMARK    3  A    between atoms: C_8  and  N_9
REMARK    4  A    between atoms: C_10  and  C_12
REMARK    5  A    between atoms: C_12  and  C_13
REMARK    6  A    between atoms: C_12  and  N_19
REMARK    7  A    between atoms: C_22  and  C_23
REMARK                            x       y       z     vdW  Elec       q    Type
REMARK                         _______ _______ _______ _____ _____    ______ ____
ROOT
ATOM      1  C   UNL     1      -0.690  11.898  19.873  0.00  0.00    +0.000 C 
ENDROOT
BRANCH   1   2
ATOM      2  N   UNL     1      -2.142  12.036  19.587  0.00  0.00    +0.000 N 
ATOM      3  C   UNL     1      -2.936  12.741  20.476  0.00  0.00    +0.000 A 
ATOM      4  O   UNL     1      -2.467  13.452  21.356  0.00  0.00    +0.000 OA
ATOM      5  C   UNL     1      -4.444  12.595  20.331  0.00  0.00    +0.000 A 
ATOM      6  N   UNL     1      -4.996  12.037  19.297  0.00  0.00    +0.000 NA
ATOM      7  C   UNL     1      -4.151  11.602  18.263  0.00  0.00    +0.000 A 
ATOM      8  C   UNL     1      -4.774  11.171  17.087  0.00  0.00    +0.000 A 
ATOM      9  C   UNL     1      -4.023  10.851  15.961  0.00  0.00    +0.000 A 
ATOM     10  C   UNL     1      -2.637  10.961  16.009  0.00  0.00    +0.000 A 
ATOM     11  C   UNL     1      -1.995  11.330  17.201  0.00  0.00    +0.000 A 
ATOM     12  C   UNL     1      -2.737  11.629  18.346  0.00  0.00    +0.000 A 
BRANCH   5  13
ATOM     13  C   UNL     1      -5.245  13.134  21.402  0.00  0.00    +0.000 A 
ATOM     14  C   UNL     1      -5.911  14.335  21.534  0.00  0.00    +0.000 A 
ATOM     15  C   UNL     1      -6.434  14.365  22.851  0.00  0.00    +0.000 A 
ATOM     16  C   UNL     1      -6.094  13.164  23.428  0.00  0.00    +0.000 A 
ATOM     17  O   UNL     1      -5.406  12.406  22.547  0.00  0.00    +0.000 OA
ENDBRANCH   5  13
ENDBRANCH   1   2
BRANCH   1  18
ATOM     18  C   UNL     1      -0.291  10.863  20.955  0.00  0.00    +0.000 A 
ATOM     19  C   UNL     1      -0.815  10.826  22.256  0.00  0.00    +0.000 A 
ATOM     20  C   UNL     1      -0.304   9.926  23.183  0.00  0.00    +0.000 A 
ATOM     21  N   UNL     1       0.641   9.013  22.898  0.00  0.00    +0.000 NA
ATOM     22  C   UNL     1       1.098   9.003  21.631  0.00  0.00    +0.000 A 
ATOM     23  C   UNL     1       0.670   9.885  20.644  0.00  0.00    +0.000 A 
ENDBRANCH   1  18
BRANCH   1  25
ATOM     24  N   UNL     1      -0.243  14.232  19.130  0.00  0.00    +0.000 N 
ATOM     25  C   UNL     1      -0.034  13.295  20.136  0.00  0.00    +0.000 C 
ATOM     26  O   UNL     1       0.634  13.489  21.153  0.00  0.00    +0.000 OA
ATOM     27  H   UNL     1      -0.513  13.827  18.232  0.00  0.00    +0.000 HD
BRANCH  24  35
ATOM     28  C   UNL     1       2.563  14.337  18.169  0.00  0.00    +0.000 C 
ATOM     29  C   UNL     1       1.769  15.542  18.595  0.00  0.00    +0.000 A 
ATOM     30  C   UNL     1       2.417  16.789  18.600  0.00  0.00    +0.000 A 
ATOM     31  C   UNL     1       1.777  17.932  19.072  0.00  0.00    +0.000 A 
ATOM     32  C   UNL     1       0.473  17.848  19.544  0.00  0.00    +0.000 A 
ATOM     33  C   UNL     1      -0.213  16.626  19.537  0.00  0.00    +0.000 A 
ATOM     34  C   UNL     1      -1.640  16.622  20.018  0.00  0.00    +0.000 C 
ATOM     35  C   UNL     1       0.435  15.468  19.044  0.00  0.00    +0.000 A 
ENDBRANCH  24  35
ENDBRANCH   1  25
TORSDOF 5
ENDMDL
MODEL 6
REMARK VINA RESULT:      -8.1      1.406      1.739
REMARK  Name = 
REMARK  7 active torsions:
REMARK  status: ('A' for Active; 'I' for Inactive)
REMARK    1  A    between atoms: C_1  and  C_2
REMARK    2  A    between atoms: C_6  and  C_7
REMARK    3  A    between atoms: C_8  and  N_9
REMARK    4  A    between atoms: C_10  and  C_12
REMARK    5  A    between atoms: C_12  and  C_13
REMARK    6  A    between atoms: C_12  and  N_19
REMARK    7  A    between atoms: C_22  and  C_23
REMARK                            x       y       z     vdW  Elec       q    Type
REMARK                         _______ _______ _______ _____ _____    ______ ____
ROOT
ATOM      1  C   UNL     1       0.846  11.811  18.592  0.00  0.00    +0.000 C 
ENDROOT
BRANCH   1   2
ATOM      2  N   UNL     1       0.926  10.597  19.446  0.00  0.00    +0.000 N 
ATOM      3  C   UNL     1       1.759   9.560  19.059  0.00  0.00    +0.000 A 
ATOM      4  O   UNL     1       2.605   9.687  18.183  0.00  0.00    +0.000 OA
ATOM      5  C   UNL     1       1.581   8.223  19.765  0.00  0.00    +0.000 A 
ATOM      6  N   UNL     1       0.862   8.089  20.836  0.00  0.00    +0.000 NA
ATOM      7  C   UNL     1       0.273   9.245  21.375  0.00  0.00    +0.000 A 
ATOM      8  C   UNL     1      -0.344   9.107  22.623  0.00  0.00    +0.000 A 
ATOM      9  C   UNL     1      -0.835  10.220  23.300  0.00  0.00    +0.000 A 
ATOM     10  C   UNL     1      -0.708  11.480  22.725  0.00  0.00    +0.000 A 
ATOM     11  C   UNL     1      -0.150  11.625  21.445  0.00  0.00    +0.000 A 
ATOM     12  C   UNL     1       0.323  10.513  20.746  0.00  0.00    +0.000 A 
BRANCH   5  13
ATOM     13  C   UNL     1       2.279   7.099  19.190  0.00  0.00    +0.000 A 
ATOM     14  C   UNL     1       2.349   6.629  17.895  0.00  0.00    +0.000 A 
ATOM     15  C   UNL     1       3.091   5.421  17.943  0.00  0.00    +0.000 A 
ATOM     16  C   UNL     1       3.466   5.252  19.254  0.00  0.00    +0.000 A 
ATOM     17  O   UNL     1       3.007   6.279  20.003  0.00  0.00    +0.000 OA
ENDBRANCH   5  13
ENDBRANCH   1   2
BRANCH   1  18
ATOM     18  C   UNL     1       1.787  12.984  18.964  0.00  0.00    +0.000 A 
ATOM     19  C   UNL     1       1.623  13.815  20.083  0.00  0.00    +0.000 A 
ATOM     20  C   UNL     1       2.460  14.910  20.260  0.00  0.00    +0.000 A 
ATOM     21  N   UNL     1       3.491  15.204  19.449  0.00  0.00    +0.000 NA
ATOM     22  C   UNL     1       3.690  14.369  18.411  0.00  0.00    +0.000 A 
ATOM     23  C   UNL     1       2.887  13.268  18.135  0.00  0.00    +0.000 A 
ENDBRANCH   1  18
BRANCH   1  25
ATOM     24  N   UNL     1      -1.585  11.274  18.539  0.00  0.00    +0.000 N 
ATOM     25  C   UNL     1      -0.637  12.286  18.428  0.00  0.00    +0.000 C 
ATOM     26  O   UNL     1      -0.891  13.467  18.187  0.00  0.00    +0.000 OA
ATOM     27  H   UNL     1      -1.210  10.334  18.400  0.00  0.00    +0.000 HD
BRANCH  24  35
ATOM     28  C   UNL     1      -2.569  10.456  15.863  0.00  0.00    +0.000 C 
ATOM     29  C   UNL     1      -3.438  11.048  16.938  0.00  0.00    +0.000 A 
ATOM     30  C   UNL     1      -4.789  11.289  16.634  0.00  0.00    +0.000 A 
ATOM     31  C   UNL     1      -5.630  11.923  17.545  0.00  0.00    +0.000 A 
ATOM     32  C   UNL     1      -5.135  12.323  18.780  0.00  0.00    +0.000 A 
ATOM     33  C   UNL     1      -3.798  12.082  19.127  0.00  0.00    +0.000 A 
ATOM     34  C   UNL     1      -3.346  12.499  20.502  0.00  0.00    +0.000 C 
ATOM     35  C   UNL     1      -2.948  11.425  18.205  0.00  0.00    +0.000 A 
ENDBRANCH  24  35
ENDBRANCH   1  25
TORSDOF 5
ENDMDL
MODEL 7
REMARK VINA RESULT:      -8.1      2.983      7.739
REMARK  Name = 
REMARK  7 active torsions:
REMARK  status: ('A' for Active; 'I' for Inactive)
REMARK    1  A    between atoms: C_1  and  C_2
REMARK    2  A    between atoms: C_6  and  C_7
REMARK    3  A    between atoms: C_8  and  N_9
REMARK    4  A    between atoms: C_10  and  C_12
REMARK    5  A    between atoms: C_12  and  C_13
REMARK    6  A    between atoms: C_12  and  N_19
REMARK    7  A    between atoms: C_22  and  C_23
REMARK                            x       y       z     vdW  Elec       q    Type
REMARK                         _______ _______ _______ _____ _____    ______ ____
ROOT
ATOM      1  C   UNL     1      -0.756  11.930  19.949  0.00  0.00    +0.000 C 
ENDROOT
BRANCH   1   2
ATOM      2  N   UNL     1      -2.203  12.066  19.638  0.00  0.00    +0.000 N 
ATOM      3  C   UNL     1      -3.012  12.777  20.509  0.00  0.00    +0.000 A 
ATOM      4  O   UNL     1      -2.558  13.493  21.393  0.00  0.00    +0.000 OA
ATOM      5  C   UNL     1      -4.518  12.631  20.340  0.00  0.00    +0.000 A 
ATOM      6  N   UNL     1      -5.052  12.067  19.301  0.00  0.00    +0.000 NA
ATOM      7  C   UNL     1      -4.190  11.625  18.284  0.00  0.00    +0.000 A 
ATOM      8  C   UNL     1      -4.794  11.187  17.100  0.00  0.00    +0.000 A 
ATOM      9  C   UNL     1      -4.024  10.861  15.988  0.00  0.00    +0.000 A 
ATOM     10  C   UNL     1      -2.639  10.971  16.059  0.00  0.00    +0.000 A 
ATOM     11  C   UNL     1      -2.017  11.346  17.259  0.00  0.00    +0.000 A 
ATOM     12  C   UNL     1      -2.777  11.653  18.389  0.00  0.00    +0.000 A 
BRANCH   5  13
ATOM     13  C   UNL     1      -5.335  13.176  21.395  0.00  0.00    +0.000 A 
ATOM     14  C   UNL     1      -5.966  14.397  21.527  0.00  0.00    +0.000 A 
ATOM     15  C   UNL     1      -6.532  14.420  22.828  0.00  0.00    +0.000 A 
ATOM     16  C   UNL     1      -6.251  13.198  23.391  0.00  0.00    +0.000 A 
ATOM     17  O   UNL     1      -5.559  12.434  22.519  0.00  0.00    +0.000 OA
ENDBRANCH   5  13
ENDBRANCH   1   2
BRANCH   1  18
ATOM     18  C   UNL     1      -0.375  10.893  21.035  0.00  0.00    +0.000 A 
ATOM     19  C   UNL     1      -0.886  10.881  22.342  0.00  0.00    +0.000 A 
ATOM     20  C   UNL     1      -0.389   9.974  23.271  0.00  0.00    +0.000 A 
ATOM     21  N   UNL     1       0.526   9.032  22.983  0.00  0.00    +0.000 NA
ATOM     22  C   UNL     1       0.969   9.000  21.711  0.00  0.00    +0.000 A 
ATOM     23  C   UNL     1       0.555   9.885  20.722  0.00  0.00    +0.000 A 
ENDBRANCH   1  18
BRANCH   1  25
ATOM     24  N   UNL     1      -0.299  14.266  19.219  0.00  0.00    +0.000 N 
ATOM     25  C   UNL     1      -0.107  13.327  20.227  0.00  0.00    +0.000 C 
ATOM     26  O   UNL     1       0.543  13.519  21.256  0.00  0.00    +0.000 OA
ATOM     27  H   UNL     1      -0.553  13.863  18.316  0.00  0.00    +0.000 HD
BRANCH  24  35
ATOM     28  C   UNL     1      -1.684  16.777  19.981  0.00  0.00    +0.000 C 
ATOM     29  C   UNL     1      -0.260  16.709  19.500  0.00  0.00    +0.000 A 
ATOM     30  C   UNL     1       0.439  17.918  19.340  0.00  0.00    +0.000 A 
ATOM     31  C   UNL     1       1.726  17.941  18.808  0.00  0.00    +0.000 A 
ATOM     32  C   UNL     1       2.339  16.752  18.432  0.00  0.00    +0.000 A 
ATOM     33  C   UNL     1       1.681  15.525  18.595  0.00  0.00    +0.000 A 
ATOM     34  C   UNL     1       2.428  14.275  18.211  0.00  0.00    +0.000 C 
ATOM     35  C   UNL     1       0.378  15.503  19.148  0.00  0.00    +0.000 A 
ENDBRANCH  24  35
ENDBRANCH   1  25
TORSDOF 5
ENDMDL
MODEL 8
REMARK VINA RESULT:      -8.1      3.070      7.805
REMARK  Name = 
REMARK  7 active torsions:
REMARK  status: ('A' for Active; 'I' for Inactive)
REMARK    1  A    between atoms: C_1  and  C_2
REMARK    2  A    between atoms: C_6  and  C_7
REMARK    3  A    between atoms: C_8  and  N_9
REMARK    4  A    between atoms: C_10  and  C_12
REMARK    5  A    between atoms: C_12  and  C_13
REMARK    6  A    between atoms: C_12  and  N_19
REMARK    7  A    between atoms: C_22  and  C_23
REMARK                            x       y       z     vdW  Elec       q    Type
REMARK                         _______ _______ _______ _____ _____    ______ ____
ROOT
ATOM      1  C   UNL     1      -0.601  11.774  19.975  0.00  0.00    +0.000 C 
ENDROOT
BRANCH   1   2
ATOM      2  N   UNL     1      -2.040  12.015  19.690  0.00  0.00    +0.000 N 
ATOM      3  C   UNL     1      -2.761  12.842  20.535  0.00  0.00    +0.000 A 
ATOM      4  O   UNL     1      -2.224  13.568  21.362  0.00  0.00    +0.000 OA
ATOM      5  C   UNL     1      -4.278  12.814  20.410  0.00  0.00    +0.000 A 
ATOM      6  N   UNL     1      -4.887  12.238  19.420  0.00  0.00    +0.000 NA
ATOM      7  C   UNL     1      -4.094  11.666  18.412  0.00  0.00    +0.000 A 
ATOM      8  C   UNL     1      -4.766  11.212  17.271  0.00  0.00    +0.000 A 
ATOM      9  C   UNL     1      -4.058  10.756  16.164  0.00  0.00    +0.000 A 
ATOM     10  C   UNL     1      -2.667  10.751  16.196  0.00  0.00    +0.000 A 
ATOM     11  C   UNL     1      -1.982  11.142  17.356  0.00  0.00    +0.000 A 
ATOM     12  C   UNL     1      -2.682  11.579  18.483  0.00  0.00    +0.000 A 
BRANCH   5  13
ATOM     13  C   UNL     1      -5.017  13.489  21.449  0.00  0.00    +0.000 A 
ATOM     14  C   UNL     1      -5.451  13.065  22.688  0.00  0.00    +0.000 A 
ATOM     15  C   UNL     1      -6.229  14.121  23.227  0.00  0.00    +0.000 A 
ATOM     16  C   UNL     1      -6.186  15.140  22.305  0.00  0.00    +0.000 A 
ATOM     17  O   UNL     1      -5.429  14.775  21.247  0.00  0.00    +0.000 OA
ENDBRANCH   5  13
ENDBRANCH   1   2
BRANCH   1  18
ATOM     18  C   UNL     1      -0.276  10.866  21.188  0.00  0.00    +0.000 A 
ATOM     19  C   UNL     1      -1.015  10.833  22.380  0.00  0.00    +0.000 A 
ATOM     20  C   UNL     1      -0.570  10.065  23.450  0.00  0.00    +0.000 A 
ATOM     21  N   UNL     1       0.516   9.273  23.402  0.00  0.00    +0.000 NA
ATOM     22  C   UNL     1       1.189   9.253  22.235  0.00  0.00    +0.000 A 
ATOM     23  C   UNL     1       0.838  10.011  21.123  0.00  0.00    +0.000 A 
ENDBRANCH   1  18
BRANCH   1  25
ATOM     24  N   UNL     1       0.289  13.787  18.812  0.00  0.00    +0.000 N 
ATOM     25  C   UNL     1       0.194  13.122  20.030  0.00  0.00    +0.000 C 
ATOM     26  O   UNL     1       0.706  13.502  21.083  0.00  0.00    +0.000 OA
ATOM     27  H   UNL     1       0.116  13.195  17.998  0.00  0.00    +0.000 HD
BRANCH  24  35
ATOM     28  C   UNL     1      -0.791  16.550  18.854  0.00  0.00    +0.000 C 
ATOM     29  C   UNL     1       0.649  16.209  18.585  0.00  0.00    +0.000 A 
ATOM     30  C   UNL     1       1.527  17.262  18.270  0.00  0.00    +0.000 A 
ATOM     31  C   UNL     1       2.850  17.014  17.915  0.00  0.00    +0.000 A 
ATOM     32  C   UNL     1       3.321  15.707  17.875  0.00  0.00    +0.000 A 
ATOM     33  C   UNL     1       2.482  14.634  18.201  0.00  0.00    +0.000 A 
ATOM     34  C   UNL     1       3.077  13.250  18.182  0.00  0.00    +0.000 C 
ATOM     35  C   UNL     1       1.140  14.889  18.575  0.00  0.00    +0.000 A 
ENDBRANCH  24  35
ENDBRANCH   1  25
TORSDOF 5
ENDMDL
MODEL 9
REMARK VINA RESULT:      -8.1      2.342      5.506
REMARK  Name = 
REMARK  7 active torsions:
REMARK  status: ('A' for Active; 'I' for Inactive)
REMARK    1  A    between atoms: C_1  and  C_2
REMARK    2  A    between atoms: C_6  and  C_7
REMARK    3  A    between atoms: C_8  and  N_9
REMARK    4  A    between atoms: C_10  and  C_12
REMARK    5  A    between atoms: C_12  and  C_13
REMARK    6  A    between atoms: C_12  and  N_19
REMARK    7  A    between atoms: C_22  and  C_23
REMARK                            x       y       z     vdW  Elec       q    Type
REMARK                         _______ _______ _______ _____ _____    ______ ____
ROOT
ATOM      1  C   UNL     1      -0.097  12.366  21.459  0.00  0.00    +0.000 C 
ENDROOT
BRANCH   1   2
ATOM      2  N   UNL     1      -0.282  11.405  20.339  0.00  0.00    +0.000 N 
ATOM      3  C   UNL     1       0.586  10.333  20.227  0.00  0.00    +0.000 A 
ATOM      4  O   UNL     1       1.347  10.003  21.129  0.00  0.00    +0.000 OA
ATOM      5  C   UNL     1       0.576   9.561  18.914  0.00  0.00    +0.000 A 
ATOM      6  N   UNL     1      -0.347   9.724  18.016  0.00  0.00    +0.000 NA
ATOM      7  C   UNL     1      -1.392  10.616  18.310  0.00  0.00    +0.000 A 
ATOM      8  C   UNL     1      -2.463  10.639  17.410  0.00  0.00    +0.000 A 
ATOM      9  C   UNL     1      -3.604  11.386  17.683  0.00  0.00    +0.000 A 
ATOM     10  C   UNL     1      -3.676  12.118  18.865  0.00  0.00    +0.000 A 
ATOM     11  C   UNL     1      -2.583  12.155  19.745  0.00  0.00    +0.000 A 
ATOM     12  C   UNL     1      -1.423  11.429  19.469  0.00  0.00    +0.000 A 
BRANCH   5  13
ATOM     13  C   UNL     1       1.643   8.611  18.723  0.00  0.00    +0.000 A 
ATOM     14  C   UNL     1       2.584   8.479  17.722  0.00  0.00    +0.000 A 
ATOM     15  C   UNL     1       3.307   7.291  18.001  0.00  0.00    +0.000 A 
ATOM     16  C   UNL     1       2.794   6.796  19.177  0.00  0.00    +0.000 A 
ATOM     17  O   UNL     1       1.813   7.607  19.632  0.00  0.00    +0.000 OA
ENDBRANCH   5  13
ENDBRANCH   1   2
BRANCH   1  18
ATOM     18  C   UNL     1      -1.373  12.788  22.229  0.00  0.00    +0.000 A 
ATOM     19  C   UNL     1      -1.899  14.089  22.250  0.00  0.00    +0.000 A 
ATOM     20  C   UNL     1      -2.984  14.384  23.066  0.00  0.00    +0.000 A 
ATOM     21  N   UNL     1      -3.631  13.470  23.812  0.00  0.00    +0.000 NA
ATOM     22  C   UNL     1      -3.168  12.207  23.741  0.00  0.00    +0.000 A 
ATOM     23  C   UNL     1      -2.070  11.823  22.978  0.00  0.00    +0.000 A 
ENDBRANCH   1  18
BRANCH   1  25
ATOM     24  N   UNL     1       0.510  14.013  19.693  0.00  0.00    +0.000 N 
ATOM     25  C   UNL     1       0.743  13.606  21.002  0.00  0.00    +0.000 C 
ATOM     26  O   UNL     1       1.557  14.124  21.768  0.00  0.00    +0.000 OA
ATOM     27  H   UNL     1       0.080  13.298  19.104  0.00  0.00    +0.000 HD
BRANCH  24  35
ATOM     28  C   UNL     1       2.934  13.129  18.228  0.00  0.00    +0.000 C 
ATOM     29  C   UNL     1       2.465  14.556  18.302  0.00  0.00    +0.000 A 
ATOM     30  C   UNL     1       3.259  15.543  17.694  0.00  0.00    +0.000 A 
ATOM     31  C   UNL     1       2.940  16.894  17.803  0.00  0.00    +0.000 A 
ATOM     32  C   UNL     1       1.815  17.281  18.521  0.00  0.00    +0.000 A 
ATOM     33  C   UNL     1       0.988  16.325  19.126  0.00  0.00    +0.000 A 
ATOM     34  C   UNL     1      -0.240  16.818  19.845  0.00  0.00    +0.000 C 
ATOM     35  C   UNL     1       1.307  14.951  19.001  0.00  0.00    +0.000 A 
ENDBRANCH  24  35
ENDBRANCH   1  25
TORSDOF 5
ENDMDL
