MODEL 1
REMARK VINA RESULT:      -6.2      0.000      0.000
REMARK  Name = 
REMARK  5 active torsions:
REMARK  status: ('A' for Active; 'I' for Inactive)
REMARK    1  A    between atoms: C_1  and  C_2
REMARK    2  A    between atoms: C_7  and  O_8
REMARK    3  A    between atoms: O_8  and  C_9
REMARK    4  A    between atoms: C_9  and  C_10
REMARK    5  A    between atoms: C_10  and  N_11
REMARK                            x       y       z     vdW  Elec       q    Type
REMARK                         _______ _______ _______ _____ _____    ______ ____
ROOT
ATOM      1  O   UNL     1       4.369   3.254  18.596  0.00  0.00    +0.000 OA
ENDROOT
BRANCH   1   8
ATOM      2  C   UNL     1       1.491   4.209  17.700  0.00  0.00    +0.000 C 
ATOM      3  C   UNL     1       1.925   3.636  19.021  0.00  0.00    +0.000 A 
ATOM      4  C   UNL     1       0.920   3.539  20.012  0.00  0.00    +0.000 A 
ATOM      5  C   UNL     1       1.183   3.021  21.279  0.00  0.00    +0.000 A 
ATOM      6  C   UNL     1       2.460   2.578  21.583  0.00  0.00    +0.000 A 
ATOM      7  C   UNL     1       3.467   2.673  20.622  0.00  0.00    +0.000 A 
ATOM      8  C   UNL     1       3.222   3.206  19.342  0.00  0.00    +0.000 A 
ENDBRANCH   1   8
BRANCH   1   9
ATOM      9  C   UNL     1       5.347   4.255  18.840  0.00  0.00    +0.000 C 
BRANCH   9  10
ATOM     10  C   UNL     1       5.036   5.549  18.060  0.00  0.00    +0.000 C 
BRANCH  10  11
ATOM     11  N   UNL     1       6.040   5.935  17.043  0.00  0.00    +0.000 NA
ATOM     12  C   UNL     1       5.462   6.138  15.703  0.00  0.00    +0.000 C 
ATOM     13  C   UNL     1       5.326   4.740  15.132  0.00  0.00    +0.000 C 
ATOM     14  C   UNL     1       6.593   4.060  15.613  0.00  0.00    +0.000 C 
ATOM     15  C   UNL     1       7.023   4.846  16.850  0.00  0.00    +0.000 C 
ENDBRANCH  10  11
ENDBRANCH   9  10
ENDBRANCH   1   9
TORSDOF 4
ENDMDL
MODEL 2
REMARK VINA RESULT:      -6.2      1.776      2.432
REMARK  Name = 
REMARK  5 active torsions:
REMARK  status: ('A' for Active; 'I' for Inactive)
REMARK    1  A    between atoms: C_1  and  C_2
REMARK    2  A    between atoms: C_7  and  O_8
REMARK    3  A    between atoms: O_8  and  C_9
REMARK    4  A    between atoms: C_9  and  C_10
REMARK    5  A    between atoms: C_10  and  N_11
REMARK                            x       y       z     vdW  Elec       q    Type
REMARK                         _______ _______ _______ _____ _____    ______ ____
ROOT
ATOM      1  O   UNL     1       3.257   4.617  17.207  0.00  0.00    +0.000 OA
ENDROOT
BRANCH   1   8
ATOM      2  C   UNL     1       2.481   6.438  19.672  0.00  0.00    +0.000 C 
ATOM      3  C   UNL     1       2.054   5.028  19.371  0.00  0.00    +0.000 A 
ATOM      4  C   UNL     1       1.219   4.417  20.335  0.00  0.00    +0.000 A 
ATOM      5  C   UNL     1       0.745   3.116  20.180  0.00  0.00    +0.000 A 
ATOM      6  C   UNL     1       1.089   2.395  19.048  0.00  0.00    +0.000 A 
ATOM      7  C   UNL     1       1.920   2.977  18.089  0.00  0.00    +0.000 A 
ATOM      8  C   UNL     1       2.419   4.286  18.238  0.00  0.00    +0.000 A 
ENDBRANCH   1   8
BRANCH   1   9
ATOM      9  C   UNL     1       4.341   3.767  16.858  0.00  0.00    +0.000 C 
BRANCH   9  10
ATOM     10  C   UNL     1       5.698   4.407  17.215  0.00  0.00    +0.000 C 
BRANCH  10  11
ATOM     11  N   UNL     1       5.628   5.607  18.078  0.00  0.00    +0.000 NA
ATOM     12  C   UNL     1       5.974   6.853  17.372  0.00  0.00    +0.000 C 
ATOM     13  C   UNL     1       7.490   6.873  17.354  0.00  0.00    +0.000 C 
ATOM     14  C   UNL     1       7.845   6.338  18.728  0.00  0.00    +0.000 C 
ATOM     15  C   UNL     1       6.631   5.519  19.163  0.00  0.00    +0.000 C 
ENDBRANCH  10  11
ENDBRANCH   9  10
ENDBRANCH   1   9
TORSDOF 4
ENDMDL
MODEL 3
REMARK VINA RESULT:      -6.1      1.887      2.445
REMARK  Name = 
REMARK  5 active torsions:
REMARK  status: ('A' for Active; 'I' for Inactive)
REMARK    1  A    between atoms: C_1  and  C_2
REMARK    2  A    between atoms: C_7  and  O_8
REMARK    3  A    between atoms: O_8  and  C_9
REMARK    4  A    between atoms: C_9  and  C_10
REMARK    5  A    between atoms: C_10  and  N_11
REMARK                            x       y       z     vdW  Elec       q    Type
REMARK                         _______ _______ _______ _____ _____    ______ ____
ROOT
ATOM      1  O   UNL     1       5.573   4.201  19.409  0.00  0.00    +0.000 OA
ENDROOT
BRANCH   1   8
ATOM      2  C   UNL     1       3.841   1.975  17.980  0.00  0.00    +0.000 C 
ATOM      3  C   UNL     1       3.475   3.400  18.287  0.00  0.00    +0.000 A 
ATOM      4  C   UNL     1       2.196   3.817  17.849  0.00  0.00    +0.000 A 
ATOM      5  C   UNL     1       1.728   5.111  18.072  0.00  0.00    +0.000 A 
ATOM      6  C   UNL     1       2.526   6.018  18.749  0.00  0.00    +0.000 A 
ATOM      7  C   UNL     1       3.795   5.629  19.181  0.00  0.00    +0.000 A 
ATOM      8  C   UNL     1       4.289   4.331  18.951  0.00  0.00    +0.000 A 
ENDBRANCH   1   8
BRANCH   1   9
ATOM      9  C   UNL     1       6.596   5.071  18.943  0.00  0.00    +0.000 C 
BRANCH   9  10
ATOM     10  C   UNL     1       7.233   4.545  17.641  0.00  0.00    +0.000 C 
BRANCH  10  11
ATOM     11  N   UNL     1       7.339   5.529  16.541  0.00  0.00    +0.000 NA
ATOM     12  C   UNL     1       6.239   6.509  16.529  0.00  0.00    +0.000 C 
ATOM     13  C   UNL     1       5.090   5.783  15.856  0.00  0.00    +0.000 C 
ATOM     14  C   UNL     1       5.787   5.006  14.756  0.00  0.00    +0.000 C 
ATOM     15  C   UNL     1       7.230   4.850  15.230  0.00  0.00    +0.000 C 
ENDBRANCH  10  11
ENDBRANCH   9  10
ENDBRANCH   1   9
TORSDOF 4
ENDMDL
MODEL 4
REMARK VINA RESULT:      -6.1      1.748      2.482
REMARK  Name = 
REMARK  5 active torsions:
REMARK  status: ('A' for Active; 'I' for Inactive)
REMARK    1  A    between atoms: C_1  and  C_2
REMARK    2  A    between atoms: C_7  and  O_8
REMARK    3  A    between atoms: O_8  and  C_9
REMARK    4  A    between atoms: C_9  and  C_10
REMARK    5  A    between atoms: C_10  and  N_11
REMARK                            x       y       z     vdW  Elec       q    Type
REMARK                         _______ _______ _______ _____ _____    ______ ____
ROOT
ATOM      1  O   UNL     1       3.400   4.814  17.502  0.00  0.00    +0.000 OA
ENDROOT
BRANCH   1   8
ATOM      2  C   UNL     1       2.237   6.213  20.088  0.00  0.00    +0.000 C 
ATOM      3  C   UNL     1       1.943   4.842  19.546  0.00  0.00    +0.000 A 
ATOM      4  C   UNL     1       1.050   4.054  20.310  0.00  0.00    +0.000 A 
ATOM      5  C   UNL     1       0.687   2.767  19.920  0.00  0.00    +0.000 A 
ATOM      6  C   UNL     1       1.201   2.238  18.748  0.00  0.00    +0.000 A 
ATOM      7  C   UNL     1       2.090   2.996  17.984  0.00  0.00    +0.000 A 
ATOM      8  C   UNL     1       2.479   4.293  18.371  0.00  0.00    +0.000 A 
ENDBRANCH   1   8
BRANCH   1   9
ATOM      9  C   UNL     1       4.654   4.173  17.311  0.00  0.00    +0.000 C 
BRANCH   9  10
ATOM     10  C   UNL     1       5.592   4.399  18.514  0.00  0.00    +0.000 C 
BRANCH  10  11
ATOM     11  N   UNL     1       7.033   4.484  18.190  0.00  0.00    +0.000 NA
ATOM     12  C   UNL     1       7.747   5.503  18.979  0.00  0.00    +0.000 C 
ATOM     13  C   UNL     1       7.445   6.812  18.274  0.00  0.00    +0.000 C 
ATOM     14  C   UNL     1       7.499   6.419  16.810  0.00  0.00    +0.000 C 
ATOM     15  C   UNL     1       7.221   4.918  16.788  0.00  0.00    +0.000 C 
ENDBRANCH  10  11
ENDBRANCH   9  10
ENDBRANCH   1   9
TORSDOF 4
ENDMDL
MODEL 5
REMARK VINA RESULT:      -6.0      1.248      1.446
REMARK  Name = 
REMARK  5 active torsions:
REMARK  status: ('A' for Active; 'I' for Inactive)
REMARK    1  A    between atoms: C_1  and  C_2
REMARK    2  A    between atoms: C_7  and  O_8
REMARK    3  A    between atoms: O_8  and  C_9
REMARK    4  A    between atoms: C_9  and  C_10
REMARK    5  A    between atoms: C_10  and  N_11
REMARK                            x       y       z     vdW  Elec       q    Type
REMARK                         _______ _______ _______ _____ _____    ______ ____
ROOT
ATOM      1  O   UNL     1       3.881   5.519  19.107  0.00  0.00    +0.000 OA
ENDROOT
BRANCH   1   8
ATOM      2  C   UNL     1       2.624   3.479  17.045  0.00  0.00    +0.000 C 
ATOM      3  C   UNL     1       2.339   3.628  18.514  0.00  0.00    +0.000 A 
ATOM      4  C   UNL     1       1.353   2.764  19.043  0.00  0.00    +0.000 A 
ATOM      5  C   UNL     1       0.996   2.793  20.390  0.00  0.00    +0.000 A 
ATOM      6  C   UNL     1       1.625   3.683  21.244  0.00  0.00    +0.000 A 
ATOM      7  C   UNL     1       2.595   4.550  20.739  0.00  0.00    +0.000 A 
ATOM      8  C   UNL     1       2.958   4.544  19.379  0.00  0.00    +0.000 A 
ENDBRANCH   1   8
BRANCH   1   9
ATOM      9  C   UNL     1       5.261   5.295  19.361  0.00  0.00    +0.000 C 
BRANCH   9  10
ATOM     10  C   UNL     1       5.918   4.483  18.227  0.00  0.00    +0.000 C 
BRANCH  10  11
ATOM     11  N   UNL     1       6.781   5.256  17.307  0.00  0.00    +0.000 NA
ATOM     12  C   UNL     1       6.213   6.564  16.937  0.00  0.00    +0.000 C 
ATOM     13  C   UNL     1       5.215   6.249  15.840  0.00  0.00    +0.000 C 
ATOM     14  C   UNL     1       5.928   5.174  15.042  0.00  0.00    +0.000 C 
ATOM     15  C   UNL     1       6.923   4.547  16.016  0.00  0.00    +0.000 C 
ENDBRANCH  10  11
ENDBRANCH   9  10
ENDBRANCH   1   9
TORSDOF 4
ENDMDL
MODEL 6
REMARK VINA RESULT:      -6.0      2.145      5.561
REMARK  Name = 
REMARK  5 active torsions:
REMARK  status: ('A' for Active; 'I' for Inactive)
REMARK    1  A    between atoms: C_1  and  C_2
REMARK    2  A    between atoms: C_7  and  O_8
REMARK    3  A    between atoms: O_8  and  C_9
REMARK    4  A    between atoms: C_9  and  C_10
REMARK    5  A    between atoms: C_10  and  N_11
REMARK                            x       y       z     vdW  Elec       q    Type
REMARK                         _______ _______ _______ _____ _____    ______ ____
ROOT
ATOM      1  O   UNL     1       4.238   4.829  18.348  0.00  0.00    +0.000 OA
ENDROOT
BRANCH   1   8
ATOM      2  C   UNL     1       5.022   6.794  15.999  0.00  0.00    +0.000 C 
ATOM      3  C   UNL     1       5.826   6.403  17.207  0.00  0.00    +0.000 A 
ATOM      4  C   UNL     1       7.124   6.961  17.293  0.00  0.00    +0.000 A 
ATOM      5  C   UNL     1       7.973   6.687  18.364  0.00  0.00    +0.000 A 
ATOM      6  C   UNL     1       7.541   5.853  19.381  0.00  0.00    +0.000 A 
ATOM      7  C   UNL     1       6.268   5.285  19.311  0.00  0.00    +0.000 A 
ATOM      8  C   UNL     1       5.402   5.540  18.230  0.00  0.00    +0.000 A 
ENDBRANCH   1   8
BRANCH   1   9
ATOM      9  C   UNL     1       4.091   3.574  17.697  0.00  0.00    +0.000 C 
BRANCH   9  10
ATOM     10  C   UNL     1       2.605   3.215  17.495  0.00  0.00    +0.000 C 
BRANCH  10  11
ATOM     11  N   UNL     1       2.074   2.169  18.397  0.00  0.00    +0.000 NA
ATOM     12  C   UNL     1       0.699   2.435  18.852  0.00  0.00    +0.000 C 
ATOM     13  C   UNL     1       0.859   3.426  19.989  0.00  0.00    +0.000 C 
ATOM     14  C   UNL     1       2.097   2.916  20.701  0.00  0.00    +0.000 C 
ATOM     15  C   UNL     1       2.863   2.119  19.648  0.00  0.00    +0.000 C 
ENDBRANCH  10  11
ENDBRANCH   9  10
ENDBRANCH   1   9
TORSDOF 4
ENDMDL
MODEL 7
REMARK VINA RESULT:      -6.0      2.000      5.367
REMARK  Name = 
REMARK  5 active torsions:
REMARK  status: ('A' for Active; 'I' for Inactive)
REMARK    1  A    between atoms: C_1  and  C_2
REMARK    2  A    between atoms: C_7  and  O_8
REMARK    3  A    between atoms: O_8  and  C_9
REMARK    4  A    between atoms: C_9  and  C_10
REMARK    5  A    between atoms: C_10  and  N_11
REMARK                            x       y       z     vdW  Elec       q    Type
REMARK                         _______ _______ _______ _____ _____    ______ ____
ROOT
ATOM      1  O   UNL     1       4.468   7.033  17.757  0.00  0.00    +0.000 OA
ENDROOT
BRANCH   1   8
ATOM      2  C   UNL     1       6.815   5.508  19.228  0.00  0.00    +0.000 C 
ATOM      3  C   UNL     1       6.410   5.443  17.782  0.00  0.00    +0.000 A 
ATOM      4  C   UNL     1       7.204   4.613  16.955  0.00  0.00    +0.000 A 
ATOM      5  C   UNL     1       6.937   4.457  15.596  0.00  0.00    +0.000 A 
ATOM      6  C   UNL     1       5.860   5.121  15.032  0.00  0.00    +0.000 A 
ATOM      7  C   UNL     1       5.070   5.951  15.828  0.00  0.00    +0.000 A 
ATOM      8  C   UNL     1       5.334   6.132  17.200  0.00  0.00    +0.000 A 
ENDBRANCH   1   8
BRANCH   1   9
ATOM      9  C   UNL     1       3.136   6.652  18.073  0.00  0.00    +0.000 C 
BRANCH   9  10
ATOM     10  C   UNL     1       3.090   5.740  19.315  0.00  0.00    +0.000 C 
BRANCH  10  11
ATOM     11  N   UNL     1       2.261   4.521  19.180  0.00  0.00    +0.000 NA
ATOM     12  C   UNL     1       2.945   3.299  19.637  0.00  0.00    +0.000 C 
ATOM     13  C   UNL     1       3.834   2.902  18.475  0.00  0.00    +0.000 C 
ATOM     14  C   UNL     1       2.962   3.203  17.272  0.00  0.00    +0.000 C 
ATOM     15  C   UNL     1       1.965   4.255  17.755  0.00  0.00    +0.000 C 
ENDBRANCH  10  11
ENDBRANCH   9  10
ENDBRANCH   1   9
TORSDOF 4
ENDMDL
MODEL 8
REMARK VINA RESULT:      -6.0      1.486      2.172
REMARK  Name = 
REMARK  5 active torsions:
REMARK  status: ('A' for Active; 'I' for Inactive)
REMARK    1  A    between atoms: C_1  and  C_2
REMARK    2  A    between atoms: C_7  and  O_8
REMARK    3  A    between atoms: O_8  and  C_9
REMARK    4  A    between atoms: C_9  and  C_10
REMARK    5  A    between atoms: C_10  and  N_11
REMARK                            x       y       z     vdW  Elec       q    Type
REMARK                         _______ _______ _______ _____ _____    ______ ____
ROOT
ATOM      1  O   UNL     1       4.204   5.026  18.798  0.00  0.00    +0.000 OA
ENDROOT
BRANCH   1   8
ATOM      2  C   UNL     1       3.529   2.088  17.846  0.00  0.00    +0.000 C 
ATOM      3  C   UNL     1       2.758   2.974  18.784  0.00  0.00    +0.000 A 
ATOM      4  C   UNL     1       1.549   2.438  19.287  0.00  0.00    +0.000 A 
ATOM      5  C   UNL     1       0.740   3.150  20.170  0.00  0.00    +0.000 A 
ATOM      6  C   UNL     1       1.126   4.415  20.580  0.00  0.00    +0.000 A 
ATOM      7  C   UNL     1       2.311   4.965  20.089  0.00  0.00    +0.000 A 
ATOM      8  C   UNL     1       3.133   4.266  19.185  0.00  0.00    +0.000 A 
ENDBRANCH   1   8
BRANCH   1   9
ATOM      9  C   UNL     1       4.101   5.901  17.683  0.00  0.00    +0.000 C 
BRANCH   9  10
ATOM     10  C   UNL     1       4.840   5.337  16.453  0.00  0.00    +0.000 C 
BRANCH  10  11
ATOM     11  N   UNL     1       6.166   5.934  16.178  0.00  0.00    +0.000 NA
ATOM     12  C   UNL     1       7.242   4.935  16.066  0.00  0.00    +0.000 C 
ATOM     13  C   UNL     1       7.613   4.612  17.500  0.00  0.00    +0.000 C 
ATOM     14  C   UNL     1       7.535   5.967  18.176  0.00  0.00    +0.000 C 
ATOM     15  C   UNL     1       6.588   6.793  17.307  0.00  0.00    +0.000 C 
ENDBRANCH  10  11
ENDBRANCH   9  10
ENDBRANCH   1   9
TORSDOF 4
ENDMDL
MODEL 9
REMARK VINA RESULT:      -6.0      1.610      2.316
REMARK  Name = 
REMARK  5 active torsions:
REMARK  status: ('A' for Active; 'I' for Inactive)
REMARK    1  A    between atoms: C_1  and  C_2
REMARK    2  A    between atoms: C_7  and  O_8
REMARK    3  A    between atoms: O_8  and  C_9
REMARK    4  A    between atoms: C_9  and  C_10
REMARK    5  A    between atoms: C_10  and  N_11
REMARK                            x       y       z     vdW  Elec       q    Type
REMARK                         _______ _______ _______ _____ _____    ______ ____
ROOT
ATOM      1  O   UNL     1       4.160   5.072  18.732  0.00  0.00    +0.000 OA
ENDROOT
BRANCH   1   8
ATOM      2  C   UNL     1       1.779   5.817  20.674  0.00  0.00    +0.000 C 
ATOM      3  C   UNL     1       1.928   4.613  19.786  0.00  0.00    +0.000 A 
ATOM      4  C   UNL     1       0.880   3.664  19.849  0.00  0.00    +0.000 A 
ATOM      5  C   UNL     1       0.889   2.506  19.075  0.00  0.00    +0.000 A 
ATOM      6  C   UNL     1       1.945   2.271  18.210  0.00  0.00    +0.000 A 
ATOM      7  C   UNL     1       2.994   3.190  18.140  0.00  0.00    +0.000 A 
ATOM      8  C   UNL     1       3.008   4.359  18.925  0.00  0.00    +0.000 A 
ENDBRANCH   1   8
BRANCH   1   9
ATOM      9  C   UNL     1       4.192   6.152  17.809  0.00  0.00    +0.000 C 
BRANCH   9  10
ATOM     10  C   UNL     1       4.836   5.731  16.472  0.00  0.00    +0.000 C 
BRANCH  10  11
ATOM     11  N   UNL     1       6.214   6.220  16.246  0.00  0.00    +0.000 NA
ATOM     12  C   UNL     1       7.181   5.139  15.993  0.00  0.00    +0.000 C 
ATOM     13  C   UNL     1       7.526   4.606  17.370  0.00  0.00    +0.000 C 
ATOM     14  C   UNL     1       7.591   5.869  18.207  0.00  0.00    +0.000 C 
ATOM     15  C   UNL     1       6.729   6.886  17.463  0.00  0.00    +0.000 C 
ENDBRANCH  10  11
ENDBRANCH   9  10
ENDBRANCH   1   9
TORSDOF 4
ENDMDL
