MODEL 1
REMARK VINA RESULT:      -7.3      0.000      0.000
REMARK  Name = 
REMARK  7 active torsions:
REMARK  status: ('A' for Active; 'I' for Inactive)
REMARK    1  A    between atoms: C_1  and  C_2
REMARK    2  A    between atoms: C_5  and  S_6
REMARK    3  A    between atoms: S_6  and  C_9
REMARK    4  A    between atoms: C_9  and  C_10
REMARK    5  A    between atoms: C_10  and  C_11
REMARK    6  A    between atoms: N_13  and  C_14
REMARK    7  A    between atoms: C_14  and  C_15
REMARK                            x       y       z     vdW  Elec       q    Type
REMARK                         _______ _______ _______ _____ _____    ______ ____
ROOT
ATOM      1  C   UNL     1       2.522   1.691  18.666  0.00  0.00    +0.000 C 
ENDROOT
BRANCH   1   2
ATOM      2  C   UNL     1       2.973   2.596  17.548  0.00  0.00    +0.000 C 
ATOM      3  O   UNL     1       2.176   3.129  16.781  0.00  0.00    +0.000 OA
ATOM      4  N   UNL     1       4.335   2.800  17.491  0.00  0.00    +0.000 N 
ATOM      5  H   UNL     1       4.951   2.148  17.962  0.00  0.00    +0.000 HD
BRANCH   4   6
ATOM      6  C   UNL     1       4.908   3.627  16.452  0.00  0.00    +0.000 C 
BRANCH   6   7
ATOM      7  C   UNL     1       5.687   4.800  17.003  0.00  0.00    +0.000 A 
ATOM      8  C   UNL     1       6.720   4.599  17.933  0.00  0.00    +0.000 A 
ATOM      9  C   UNL     1       7.533   5.665  18.334  0.00  0.00    +0.000 A 
ATOM     10  C   UNL     1       7.318   6.936  17.809  0.00  0.00    +0.000 A 
ATOM     11 CL   UNL     1       8.364   8.231  18.247  0.00  0.00    +0.000 Cl
ATOM     12  C   UNL     1       6.276   7.160  16.913  0.00  0.00    +0.000 A 
ATOM     13  C   UNL     1       5.462   6.097  16.514  0.00  0.00    +0.000 A 
ENDBRANCH   6   7
ENDBRANCH   4   6
ENDBRANCH   1   2
BRANCH   1  14
ATOM     14  C   UNL     1       1.630   2.446  19.644  0.00  0.00    +0.000 C 
BRANCH  14  15
ATOM     15  S   UNL     1       2.631   3.354  20.801  0.00  0.00    +0.000 S 
ATOM     16  O   UNL     1       4.019   3.009  20.563  0.00  0.00    +0.000 OA
ATOM     17  O   UNL     1       2.044   3.187  22.118  0.00  0.00    +0.000 OA
BRANCH  15  22
ATOM     18  C   UNL     1       1.695   9.104  19.065  0.00  0.00    +0.000 C 
ATOM     19  C   UNL     1       1.961   7.695  19.511  0.00  0.00    +0.000 A 
ATOM     20  C   UNL     1       2.835   6.869  18.795  0.00  0.00    +0.000 A 
ATOM     21  C   UNL     1       3.061   5.552  19.205  0.00  0.00    +0.000 A 
ATOM     22  C   UNL     1       2.417   5.061  20.343  0.00  0.00    +0.000 A 
ATOM     23  C   UNL     1       1.530   5.867  21.058  0.00  0.00    +0.000 A 
ATOM     24  C   UNL     1       1.309   7.184  20.643  0.00  0.00    +0.000 A 
ENDBRANCH  15  22
ENDBRANCH  14  15
ENDBRANCH   1  14
TORSDOF 6
ENDMDL
MODEL 2
REMARK VINA RESULT:      -7.2      4.767      6.707
REMARK  Name = 
REMARK  7 active torsions:
REMARK  status: ('A' for Active; 'I' for Inactive)
REMARK    1  A    between atoms: C_1  and  C_2
REMARK    2  A    between atoms: C_5  and  S_6
REMARK    3  A    between atoms: S_6  and  C_9
REMARK    4  A    between atoms: C_9  and  C_10
REMARK    5  A    between atoms: C_10  and  C_11
REMARK    6  A    between atoms: N_13  and  C_14
REMARK    7  A    between atoms: C_14  and  C_15
REMARK                            x       y       z     vdW  Elec       q    Type
REMARK                         _______ _______ _______ _____ _____    ______ ____
ROOT
ATOM      1  C   UNL     1       6.961   7.481  17.172  0.00  0.00    +0.000 C 
ENDROOT
BRANCH   1   2
ATOM      2  C   UNL     1       7.981   8.047  18.127  0.00  0.00    +0.000 C 
ATOM      3  O   UNL     1       8.595   7.337  18.918  0.00  0.00    +0.000 OA
ATOM      4  N   UNL     1       8.187   9.404  18.006  0.00  0.00    +0.000 N 
ATOM      5  H   UNL     1       7.487   9.969  17.541  0.00  0.00    +0.000 HD
BRANCH   4   6
ATOM      6  C   UNL     1       9.121  10.083  18.877  0.00  0.00    +0.000 C 
BRANCH   6   7
ATOM      7  C   UNL     1       9.659  11.361  18.274  0.00  0.00    +0.000 A 
ATOM      8  C   UNL     1       8.848  12.502  18.176  0.00  0.00    +0.000 A 
ATOM      9  C   UNL     1       9.384  13.723  17.752  0.00  0.00    +0.000 A 
ATOM     10  C   UNL     1      10.734  13.809  17.422  0.00  0.00    +0.000 A 
ATOM     11 CL   UNL     1      11.410  15.326  16.969  0.00  0.00    +0.000 Cl
ATOM     12  C   UNL     1      11.545  12.678  17.479  0.00  0.00    +0.000 A 
ATOM     13  C   UNL     1      11.009  11.458  17.900  0.00  0.00    +0.000 A 
ENDBRANCH   6   7
ENDBRANCH   4   6
ENDBRANCH   1   2
BRANCH   1  14
ATOM     14  C   UNL     1       6.706   6.008  17.466  0.00  0.00    +0.000 C 
BRANCH  14  15
ATOM     15  S   UNL     1       5.731   5.289  16.164  0.00  0.00    +0.000 S 
ATOM     16  O   UNL     1       6.454   4.147  15.639  0.00  0.00    +0.000 OA
ATOM     17  O   UNL     1       5.310   6.363  15.283  0.00  0.00    +0.000 OA
BRANCH  15  22
ATOM     18  C   UNL     1       0.902   3.149  19.170  0.00  0.00    +0.000 C 
ATOM     19  C   UNL     1       2.074   3.674  18.393  0.00  0.00    +0.000 A 
ATOM     20  C   UNL     1       2.941   2.800  17.726  0.00  0.00    +0.000 A 
ATOM     21  C   UNL     1       4.043   3.295  17.022  0.00  0.00    +0.000 A 
ATOM     22  C   UNL     1       4.272   4.672  16.976  0.00  0.00    +0.000 A 
ATOM     23  C   UNL     1       3.426   5.555  17.650  0.00  0.00    +0.000 A 
ATOM     24  C   UNL     1       2.326   5.052  18.351  0.00  0.00    +0.000 A 
ENDBRANCH  15  22
ENDBRANCH  14  15
ENDBRANCH   1  14
TORSDOF 6
ENDMDL
MODEL 3
REMARK VINA RESULT:      -7.1      4.620      6.637
REMARK  Name = 
REMARK  7 active torsions:
REMARK  status: ('A' for Active; 'I' for Inactive)
REMARK    1  A    between atoms: C_1  and  C_2
REMARK    2  A    between atoms: C_5  and  S_6
REMARK    3  A    between atoms: S_6  and  C_9
REMARK    4  A    between atoms: C_9  and  C_10
REMARK    5  A    between atoms: C_10  and  C_11
REMARK    6  A    between atoms: N_13  and  C_14
REMARK    7  A    between atoms: C_14  and  C_15
REMARK                            x       y       z     vdW  Elec       q    Type
REMARK                         _______ _______ _______ _____ _____    ______ ____
ROOT
ATOM      1  C   UNL     1       7.276   7.156  16.919  0.00  0.00    +0.000 C 
ENDROOT
BRANCH   1   2
ATOM      2  C   UNL     1       8.045   7.824  18.031  0.00  0.00    +0.000 C 
ATOM      3  O   UNL     1       8.530   7.185  18.960  0.00  0.00    +0.000 OA
ATOM      4  N   UNL     1       8.187   9.188  17.890  0.00  0.00    +0.000 N 
ATOM      5  H   UNL     1       7.562   9.687  17.269  0.00  0.00    +0.000 HD
BRANCH   4   6
ATOM      6  C   UNL     1       8.883   9.959  18.897  0.00  0.00    +0.000 C 
BRANCH   6   7
ATOM      7  C   UNL     1       9.595  11.162  18.322  0.00  0.00    +0.000 A 
ATOM      8  C   UNL     1       8.874  12.302  17.933  0.00  0.00    +0.000 A 
ATOM      9  C   UNL     1       9.542  13.465  17.536  0.00  0.00    +0.000 A 
ATOM     10  C   UNL     1      10.934  13.496  17.525  0.00  0.00    +0.000 A 
ATOM     11 CL   UNL     1      11.755  14.949  17.106  0.00  0.00    +0.000 Cl
ATOM     12  C   UNL     1      11.664  12.363  17.874  0.00  0.00    +0.000 A 
ATOM     13  C   UNL     1      10.998  11.199  18.268  0.00  0.00    +0.000 A 
ENDBRANCH   6   7
ENDBRANCH   4   6
ENDBRANCH   1   2
BRANCH   1  14
ATOM     14  C   UNL     1       6.027   6.474  17.462  0.00  0.00    +0.000 C 
BRANCH  14  15
ATOM     15  S   UNL     1       5.622   5.062  16.459  0.00  0.00    +0.000 S 
ATOM     16  O   UNL     1       6.701   4.101  16.580  0.00  0.00    +0.000 OA
ATOM     17  O   UNL     1       5.212   5.550  15.155  0.00  0.00    +0.000 OA
BRANCH  15  22
ATOM     18  C   UNL     1       0.582   2.650  18.850  0.00  0.00    +0.000 C 
ATOM     19  C   UNL     1       1.841   3.252  18.296  0.00  0.00    +0.000 A 
ATOM     20  C   UNL     1       1.999   4.641  18.222  0.00  0.00    +0.000 A 
ATOM     21  C   UNL     1       3.165   5.194  17.686  0.00  0.00    +0.000 A 
ATOM     22  C   UNL     1       4.184   4.353  17.232  0.00  0.00    +0.000 A 
ATOM     23  C   UNL     1       4.034   2.966  17.284  0.00  0.00    +0.000 A 
ATOM     24  C   UNL     1       2.865   2.420  17.821  0.00  0.00    +0.000 A 
ENDBRANCH  15  22
ENDBRANCH  14  15
ENDBRANCH   1  14
TORSDOF 6
ENDMDL
MODEL 4
REMARK VINA RESULT:      -6.8      4.771      6.583
REMARK  Name = 
REMARK  7 active torsions:
REMARK  status: ('A' for Active; 'I' for Inactive)
REMARK    1  A    between atoms: C_1  and  C_2
REMARK    2  A    between atoms: C_5  and  S_6
REMARK    3  A    between atoms: S_6  and  C_9
REMARK    4  A    between atoms: C_9  and  C_10
REMARK    5  A    between atoms: C_10  and  C_11
REMARK    6  A    between atoms: N_13  and  C_14
REMARK    7  A    between atoms: C_14  and  C_15
REMARK                            x       y       z     vdW  Elec       q    Type
REMARK                         _______ _______ _______ _____ _____    ______ ____
ROOT
ATOM      1  C   UNL     1       7.102   7.536  17.090  0.00  0.00    +0.000 C 
ENDROOT
BRANCH   1   2
ATOM      2  C   UNL     1       8.047   7.992  18.173  0.00  0.00    +0.000 C 
ATOM      3  O   UNL     1       8.525   7.211  18.990  0.00  0.00    +0.000 OA
ATOM      4  N   UNL     1       8.352   9.336  18.137  0.00  0.00    +0.000 N 
ATOM      5  H   UNL     1       7.744   9.966  17.628  0.00  0.00    +0.000 HD
BRANCH   4   6
ATOM      6  C   UNL     1       9.229   9.914  19.132  0.00  0.00    +0.000 C 
BRANCH   6   7
ATOM      7  C   UNL     1       9.700  11.301  18.760  0.00  0.00    +0.000 A 
ATOM      8  C   UNL     1       9.387  12.404  19.569  0.00  0.00    +0.000 A 
ATOM      9  C   UNL     1       9.941  13.661  19.305  0.00  0.00    +0.000 A 
ATOM     10  C   UNL     1      10.808  13.824  18.228  0.00  0.00    +0.000 A 
ATOM     11 CL   UNL     1      11.545  15.353  17.945  0.00  0.00    +0.000 Cl
ATOM     12  C   UNL     1      11.101  12.748  17.393  0.00  0.00    +0.000 A 
ATOM     13  C   UNL     1      10.546  11.493  17.656  0.00  0.00    +0.000 A 
ENDBRANCH   6   7
ENDBRANCH   4   6
ENDBRANCH   1   2
BRANCH   1  14
ATOM     14  C   UNL     1       7.161   6.023  16.926  0.00  0.00    +0.000 C 
BRANCH  14  15
ATOM     15  S   UNL     1       5.710   5.448  16.072  0.00  0.00    +0.000 S 
ATOM     16  O   UNL     1       5.982   4.115  15.570  0.00  0.00    +0.000 OA
ATOM     17  O   UNL     1       5.282   6.502  15.171  0.00  0.00    +0.000 OA
BRANCH  15  22
ATOM     18  C   UNL     1       1.659   5.026  20.583  0.00  0.00    +0.000 C 
ATOM     19  C   UNL     1       2.634   5.111  19.445  0.00  0.00    +0.000 A 
ATOM     20  C   UNL     1       3.458   4.025  19.125  0.00  0.00    +0.000 A 
ATOM     21  C   UNL     1       4.379   4.119  18.077  0.00  0.00    +0.000 A 
ATOM     22  C   UNL     1       4.468   5.300  17.338  0.00  0.00    +0.000 A 
ATOM     23  C   UNL     1       3.664   6.397  17.656  0.00  0.00    +0.000 A 
ATOM     24  C   UNL     1       2.746   6.296  18.705  0.00  0.00    +0.000 A 
ENDBRANCH  15  22
ENDBRANCH  14  15
ENDBRANCH   1  14
TORSDOF 6
ENDMDL
MODEL 5
REMARK VINA RESULT:      -6.8      2.803      5.570
REMARK  Name = 
REMARK  7 active torsions:
REMARK  status: ('A' for Active; 'I' for Inactive)
REMARK    1  A    between atoms: C_1  and  C_2
REMARK    2  A    between atoms: C_5  and  S_6
REMARK    3  A    between atoms: S_6  and  C_9
REMARK    4  A    between atoms: C_9  and  C_10
REMARK    5  A    between atoms: C_10  and  C_11
REMARK    6  A    between atoms: N_13  and  C_14
REMARK    7  A    between atoms: C_14  and  C_15
REMARK                            x       y       z     vdW  Elec       q    Type
REMARK                         _______ _______ _______ _____ _____    ______ ____
ROOT
ATOM      1  C   UNL     1       1.364   3.818  19.602  0.00  0.00    +0.000 C 
ENDROOT
BRANCH   1   2
ATOM      2  C   UNL     1       1.933   5.155  20.006  0.00  0.00    +0.000 C 
ATOM      3  O   UNL     1       2.188   5.425  21.176  0.00  0.00    +0.000 OA
ATOM      4  N   UNL     1       2.175   6.015  18.956  0.00  0.00    +0.000 N 
ATOM      5  H   UNL     1       1.713   5.852  18.070  0.00  0.00    +0.000 HD
BRANCH   4   6
ATOM      6  C   UNL     1       2.698   7.341  19.202  0.00  0.00    +0.000 C 
BRANCH   6   7
ATOM      7  C   UNL     1       1.611   8.384  19.323  0.00  0.00    +0.000 A 
ATOM      8  C   UNL     1       1.067   8.709  20.575  0.00  0.00    +0.000 A 
ATOM      9  C   UNL     1       0.167   9.772  20.706  0.00  0.00    +0.000 A 
ATOM     10  C   UNL     1      -0.196  10.515  19.585  0.00  0.00    +0.000 A 
ATOM     11 CL   UNL     1      -1.247  11.866  19.758  0.00  0.00    +0.000 Cl
ATOM     12  C   UNL     1       0.307  10.184  18.330  0.00  0.00    +0.000 A 
ATOM     13  C   UNL     1       1.205   9.120  18.198  0.00  0.00    +0.000 A 
ENDBRANCH   6   7
ENDBRANCH   4   6
ENDBRANCH   1   2
BRANCH   1  14
ATOM     14  C   UNL     1       2.436   2.737  19.659  0.00  0.00    +0.000 C 
BRANCH  14  15
ATOM     15  S   UNL     1       3.134   2.488  18.041  0.00  0.00    +0.000 S 
ATOM     16  O   UNL     1       2.118   2.811  17.059  0.00  0.00    +0.000 OA
ATOM     17  O   UNL     1       3.780   1.188  18.035  0.00  0.00    +0.000 OA
BRANCH  15  22
ATOM     18  C   UNL     1       7.328   6.870  17.651  0.00  0.00    +0.000 C 
ATOM     19  C   UNL     1       6.317   5.762  17.730  0.00  0.00    +0.000 A 
ATOM     20  C   UNL     1       5.537   5.423  16.618  0.00  0.00    +0.000 A 
ATOM     21  C   UNL     1       4.584   4.404  16.705  0.00  0.00    +0.000 A 
ATOM     22  C   UNL     1       4.417   3.714  17.908  0.00  0.00    +0.000 A 
ATOM     23  C   UNL     1       5.176   4.052  19.030  0.00  0.00    +0.000 A 
ATOM     24  C   UNL     1       6.128   5.072  18.935  0.00  0.00    +0.000 A 
ENDBRANCH  15  22
ENDBRANCH  14  15
ENDBRANCH   1  14
TORSDOF 6
ENDMDL
MODEL 6
REMARK VINA RESULT:      -6.8      1.125      1.904
REMARK  Name = 
REMARK  7 active torsions:
REMARK  status: ('A' for Active; 'I' for Inactive)
REMARK    1  A    between atoms: C_1  and  C_2
REMARK    2  A    between atoms: C_5  and  S_6
REMARK    3  A    between atoms: S_6  and  C_9
REMARK    4  A    between atoms: C_9  and  C_10
REMARK    5  A    between atoms: C_10  and  C_11
REMARK    6  A    between atoms: N_13  and  C_14
REMARK    7  A    between atoms: C_14  and  C_15
REMARK                            x       y       z     vdW  Elec       q    Type
REMARK                         _______ _______ _______ _____ _____    ______ ____
ROOT
ATOM      1  C   UNL     1       2.200   2.341  19.137  0.00  0.00    +0.000 C 
ENDROOT
BRANCH   1   2
ATOM      2  C   UNL     1       3.286   2.327  18.092  0.00  0.00    +0.000 C 
ATOM      3  O   UNL     1       3.973   1.331  17.882  0.00  0.00    +0.000 OA
ATOM      4  N   UNL     1       3.408   3.499  17.377  0.00  0.00    +0.000 N 
ATOM      5  H   UNL     1       3.013   4.351  17.757  0.00  0.00    +0.000 HD
BRANCH   4   6
ATOM      6  C   UNL     1       4.426   3.633  16.358  0.00  0.00    +0.000 C 
BRANCH   6   7
ATOM      7  C   UNL     1       5.433   4.714  16.678  0.00  0.00    +0.000 A 
ATOM      8  C   UNL     1       5.176   6.053  16.345  0.00  0.00    +0.000 A 
ATOM      9  C   UNL     1       6.039   7.070  16.766  0.00  0.00    +0.000 A 
ATOM     10  C   UNL     1       7.166   6.753  17.522  0.00  0.00    +0.000 A 
ATOM     11 CL   UNL     1       8.188   8.011  18.101  0.00  0.00    +0.000 Cl
ATOM     12  C   UNL     1       7.455   5.427  17.831  0.00  0.00    +0.000 A 
ATOM     13  C   UNL     1       6.594   4.411  17.407  0.00  0.00    +0.000 A 
ENDBRANCH   6   7
ENDBRANCH   4   6
ENDBRANCH   1   2
BRANCH   1  14
ATOM     14  C   UNL     1       1.557   3.719  19.229  0.00  0.00    +0.000 C 
BRANCH  14  15
ATOM     15  S   UNL     1       2.553   4.786  20.246  0.00  0.00    +0.000 S 
ATOM     16  O   UNL     1       3.944   4.562  19.906  0.00  0.00    +0.000 OA
ATOM     17  O   UNL     1       2.096   4.642  21.616  0.00  0.00    +0.000 OA
BRANCH  15  22
ATOM     18  C   UNL     1       1.364  10.501  18.551  0.00  0.00    +0.000 C 
ATOM     19  C   UNL     1       1.619   9.080  18.964  0.00  0.00    +0.000 A 
ATOM     20  C   UNL     1       1.307   8.642  20.257  0.00  0.00    +0.000 A 
ATOM     21  C   UNL     1       1.567   7.323  20.639  0.00  0.00    +0.000 A 
ATOM     22  C   UNL     1       2.132   6.435  19.721  0.00  0.00    +0.000 A 
ATOM     23  C   UNL     1       2.464   6.861  18.434  0.00  0.00    +0.000 A 
ATOM     24  C   UNL     1       2.201   8.181  18.058  0.00  0.00    +0.000 A 
ENDBRANCH  15  22
ENDBRANCH  14  15
ENDBRANCH   1  14
TORSDOF 6
ENDMDL
MODEL 7
REMARK VINA RESULT:      -6.7      3.445      5.983
REMARK  Name = 
REMARK  7 active torsions:
REMARK  status: ('A' for Active; 'I' for Inactive)
REMARK    1  A    between atoms: C_1  and  C_2
REMARK    2  A    between atoms: C_5  and  S_6
REMARK    3  A    between atoms: S_6  and  C_9
REMARK    4  A    between atoms: C_9  and  C_10
REMARK    5  A    between atoms: C_10  and  C_11
REMARK    6  A    between atoms: N_13  and  C_14
REMARK    7  A    between atoms: C_14  and  C_15
REMARK                            x       y       z     vdW  Elec       q    Type
REMARK                         _______ _______ _______ _____ _____    ______ ____
ROOT
ATOM      1  C   UNL     1       6.912   7.396  17.014  0.00  0.00    +0.000 C 
ENDROOT
BRANCH   1   2
ATOM      2  C   UNL     1       5.451   7.240  16.675  0.00  0.00    +0.000 C 
ATOM      3  O   UNL     1       5.073   6.965  15.540  0.00  0.00    +0.000 OA
ATOM      4  N   UNL     1       4.597   7.392  17.746  0.00  0.00    +0.000 N 
ATOM      5  H   UNL     1       4.927   7.867  18.577  0.00  0.00    +0.000 HD
BRANCH   4   6
ATOM      6  C   UNL     1       3.166   7.292  17.560  0.00  0.00    +0.000 C 
BRANCH   6   7
ATOM      7  C   UNL     1       2.385   7.816  18.743  0.00  0.00    +0.000 A 
ATOM      8  C   UNL     1       1.684   9.029  18.657  0.00  0.00    +0.000 A 
ATOM      9  C   UNL     1       0.847   9.444  19.699  0.00  0.00    +0.000 A 
ATOM     10  C   UNL     1       0.708   8.649  20.833  0.00  0.00    +0.000 A 
ATOM     11 CL   UNL     1      -0.376   9.124  22.083  0.00  0.00    +0.000 Cl
ATOM     12  C   UNL     1       1.424   7.460  20.951  0.00  0.00    +0.000 A 
ATOM     13  C   UNL     1       2.261   7.047  19.911  0.00  0.00    +0.000 A 
ENDBRANCH   6   7
ENDBRANCH   4   6
ENDBRANCH   1   2
BRANCH   1  14
ATOM     14  C   UNL     1       7.323   6.409  18.099  0.00  0.00    +0.000 C 
BRANCH  14  15
ATOM     15  S   UNL     1       7.290   4.751  17.455  0.00  0.00    +0.000 S 
ATOM     16  O   UNL     1       8.215   3.949  18.232  0.00  0.00    +0.000 OA
ATOM     17  O   UNL     1       7.418   4.836  16.012  0.00  0.00    +0.000 OA
BRANCH  15  22
ATOM     18  C   UNL     1       1.588   3.004  18.628  0.00  0.00    +0.000 C 
ATOM     19  C   UNL     1       3.009   3.399  18.349  0.00  0.00    +0.000 A 
ATOM     20  C   UNL     1       3.862   3.787  19.390  0.00  0.00    +0.000 A 
ATOM     21  C   UNL     1       5.178   4.173  19.119  0.00  0.00    +0.000 A 
ATOM     22  C   UNL     1       5.646   4.162  17.804  0.00  0.00    +0.000 A 
ATOM     23  C   UNL     1       4.802   3.794  16.754  0.00  0.00    +0.000 A 
ATOM     24  C   UNL     1       3.488   3.408  17.032  0.00  0.00    +0.000 A 
ENDBRANCH  15  22
ENDBRANCH  14  15
ENDBRANCH   1  14
TORSDOF 6
ENDMDL
MODEL 8
REMARK VINA RESULT:      -6.7      4.629      6.510
REMARK  Name = 
REMARK  7 active torsions:
REMARK  status: ('A' for Active; 'I' for Inactive)
REMARK    1  A    between atoms: C_1  and  C_2
REMARK    2  A    between atoms: C_5  and  S_6
REMARK    3  A    between atoms: S_6  and  C_9
REMARK    4  A    between atoms: C_9  and  C_10
REMARK    5  A    between atoms: C_10  and  C_11
REMARK    6  A    between atoms: N_13  and  C_14
REMARK    7  A    between atoms: C_14  and  C_15
REMARK                            x       y       z     vdW  Elec       q    Type
REMARK                         _______ _______ _______ _____ _____    ______ ____
ROOT
ATOM      1  C   UNL     1       6.918   7.418  17.103  0.00  0.00    +0.000 C 
ENDROOT
BRANCH   1   2
ATOM      2  C   UNL     1       7.947   7.823  18.128  0.00  0.00    +0.000 C 
ATOM      3  O   UNL     1       8.450   7.012  18.901  0.00  0.00    +0.000 OA
ATOM      4  N   UNL     1       8.298   9.156  18.092  0.00  0.00    +0.000 N 
ATOM      5  H   UNL     1       7.681   9.815  17.633  0.00  0.00    +0.000 HD
BRANCH   4   6
ATOM      6  C   UNL     1       9.257   9.686  19.036  0.00  0.00    +0.000 C 
BRANCH   6   7
ATOM      7  C   UNL     1       9.284  11.198  19.054  0.00  0.00    +0.000 A 
ATOM      8  C   UNL     1       9.040  11.932  17.883  0.00  0.00    +0.000 A 
ATOM      9  C   UNL     1       8.923  13.325  17.928  0.00  0.00    +0.000 A 
ATOM     10  C   UNL     1       9.050  13.992  19.143  0.00  0.00    +0.000 A 
ATOM     11 CL   UNL     1       8.835  15.699  19.210  0.00  0.00    +0.000 Cl
ATOM     12  C   UNL     1       9.326  13.283  20.309  0.00  0.00    +0.000 A 
ATOM     13  C   UNL     1       9.446  11.891  20.264  0.00  0.00    +0.000 A 
ENDBRANCH   6   7
ENDBRANCH   4   6
ENDBRANCH   1   2
BRANCH   1  14
ATOM     14  C   UNL     1       6.822   5.901  17.007  0.00  0.00    +0.000 C 
BRANCH  14  15
ATOM     15  S   UNL     1       5.475   5.445  15.938  0.00  0.00    +0.000 S 
ATOM     16  O   UNL     1       5.843   4.226  15.245  0.00  0.00    +0.000 OA
ATOM     17  O   UNL     1       5.084   6.628  15.193  0.00  0.00    +0.000 OA
BRANCH  15  22
ATOM     18  C   UNL     1       1.086   4.009  19.890  0.00  0.00    +0.000 C 
ATOM     19  C   UNL     1       2.142   4.368  18.885  0.00  0.00    +0.000 A 
ATOM     20  C   UNL     1       2.625   3.415  17.980  0.00  0.00    +0.000 A 
ATOM     21  C   UNL     1       3.623   3.752  17.062  0.00  0.00    +0.000 A 
ATOM     22  C   UNL     1       4.134   5.051  17.041  0.00  0.00    +0.000 A 
ATOM     23  C   UNL     1       3.676   6.008  17.948  0.00  0.00    +0.000 A 
ATOM     24  C   UNL     1       2.677   5.665  18.864  0.00  0.00    +0.000 A 
ENDBRANCH  15  22
ENDBRANCH  14  15
ENDBRANCH   1  14
TORSDOF 6
ENDMDL
MODEL 9
REMARK VINA RESULT:      -6.7      2.777      5.582
REMARK  Name = 
REMARK  7 active torsions:
REMARK  status: ('A' for Active; 'I' for Inactive)
REMARK    1  A    between atoms: C_1  and  C_2
REMARK    2  A    between atoms: C_5  and  S_6
REMARK    3  A    between atoms: S_6  and  C_9
REMARK    4  A    between atoms: C_9  and  C_10
REMARK    5  A    between atoms: C_10  and  C_11
REMARK    6  A    between atoms: N_13  and  C_14
REMARK    7  A    between atoms: C_14  and  C_15
REMARK                            x       y       z     vdW  Elec       q    Type
REMARK                         _______ _______ _______ _____ _____    ______ ____
ROOT
ATOM      1  C   UNL     1       1.270   3.722  19.524  0.00  0.00    +0.000 C 
ENDROOT
BRANCH   1   2
ATOM      2  C   UNL     1       1.860   5.014  20.031  0.00  0.00    +0.000 C 
ATOM      3  O   UNL     1       2.092   5.200  21.222  0.00  0.00    +0.000 OA
ATOM      4  N   UNL     1       2.149   5.936  19.047  0.00  0.00    +0.000 N 
ATOM      5  H   UNL     1       1.706   5.844  18.141  0.00  0.00    +0.000 HD
BRANCH   4   6
ATOM      6  C   UNL     1       2.698   7.228  19.395  0.00  0.00    +0.000 C 
BRANCH   6   7
ATOM      7  C   UNL     1       1.640   8.304  19.495  0.00  0.00    +0.000 A 
ATOM      8  C   UNL     1       1.031   8.596  20.725  0.00  0.00    +0.000 A 
ATOM      9  C   UNL     1       0.159   9.684  20.847  0.00  0.00    +0.000 A 
ATOM     10  C   UNL     1      -0.110  10.484  19.739  0.00  0.00    +0.000 A 
ATOM     11 CL   UNL     1      -1.125  11.863  19.907  0.00  0.00    +0.000 Cl
ATOM     12  C   UNL     1       0.458  10.186  18.503  0.00  0.00    +0.000 A 
ATOM     13  C   UNL     1       1.327   9.099  18.380  0.00  0.00    +0.000 A 
ENDBRANCH   6   7
ENDBRANCH   4   6
ENDBRANCH   1   2
BRANCH   1  14
ATOM     14  C   UNL     1       2.231   2.563  19.755  0.00  0.00    +0.000 C 
BRANCH  14  15
ATOM     15  S   UNL     1       3.096   2.182  18.248  0.00  0.00    +0.000 S 
ATOM     16  O   UNL     1       2.143   2.237  17.157  0.00  0.00    +0.000 OA
ATOM     17  O   UNL     1       3.881   0.983  18.482  0.00  0.00    +0.000 OA
BRANCH  15  22
ATOM     18  C   UNL     1       7.202   6.588  17.435  0.00  0.00    +0.000 C 
ATOM     19  C   UNL     1       6.163   5.526  17.653  0.00  0.00    +0.000 A 
ATOM     20  C   UNL     1       6.021   4.907  18.901  0.00  0.00    +0.000 A 
ATOM     21  C   UNL     1       5.066   3.905  19.090  0.00  0.00    +0.000 A 
ATOM     22  C   UNL     1       4.240   3.527  18.029  0.00  0.00    +0.000 A 
ATOM     23  C   UNL     1       4.381   4.123  16.774  0.00  0.00    +0.000 A 
ATOM     24  C   UNL     1       5.339   5.125  16.592  0.00  0.00    +0.000 A 
ENDBRANCH  15  22
ENDBRANCH  14  15
ENDBRANCH   1  14
TORSDOF 6
ENDMDL
