MODEL 1
REMARK VINA RESULT:      -8.0      0.000      0.000
REMARK  Name = 
REMARK  3 active torsions:
REMARK  status: ('A' for Active; 'I' for Inactive)
REMARK    1  A    between atoms: C_2  and  C_15
REMARK    2  A    between atoms: N_3  and  C_4
REMARK    3  A    between atoms: C_4  and  C_5
REMARK                            x       y       z     vdW  Elec       q    Type
REMARK                         _______ _______ _______ _____ _____    ______ ____
ROOT
ATOM      1  C   UNL     1       4.386   4.831  17.670  0.00  0.00    +0.000 C 
ENDROOT
BRANCH   1   2
ATOM      2  C   UNL     1       3.050   5.596  17.673  0.00  0.00    +0.000 C 
ATOM      3  C   UNL     1       3.006   6.559  18.860  0.00  0.00    +0.000 C 
ATOM      4  O   UNL     1       3.191   5.876  20.109  0.00  0.00    +0.000 OA
ATOM      5  C   UNL     1       2.448   4.733  20.255  0.00  0.00    +0.000 A 
ATOM      6  C   UNL     1       2.487   4.132  21.510  0.00  0.00    +0.000 A 
ATOM      7  C   UNL     1       1.765   2.962  21.746  0.00  0.00    +0.000 A 
ATOM      8  C   UNL     1       0.987   2.407  20.732  0.00  0.00    +0.000 A 
ATOM      9  C   UNL     1       0.972   2.988  19.464  0.00  0.00    +0.000 A 
ATOM     10  C   UNL     1       1.739   4.130  19.205  0.00  0.00    +0.000 A 
ATOM     11  C   UNL     1       1.830   4.680  17.809  0.00  0.00    +0.000 C 
ENDBRANCH   1   2
BRANCH   1  14
ATOM     12  O   UNL     1       6.025   6.591  16.101  0.00  0.00    +0.000 OA
ATOM     13  C   UNL     1       5.733   5.475  15.684  0.00  0.00    +0.000 C 
ATOM     14  N   UNL     1       4.902   4.599  16.341  0.00  0.00    +0.000 N 
ATOM     15  H   UNL     1       4.768   3.693  15.897  0.00  0.00    +0.000 HD
BRANCH  13  16
ATOM     16  C   UNL     1       6.285   4.940  14.399  0.00  0.00    +0.000 A 
ATOM     17  C   UNL     1       5.589   3.963  13.702  0.00  0.00    +0.000 A 
ATOM     18  C   UNL     1       6.125   3.513  12.498  0.00  0.00    +0.000 A 
ATOM     19  C   UNL     1       7.324   4.054  12.040  0.00  0.00    +0.000 A 
ATOM     20  C   UNL     1       7.948   5.027  12.806  0.00  0.00    +0.000 A 
ATOM     21  N   UNL     1       7.464   5.485  13.979  0.00  0.00    +0.000 NA
ENDBRANCH  13  16
ENDBRANCH   1  14
TORSDOF 3
ENDMDL
MODEL 2
REMARK VINA RESULT:      -7.8      1.342      1.986
REMARK  Name = 
REMARK  3 active torsions:
REMARK  status: ('A' for Active; 'I' for Inactive)
REMARK    1  A    between atoms: C_2  and  C_15
REMARK    2  A    between atoms: N_3  and  C_4
REMARK    3  A    between atoms: C_4  and  C_5
REMARK                            x       y       z     vdW  Elec       q    Type
REMARK                         _______ _______ _______ _____ _____    ______ ____
ROOT
ATOM      1  C   UNL     1       4.119   6.112  17.792  0.00  0.00    +0.000 C 
ENDROOT
BRANCH   1   2
ATOM      2  C   UNL     1       4.697   5.366  19.008  0.00  0.00    +0.000 C 
ATOM      3  C   UNL     1       5.224   3.997  18.574  0.00  0.00    +0.000 C 
ATOM      4  O   UNL     1       4.204   3.207  17.944  0.00  0.00    +0.000 OA
ATOM      5  C   UNL     1       3.002   3.190  18.603  0.00  0.00    +0.000 A 
ATOM      6  C   UNL     1       2.041   2.314  18.103  0.00  0.00    +0.000 A 
ATOM      7  C   UNL     1       0.787   2.234  18.708  0.00  0.00    +0.000 A 
ATOM      8  C   UNL     1       0.503   3.015  19.828  0.00  0.00    +0.000 A 
ATOM      9  C   UNL     1       1.451   3.918  20.309  0.00  0.00    +0.000 A 
ATOM     10  C   UNL     1       2.691   4.043  19.672  0.00  0.00    +0.000 A 
ATOM     11  C   UNL     1       3.661   5.106  20.106  0.00  0.00    +0.000 C 
ENDBRANCH   1   2
BRANCH   1  14
ATOM     12  O   UNL     1       6.527   6.867  16.422  0.00  0.00    +0.000 OA
ATOM     13  C   UNL     1       5.806   5.981  15.974  0.00  0.00    +0.000 C 
ATOM     14  N   UNL     1       4.608   5.605  16.531  0.00  0.00    +0.000 N 
ATOM     15  H   UNL     1       4.126   4.833  16.074  0.00  0.00    +0.000 HD
BRANCH  13  16
ATOM     16  C   UNL     1       6.187   5.189  14.761  0.00  0.00    +0.000 A 
ATOM     17  C   UNL     1       5.317   4.230  14.261  0.00  0.00    +0.000 A 
ATOM     18  C   UNL     1       5.699   3.536  13.116  0.00  0.00    +0.000 A 
ATOM     19  C   UNL     1       6.922   3.826  12.518  0.00  0.00    +0.000 A 
ATOM     20  C   UNL     1       7.725   4.801  13.089  0.00  0.00    +0.000 A 
ATOM     21  N   UNL     1       7.394   5.491  14.201  0.00  0.00    +0.000 NA
ENDBRANCH  13  16
ENDBRANCH   1  14
TORSDOF 3
ENDMDL
MODEL 3
REMARK VINA RESULT:      -7.8      1.118      1.150
REMARK  Name = 
REMARK  3 active torsions:
REMARK  status: ('A' for Active; 'I' for Inactive)
REMARK    1  A    between atoms: C_2  and  C_15
REMARK    2  A    between atoms: N_3  and  C_4
REMARK    3  A    between atoms: C_4  and  C_5
REMARK                            x       y       z     vdW  Elec       q    Type
REMARK                         _______ _______ _______ _____ _____    ______ ____
ROOT
ATOM      1  C   UNL     1       4.082   4.044  17.037  0.00  0.00    +0.000 C 
ENDROOT
BRANCH   1   2
ATOM      2  C   UNL     1       3.707   5.330  17.796  0.00  0.00    +0.000 C 
ATOM      3  C   UNL     1       4.620   5.502  19.010  0.00  0.00    +0.000 C 
ATOM      4  O   UNL     1       4.558   4.370  19.890  0.00  0.00    +0.000 OA
ATOM      5  C   UNL     1       3.290   3.929  20.169  0.00  0.00    +0.000 A 
ATOM      6  C   UNL     1       3.188   2.932  21.137  0.00  0.00    +0.000 A 
ATOM      7  C   UNL     1       1.937   2.420  21.481  0.00  0.00    +0.000 A 
ATOM      8  C   UNL     1       0.788   2.921  20.871  0.00  0.00    +0.000 A 
ATOM      9  C   UNL     1       0.890   3.893  19.877  0.00  0.00    +0.000 A 
ATOM     10  C   UNL     1       2.147   4.371  19.488  0.00  0.00    +0.000 A 
ATOM     11  C   UNL     1       2.270   5.320  18.329  0.00  0.00    +0.000 C 
ENDBRANCH   1   2
BRANCH   1  14
ATOM     12  O   UNL     1       6.918   4.295  16.666  0.00  0.00    +0.000 OA
ATOM     13  C   UNL     1       6.157   4.346  15.705  0.00  0.00    +0.000 C 
ATOM     14  N   UNL     1       4.786   4.299  15.803  0.00  0.00    +0.000 N 
ATOM     15  H   UNL     1       4.276   4.321  14.922  0.00  0.00    +0.000 HD
BRANCH  13  16
ATOM     16  C   UNL     1       6.662   4.442  14.300  0.00  0.00    +0.000 A 
ATOM     17  C   UNL     1       6.127   3.623  13.315  0.00  0.00    +0.000 A 
ATOM     18  C   UNL     1       6.607   3.763  12.016  0.00  0.00    +0.000 A 
ATOM     19  C   UNL     1       7.594   4.711  11.752  0.00  0.00    +0.000 A 
ATOM     20  C   UNL     1       8.068   5.484  12.800  0.00  0.00    +0.000 A 
ATOM     21  N   UNL     1       7.633   5.374  14.072  0.00  0.00    +0.000 NA
ENDBRANCH  13  16
ENDBRANCH   1  14
TORSDOF 3
ENDMDL
MODEL 4
REMARK VINA RESULT:      -7.6      1.621      1.734
REMARK  Name = 
REMARK  3 active torsions:
REMARK  status: ('A' for Active; 'I' for Inactive)
REMARK    1  A    between atoms: C_2  and  C_15
REMARK    2  A    between atoms: N_3  and  C_4
REMARK    3  A    between atoms: C_4  and  C_5
REMARK                            x       y       z     vdW  Elec       q    Type
REMARK                         _______ _______ _______ _____ _____    ______ ____
ROOT
ATOM      1  C   UNL     1       4.842   6.439  17.752  0.00  0.00    +0.000 C 
ENDROOT
BRANCH   1   2
ATOM      2  C   UNL     1       3.323   6.325  17.982  0.00  0.00    +0.000 C 
ATOM      3  C   UNL     1       3.030   6.250  19.481  0.00  0.00    +0.000 C 
ATOM      4  O   UNL     1       3.711   5.151  20.105  0.00  0.00    +0.000 OA
ATOM      5  C   UNL     1       3.619   3.961  19.430  0.00  0.00    +0.000 A 
ATOM      6  C   UNL     1       4.137   2.845  20.082  0.00  0.00    +0.000 A 
ATOM      7  C   UNL     1       4.092   1.594  19.468  0.00  0.00    +0.000 A 
ATOM      8  C   UNL     1       3.508   1.457  18.209  0.00  0.00    +0.000 A 
ATOM      9  C   UNL     1       3.019   2.578  17.539  0.00  0.00    +0.000 A 
ATOM     10  C   UNL     1       3.113   3.845  18.127  0.00  0.00    +0.000 A 
ATOM     11  C   UNL     1       2.710   5.070  17.354  0.00  0.00    +0.000 C 
ENDBRANCH   1   2
BRANCH   1  14
ATOM     12  O   UNL     1       7.467   5.633  16.913  0.00  0.00    +0.000 OA
ATOM     13  C   UNL     1       6.520   5.580  16.134  0.00  0.00    +0.000 C 
ATOM     14  N   UNL     1       5.248   6.006  16.436  0.00  0.00    +0.000 N 
ATOM     15  H   UNL     1       4.550   5.876  15.706  0.00  0.00    +0.000 HD
BRANCH  13  16
ATOM     16  C   UNL     1       6.658   5.009  14.758  0.00  0.00    +0.000 A 
ATOM     17  C   UNL     1       5.748   4.064  14.306  0.00  0.00    +0.000 A 
ATOM     18  C   UNL     1       5.898   3.579  13.010  0.00  0.00    +0.000 A 
ATOM     19  C   UNL     1       6.942   4.054  12.220  0.00  0.00    +0.000 A 
ATOM     20  C   UNL     1       7.803   4.999  12.756  0.00  0.00    +0.000 A 
ATOM     21  N   UNL     1       7.694   5.489  14.009  0.00  0.00    +0.000 NA
ENDBRANCH  13  16
ENDBRANCH   1  14
TORSDOF 3
ENDMDL
MODEL 5
REMARK VINA RESULT:      -7.6      1.865      3.236
REMARK  Name = 
REMARK  3 active torsions:
REMARK  status: ('A' for Active; 'I' for Inactive)
REMARK    1  A    between atoms: C_2  and  C_15
REMARK    2  A    between atoms: N_3  and  C_4
REMARK    3  A    between atoms: C_4  and  C_5
REMARK                            x       y       z     vdW  Elec       q    Type
REMARK                         _______ _______ _______ _____ _____    ______ ____
ROOT
ATOM      1  C   UNL     1       3.986   2.643  19.584  0.00  0.00    +0.000 C 
ENDROOT
BRANCH   1   2
ATOM      2  C   UNL     1       2.450   2.548  19.639  0.00  0.00    +0.000 C 
ATOM      3  C   UNL     1       1.865   2.797  18.248  0.00  0.00    +0.000 C 
ATOM      4  O   UNL     1       2.266   4.069  17.719  0.00  0.00    +0.000 OA
ATOM      5  C   UNL     1       2.156   5.117  18.596  0.00  0.00    +0.000 A 
ATOM      6  C   UNL     1       2.391   6.385  18.070  0.00  0.00    +0.000 A 
ATOM      7  C   UNL     1       2.306   7.509  18.892  0.00  0.00    +0.000 A 
ATOM      8  C   UNL     1       1.963   7.364  20.235  0.00  0.00    +0.000 A 
ATOM      9  C   UNL     1       1.761   6.094  20.773  0.00  0.00    +0.000 A 
ATOM     10  C   UNL     1       1.901   4.958  19.966  0.00  0.00    +0.000 A 
ATOM     11  C   UNL     1       1.815   3.585  20.571  0.00  0.00    +0.000 C 
ENDBRANCH   1   2
BRANCH   1  14
ATOM     12  O   UNL     1       6.082   4.564  19.184  0.00  0.00    +0.000 OA
ATOM     13  C   UNL     1       5.529   4.036  18.224  0.00  0.00    +0.000 C 
ATOM     14  N   UNL     1       4.477   3.158  18.327  0.00  0.00    +0.000 N 
ATOM     15  H   UNL     1       4.132   2.770  17.451  0.00  0.00    +0.000 HD
BRANCH  13  16
ATOM     16  C   UNL     1       5.976   4.286  16.818  0.00  0.00    +0.000 A 
ATOM     17  C   UNL     1       5.096   4.076  15.765  0.00  0.00    +0.000 A 
ATOM     18  C   UNL     1       5.543   4.347  14.475  0.00  0.00    +0.000 A 
ATOM     19  C   UNL     1       6.842   4.815  14.288  0.00  0.00    +0.000 A 
ATOM     20  C   UNL     1       7.649   4.994  15.399  0.00  0.00    +0.000 A 
ATOM     21  N   UNL     1       7.255   4.738  16.664  0.00  0.00    +0.000 NA
ENDBRANCH  13  16
ENDBRANCH   1  14
TORSDOF 3
ENDMDL
MODEL 6
REMARK VINA RESULT:      -7.5      3.556      6.854
REMARK  Name = 
REMARK  3 active torsions:
REMARK  status: ('A' for Active; 'I' for Inactive)
REMARK    1  A    between atoms: C_2  and  C_15
REMARK    2  A    between atoms: N_3  and  C_4
REMARK    3  A    between atoms: C_4  and  C_5
REMARK                            x       y       z     vdW  Elec       q    Type
REMARK                         _______ _______ _______ _____ _____    ______ ____
ROOT
ATOM      1  C   UNL     1       3.100   6.968  17.612  0.00  0.00    +0.000 C 
ENDROOT
BRANCH   1   2
ATOM      2  C   UNL     1       4.236   6.045  18.089  0.00  0.00    +0.000 C 
ATOM      3  C   UNL     1       4.301   4.801  17.203  0.00  0.00    +0.000 C 
ATOM      4  O   UNL     1       3.055   4.089  17.189  0.00  0.00    +0.000 OA
ATOM      5  C   UNL     1       2.487   3.900  18.422  0.00  0.00    +0.000 A 
ATOM      6  C   UNL     1       1.360   3.084  18.459  0.00  0.00    +0.000 A 
ATOM      7  C   UNL     1       0.714   2.840  19.671  0.00  0.00    +0.000 A 
ATOM      8  C   UNL     1       1.211   3.397  20.849  0.00  0.00    +0.000 A 
ATOM      9  C   UNL     1       2.319   4.242  20.810  0.00  0.00    +0.000 A 
ATOM     10  C   UNL     1       2.937   4.535  19.589  0.00  0.00    +0.000 A 
ATOM     11  C   UNL     1       4.046   5.548  19.526  0.00  0.00    +0.000 C 
ENDBRANCH   1   2
BRANCH   1  14
ATOM     12  O   UNL     1       1.878   9.566  17.535  0.00  0.00    +0.000 OA
ATOM     13  C   UNL     1       1.828   8.883  18.554  0.00  0.00    +0.000 C 
ATOM     14  N   UNL     1       2.441   7.661  18.694  0.00  0.00    +0.000 N 
ATOM     15  H   UNL     1       2.292   7.187  19.583  0.00  0.00    +0.000 HD
BRANCH  13  16
ATOM     16  C   UNL     1       1.056   9.317  19.760  0.00  0.00    +0.000 A 
ATOM     17  C   UNL     1       1.142   8.585  20.936  0.00  0.00    +0.000 A 
ATOM     18  C   UNL     1       0.428   9.039  22.042  0.00  0.00    +0.000 A 
ATOM     19  C   UNL     1      -0.335  10.199  21.932  0.00  0.00    +0.000 A 
ATOM     20  C   UNL     1      -0.360  10.864  20.717  0.00  0.00    +0.000 A 
ATOM     21  N   UNL     1       0.312  10.454  19.621  0.00  0.00    +0.000 NA
ENDBRANCH  13  16
ENDBRANCH   1  14
TORSDOF 3
ENDMDL
MODEL 7
REMARK VINA RESULT:      -7.5      2.218      2.735
REMARK  Name = 
REMARK  3 active torsions:
REMARK  status: ('A' for Active; 'I' for Inactive)
REMARK    1  A    between atoms: C_2  and  C_15
REMARK    2  A    between atoms: N_3  and  C_4
REMARK    3  A    between atoms: C_4  and  C_5
REMARK                            x       y       z     vdW  Elec       q    Type
REMARK                         _______ _______ _______ _____ _____    ______ ____
ROOT
ATOM      1  C   UNL     1       7.014   4.609  16.916  0.00  0.00    +0.000 C 
ENDROOT
BRANCH   1   2
ATOM      2  C   UNL     1       6.118   5.637  17.632  0.00  0.00    +0.000 C 
ATOM      3  C   UNL     1       6.177   5.413  19.143  0.00  0.00    +0.000 C 
ATOM      4  O   UNL     1       5.787   4.079  19.502  0.00  0.00    +0.000 OA
ATOM      5  C   UNL     1       4.647   3.628  18.888  0.00  0.00    +0.000 A 
ATOM      6  C   UNL     1       4.159   2.401  19.326  0.00  0.00    +0.000 A 
ATOM      7  C   UNL     1       3.006   1.863  18.754  0.00  0.00    +0.000 A 
ATOM      8  C   UNL     1       2.331   2.566  17.757  0.00  0.00    +0.000 A 
ATOM      9  C   UNL     1       2.838   3.779  17.291  0.00  0.00    +0.000 A 
ATOM     10  C   UNL     1       4.025   4.296  17.823  0.00  0.00    +0.000 A 
ATOM     11  C   UNL     1       4.643   5.533  17.233  0.00  0.00    +0.000 C 
ENDBRANCH   1   2
BRANCH   1  14
ATOM     12  O   UNL     1       7.726   5.504  14.282  0.00  0.00    +0.000 OA
ATOM     13  C   UNL     1       6.908   4.601  14.434  0.00  0.00    +0.000 C 
ATOM     14  N   UNL     1       6.466   4.160  15.658  0.00  0.00    +0.000 N 
ATOM     15  H   UNL     1       5.808   3.382  15.641  0.00  0.00    +0.000 HD
BRANCH  13  16
ATOM     16  C   UNL     1       6.320   3.862  13.273  0.00  0.00    +0.000 A 
ATOM     17  C   UNL     1       4.952   3.904  13.049  0.00  0.00    +0.000 A 
ATOM     18  C   UNL     1       4.450   3.225  11.942  0.00  0.00    +0.000 A 
ATOM     19  C   UNL     1       5.328   2.538  11.107  0.00  0.00    +0.000 A 
ATOM     20  C   UNL     1       6.680   2.551  11.411  0.00  0.00    +0.000 A 
ATOM     21  N   UNL     1       7.204   3.192  12.477  0.00  0.00    +0.000 NA
ENDBRANCH  13  16
ENDBRANCH   1  14
TORSDOF 3
ENDMDL
MODEL 8
REMARK VINA RESULT:      -7.4      1.763      2.827
REMARK  Name = 
REMARK  3 active torsions:
REMARK  status: ('A' for Active; 'I' for Inactive)
REMARK    1  A    between atoms: C_2  and  C_15
REMARK    2  A    between atoms: N_3  and  C_4
REMARK    3  A    between atoms: C_4  and  C_5
REMARK                            x       y       z     vdW  Elec       q    Type
REMARK                         _______ _______ _______ _____ _____    ______ ____
ROOT
ATOM      1  C   UNL     1       5.679   4.284  18.386  0.00  0.00    +0.000 C 
ENDROOT
BRANCH   1   2
ATOM      2  C   UNL     1       4.412   3.525  18.823  0.00  0.00    +0.000 C 
ATOM      3  C   UNL     1       3.437   3.425  17.650  0.00  0.00    +0.000 C 
ATOM      4  O   UNL     1       3.088   4.717  17.132  0.00  0.00    +0.000 OA
ATOM      5  C   UNL     1       2.764   5.649  18.085  0.00  0.00    +0.000 A 
ATOM      6  C   UNL     1       2.275   6.864  17.612  0.00  0.00    +0.000 A 
ATOM      7  C   UNL     1       1.925   7.872  18.509  0.00  0.00    +0.000 A 
ATOM      8  C   UNL     1       2.045   7.655  19.882  0.00  0.00    +0.000 A 
ATOM      9  C   UNL     1       2.566   6.453  20.357  0.00  0.00    +0.000 A 
ATOM     10  C   UNL     1       2.972   5.459  19.458  0.00  0.00    +0.000 A 
ATOM     11  C   UNL     1       3.656   4.218  19.961  0.00  0.00    +0.000 C 
ENDBRANCH   1   2
BRANCH   1  14
ATOM     12  O   UNL     1       7.632   5.773  16.898  0.00  0.00    +0.000 OA
ATOM     13  C   UNL     1       6.854   5.017  16.324  0.00  0.00    +0.000 C 
ATOM     14  N   UNL     1       5.851   4.319  16.953  0.00  0.00    +0.000 N 
ATOM     15  H   UNL     1       5.297   3.703  16.360  0.00  0.00    +0.000 HD
BRANCH  13  16
ATOM     16  C   UNL     1       6.944   4.758  14.852  0.00  0.00    +0.000 A 
ATOM     17  C   UNL     1       6.100   3.829  14.261  0.00  0.00    +0.000 A 
ATOM     18  C   UNL     1       6.199   3.638  12.886  0.00  0.00    +0.000 A 
ATOM     19  C   UNL     1       7.126   4.381  12.159  0.00  0.00    +0.000 A 
ATOM     20  C   UNL     1       7.928   5.287  12.836  0.00  0.00    +0.000 A 
ATOM     21  N   UNL     1       7.867   5.496  14.167  0.00  0.00    +0.000 NA
ENDBRANCH  13  16
ENDBRANCH   1  14
TORSDOF 3
ENDMDL
MODEL 9
REMARK VINA RESULT:      -7.4      2.923      4.222
REMARK  Name = 
REMARK  3 active torsions:
REMARK  status: ('A' for Active; 'I' for Inactive)
REMARK    1  A    between atoms: C_2  and  C_15
REMARK    2  A    between atoms: N_3  and  C_4
REMARK    3  A    between atoms: C_4  and  C_5
REMARK                            x       y       z     vdW  Elec       q    Type
REMARK                         _______ _______ _______ _____ _____    ______ ____
ROOT
ATOM      1  C   UNL     1       3.700   1.987  18.065  0.00  0.00    +0.000 C 
ENDROOT
BRANCH   1   2
ATOM      2  C   UNL     1       2.664   2.082  19.200  0.00  0.00    +0.000 C 
ATOM      3  C   UNL     1       1.272   2.317  18.613  0.00  0.00    +0.000 C 
ATOM      4  O   UNL     1       1.227   3.498  17.799  0.00  0.00    +0.000 OA
ATOM      5  C   UNL     1       1.822   4.602  18.355  0.00  0.00    +0.000 A 
ATOM      6  C   UNL     1       1.663   5.799  17.661  0.00  0.00    +0.000 A 
ATOM      7  C   UNL     1       2.239   6.971  18.150  0.00  0.00    +0.000 A 
ATOM      8  C   UNL     1       2.955   6.948  19.346  0.00  0.00    +0.000 A 
ATOM      9  C   UNL     1       3.145   5.745  20.025  0.00  0.00    +0.000 A 
ATOM     10  C   UNL     1       2.617   4.556  19.509  0.00  0.00    +0.000 A 
ATOM     11  C   UNL     1       2.932   3.241  20.166  0.00  0.00    +0.000 C 
ENDBRANCH   1   2
BRANCH   1  14
ATOM     12  O   UNL     1       4.472   3.953  16.119  0.00  0.00    +0.000 OA
ATOM     13  C   UNL     1       5.018   3.915  17.217  0.00  0.00    +0.000 C 
ATOM     14  N   UNL     1       4.754   2.968  18.178  0.00  0.00    +0.000 N 
ATOM     15  H   UNL     1       5.258   3.072  19.056  0.00  0.00    +0.000 HD
BRANCH  13  16
ATOM     16  C   UNL     1       6.031   4.935  17.632  0.00  0.00    +0.000 A 
ATOM     17  C   UNL     1       6.094   6.155  16.972  0.00  0.00    +0.000 A 
ATOM     18  C   UNL     1       7.034   7.085  17.407  0.00  0.00    +0.000 A 
ATOM     19  C   UNL     1       7.865   6.766  18.478  0.00  0.00    +0.000 A 
ATOM     20  C   UNL     1       7.730   5.523  19.075  0.00  0.00    +0.000 A 
ATOM     21  N   UNL     1       6.837   4.592  18.680  0.00  0.00    +0.000 NA
ENDBRANCH  13  16
ENDBRANCH   1  14
TORSDOF 3
ENDMDL
