MODEL 1
REMARK VINA RESULT:      -7.9      0.000      0.000
REMARK  Name = 
REMARK  5 active torsions:
REMARK  status: ('A' for Active; 'I' for Inactive)
REMARK    1  A    between atoms: C_1  and  O_2
REMARK    2  A    between atoms: O_2  and  C_3
REMARK    3  A    between atoms: C_8  and  C_9
REMARK    4  A    between atoms: C_9  and  C_10
REMARK    5  A    between atoms: N_12  and  C_13
REMARK                            x       y       z     vdW  Elec       q    Type
REMARK                         _______ _______ _______ _____ _____    ______ ____
ROOT
ATOM      1  C   UNL     1       2.663   4.672  17.737  0.00  0.00    +0.000 C 
ATOM      2  O   UNL     1       1.454   4.458  17.672  0.00  0.00    +0.000 OA
ATOM      3  N   UNL     1       3.258   5.868  18.110  0.00  0.00    +0.000 N 
ATOM      4  H   UNL     1       4.247   5.957  17.899  0.00  0.00    +0.000 HD
ENDROOT
BRANCH   3   5
ATOM      5  C   UNL     1       2.605   7.009  18.637  0.00  0.00    +0.000 A 
ATOM      6  C   UNL     1       2.175   8.088  17.824  0.00  0.00    +0.000 A 
ATOM      7  C   UNL     1       1.516   9.205  18.357  0.00  0.00    +0.000 A 
ATOM      8  C   UNL     1       1.302   9.205  19.709  0.00  0.00    +0.000 A 
ATOM      9  N   UNL     1       0.686  10.159  20.513  0.00  0.00    +0.000 N 
ATOM     10  C   UNL     1       0.705   9.707  21.839  0.00  0.00    +0.000 A 
ATOM     11  O   UNL     1       0.257  10.284  22.813  0.00  0.00    +0.000 OA
ATOM     12  N   UNL     1       1.345   8.456  21.829  0.00  0.00    +0.000 N 
ATOM     13  C   UNL     1       1.707   8.148  20.521  0.00  0.00    +0.000 A 
ATOM     14  C   UNL     1       2.354   7.037  20.017  0.00  0.00    +0.000 A 
ATOM     15  H   UNL     1       0.286  11.036  20.223  0.00  0.00    +0.000 HD
ATOM     16  H   UNL     1       1.496   7.906  22.657  0.00  0.00    +0.000 HD
ENDBRANCH   3   5
BRANCH   1  17
ATOM     17  C   UNL     1       3.658   3.574  17.407  0.00  0.00    +0.000 C 
BRANCH  17  23
ATOM     18  C   UNL     1       6.068   4.410  17.344  0.00  0.00    +0.000 A 
ATOM     19  C   UNL     1       7.194   4.795  16.604  0.00  0.00    +0.000 A 
ATOM     20  C   UNL     1       7.126   4.921  15.216  0.00  0.00    +0.000 A 
ATOM     21  C   UNL     1       5.935   4.645  14.553  0.00  0.00    +0.000 A 
ATOM     22  C   UNL     1       4.822   4.216  15.277  0.00  0.00    +0.000 A 
ATOM     23  C   UNL     1       4.882   4.071  16.673  0.00  0.00    +0.000 A 
BRANCH  18  25
ATOM     24  C   UNL     1       6.694   5.406  19.388  0.00  0.00    +0.000 C 
ATOM     25  O   UNL     1       6.058   4.319  18.715  0.00  0.00    +0.000 OA
ENDBRANCH  18  25
ENDBRANCH  17  23
ENDBRANCH   1  17
TORSDOF 4
ENDMDL
MODEL 2
REMARK VINA RESULT:      -7.8      1.260      1.863
REMARK  Name = 
REMARK  5 active torsions:
REMARK  status: ('A' for Active; 'I' for Inactive)
REMARK    1  A    between atoms: C_1  and  O_2
REMARK    2  A    between atoms: O_2  and  C_3
REMARK    3  A    between atoms: C_8  and  C_9
REMARK    4  A    between atoms: C_9  and  C_10
REMARK    5  A    between atoms: N_12  and  C_13
REMARK                            x       y       z     vdW  Elec       q    Type
REMARK                         _______ _______ _______ _____ _____    ______ ____
ROOT
ATOM      1  C   UNL     1       2.755   4.703  17.834  0.00  0.00    +0.000 C 
ATOM      2  O   UNL     1       1.574   4.524  17.541  0.00  0.00    +0.000 OA
ATOM      3  N   UNL     1       3.287   5.853  18.396  0.00  0.00    +0.000 N 
ATOM      4  H   UNL     1       4.299   5.933  18.370  0.00  0.00    +0.000 HD
ENDROOT
BRANCH   3   5
ATOM      5  C   UNL     1       2.564   6.968  18.887  0.00  0.00    +0.000 A 
ATOM      6  C   UNL     1       2.082   7.039  20.219  0.00  0.00    +0.000 A 
ATOM      7  C   UNL     1       1.380   8.155  20.696  0.00  0.00    +0.000 A 
ATOM      8  C   UNL     1       1.183   9.182  19.813  0.00  0.00    +0.000 A 
ATOM      9  N   UNL     1       0.531  10.398  19.993  0.00  0.00    +0.000 N 
ATOM     10  C   UNL     1       0.592  11.120  18.793  0.00  0.00    +0.000 A 
ATOM     11  O   UNL     1       0.126  12.225  18.583  0.00  0.00    +0.000 OA
ATOM     12  N   UNL     1       1.295  10.320  17.878  0.00  0.00    +0.000 N 
ATOM     13  C   UNL     1       1.660   9.133  18.505  0.00  0.00    +0.000 A 
ATOM     14  C   UNL     1       2.357   8.047  18.015  0.00  0.00    +0.000 A 
ATOM     15  H   UNL     1       0.081  10.732  20.828  0.00  0.00    +0.000 HD
ATOM     16  H   UNL     1       1.482  10.600  16.930  0.00  0.00    +0.000 HD
ENDBRANCH   3   5
BRANCH   1  17
ATOM     17  C   UNL     1       3.781   3.608  17.601  0.00  0.00    +0.000 C 
BRANCH  17  23
ATOM     18  C   UNL     1       6.193   4.409  17.380  0.00  0.00    +0.000 A 
ATOM     19  C   UNL     1       7.283   4.751  16.568  0.00  0.00    +0.000 A 
ATOM     20  C   UNL     1       7.144   4.824  15.182  0.00  0.00    +0.000 A 
ATOM     21  C   UNL     1       5.916   4.540  14.593  0.00  0.00    +0.000 A 
ATOM     22  C   UNL     1       4.838   4.153  15.389  0.00  0.00    +0.000 A 
ATOM     23  C   UNL     1       4.970   4.060  16.786  0.00  0.00    +0.000 A 
BRANCH  18  25
ATOM     24  C   UNL     1       6.841   5.524  19.355  0.00  0.00    +0.000 C 
ATOM     25  O   UNL     1       6.254   4.370  18.752  0.00  0.00    +0.000 OA
ENDBRANCH  18  25
ENDBRANCH  17  23
ENDBRANCH   1  17
TORSDOF 4
ENDMDL
MODEL 3
REMARK VINA RESULT:      -7.5      1.677      2.225
REMARK  Name = 
REMARK  5 active torsions:
REMARK  status: ('A' for Active; 'I' for Inactive)
REMARK    1  A    between atoms: C_1  and  O_2
REMARK    2  A    between atoms: O_2  and  C_3
REMARK    3  A    between atoms: C_8  and  C_9
REMARK    4  A    between atoms: C_9  and  C_10
REMARK    5  A    between atoms: N_12  and  C_13
REMARK                            x       y       z     vdW  Elec       q    Type
REMARK                         _______ _______ _______ _____ _____    ______ ____
ROOT
ATOM      1  C   UNL     1       2.839   4.987  19.290  0.00  0.00    +0.000 C 
ATOM      2  O   UNL     1       1.705   4.537  19.134  0.00  0.00    +0.000 OA
ATOM      3  N   UNL     1       3.162   6.321  19.487  0.00  0.00    +0.000 N 
ATOM      4  H   UNL     1       4.142   6.561  19.375  0.00  0.00    +0.000 HD
ENDROOT
BRANCH   3   5
ATOM      5  C   UNL     1       2.257   7.388  19.707  0.00  0.00    +0.000 A 
ATOM      6  C   UNL     1       1.582   7.575  20.940  0.00  0.00    +0.000 A 
ATOM      7  C   UNL     1       0.699   8.644  21.149  0.00  0.00    +0.000 A 
ATOM      8  C   UNL     1       0.520   9.508  20.102  0.00  0.00    +0.000 A 
ATOM      9  N   UNL     1      -0.281  10.642  20.011  0.00  0.00    +0.000 N 
ATOM     10  C   UNL     1      -0.127  11.197  18.733  0.00  0.00    +0.000 A 
ATOM     11  O   UNL     1      -0.677  12.193  18.300  0.00  0.00    +0.000 OA
ATOM     12  N   UNL     1       0.785  10.379  18.047  0.00  0.00    +0.000 N 
ATOM     13  C   UNL     1       1.184   9.345  18.889  0.00  0.00    +0.000 A 
ATOM     14  C   UNL     1       2.060   8.303  18.662  0.00  0.00    +0.000 A 
ATOM     15  H   UNL     1      -0.882  11.024  20.722  0.00  0.00    +0.000 HD
ATOM     16  H   UNL     1       1.075  10.550  17.099  0.00  0.00    +0.000 HD
ENDBRANCH   3   5
BRANCH   1  17
ATOM     17  C   UNL     1       4.042   4.061  19.294  0.00  0.00    +0.000 C 
BRANCH  17  23
ATOM     18  C   UNL     1       6.272   4.664  18.210  0.00  0.00    +0.000 A 
ATOM     19  C   UNL     1       7.079   4.738  17.066  0.00  0.00    +0.000 A 
ATOM     20  C   UNL     1       6.550   4.468  15.803  0.00  0.00    +0.000 A 
ATOM     21  C   UNL     1       5.213   4.105  15.674  0.00  0.00    +0.000 A 
ATOM     22  C   UNL     1       4.416   3.983  16.811  0.00  0.00    +0.000 A 
ATOM     23  C   UNL     1       4.940   4.237  18.091  0.00  0.00    +0.000 A 
BRANCH  18  25
ATOM     24  C   UNL     1       7.918   5.743  19.509  0.00  0.00    +0.000 C 
ATOM     25  O   UNL     1       6.720   4.967  19.473  0.00  0.00    +0.000 OA
ENDBRANCH  18  25
ENDBRANCH  17  23
ENDBRANCH   1  17
TORSDOF 4
ENDMDL
MODEL 4
REMARK VINA RESULT:      -7.4      0.992      2.010
REMARK  Name = 
REMARK  5 active torsions:
REMARK  status: ('A' for Active; 'I' for Inactive)
REMARK    1  A    between atoms: C_1  and  O_2
REMARK    2  A    between atoms: O_2  and  C_3
REMARK    3  A    between atoms: C_8  and  C_9
REMARK    4  A    between atoms: C_9  and  C_10
REMARK    5  A    between atoms: N_12  and  C_13
REMARK                            x       y       z     vdW  Elec       q    Type
REMARK                         _______ _______ _______ _____ _____    ______ ____
ROOT
ATOM      1  C   UNL     1       2.582   4.993  17.905  0.00  0.00    +0.000 C 
ATOM      2  O   UNL     1       1.529   4.553  18.361  0.00  0.00    +0.000 OA
ATOM      3  N   UNL     1       2.976   6.323  17.905  0.00  0.00    +0.000 N 
ATOM      4  H   UNL     1       3.756   6.554  17.299  0.00  0.00    +0.000 HD
ENDROOT
BRANCH   3   5
ATOM      5  C   UNL     1       2.329   7.396  18.564  0.00  0.00    +0.000 A 
ATOM      6  C   UNL     1       1.807   8.517  17.869  0.00  0.00    +0.000 A 
ATOM      7  C   UNL     1       1.155   9.566  18.533  0.00  0.00    +0.000 A 
ATOM      8  C   UNL     1       1.040   9.456  19.893  0.00  0.00    +0.000 A 
ATOM      9  N   UNL     1       0.456  10.324  20.810  0.00  0.00    +0.000 N 
ATOM     10  C   UNL     1       0.587   9.775  22.092  0.00  0.00    +0.000 A 
ATOM     11  O   UNL     1       0.193  10.261  23.137  0.00  0.00    +0.000 OA
ATOM     12  N   UNL     1       1.262   8.553  21.939  0.00  0.00    +0.000 N 
ATOM     13  C   UNL     1       1.537   8.357  20.589  0.00  0.00    +0.000 A 
ATOM     14  C   UNL     1       2.178   7.311  19.957  0.00  0.00    +0.000 A 
ATOM     15  H   UNL     1       0.009  11.205  20.617  0.00  0.00    +0.000 HD
ATOM     16  H   UNL     1       1.490   7.948  22.710  0.00  0.00    +0.000 HD
ENDBRANCH   3   5
BRANCH   1  17
ATOM     17  C   UNL     1       3.601   4.056  17.281  0.00  0.00    +0.000 C 
BRANCH  17  23
ATOM     18  C   UNL     1       6.027   4.444  16.589  0.00  0.00    +0.000 A 
ATOM     19  C   UNL     1       7.320   4.878  16.911  0.00  0.00    +0.000 A 
ATOM     20  C   UNL     1       7.650   5.226  18.222  0.00  0.00    +0.000 A 
ATOM     21  C   UNL     1       6.683   5.160  19.220  0.00  0.00    +0.000 A 
ATOM     22  C   UNL     1       5.381   4.775  18.900  0.00  0.00    +0.000 A 
ATOM     23  C   UNL     1       5.032   4.437  17.581  0.00  0.00    +0.000 A 
BRANCH  18  25
ATOM     24  C   UNL     1       6.640   4.261  14.319  0.00  0.00    +0.000 C 
ATOM     25  O   UNL     1       5.655   4.040  15.330  0.00  0.00    +0.000 OA
ENDBRANCH  18  25
ENDBRANCH  17  23
ENDBRANCH   1  17
TORSDOF 4
ENDMDL
MODEL 5
REMARK VINA RESULT:      -7.4      1.771      2.919
REMARK  Name = 
REMARK  5 active torsions:
REMARK  status: ('A' for Active; 'I' for Inactive)
REMARK    1  A    between atoms: C_1  and  O_2
REMARK    2  A    between atoms: O_2  and  C_3
REMARK    3  A    between atoms: C_8  and  C_9
REMARK    4  A    between atoms: C_9  and  C_10
REMARK    5  A    between atoms: N_12  and  C_13
REMARK                            x       y       z     vdW  Elec       q    Type
REMARK                         _______ _______ _______ _____ _____    ______ ____
ROOT
ATOM      1  C   UNL     1       2.859   5.481  17.913  0.00  0.00    +0.000 C 
ATOM      2  O   UNL     1       1.849   4.881  18.273  0.00  0.00    +0.000 OA
ATOM      3  N   UNL     1       3.068   6.849  18.005  0.00  0.00    +0.000 N 
ATOM      4  H   UNL     1       3.846   7.216  17.467  0.00  0.00    +0.000 HD
ENDROOT
BRANCH   3   5
ATOM      5  C   UNL     1       2.242   7.787  18.670  0.00  0.00    +0.000 A 
ATOM      6  C   UNL     1       1.951   7.701  20.056  0.00  0.00    +0.000 A 
ATOM      7  C   UNL     1       1.143   8.646  20.705  0.00  0.00    +0.000 A 
ATOM      8  C   UNL     1       0.649   9.665  19.937  0.00  0.00    +0.000 A 
ATOM      9  N   UNL     1      -0.170  10.732  20.292  0.00  0.00    +0.000 N 
ATOM     10  C   UNL     1      -0.406  11.515  19.154  0.00  0.00    +0.000 A 
ATOM     11  O   UNL     1      -1.080  12.527  19.092  0.00  0.00    +0.000 OA
ATOM     12  N   UNL     1       0.285  10.903  18.096  0.00  0.00    +0.000 N 
ATOM     13  C   UNL     1       0.934   9.770  18.578  0.00  0.00    +0.000 A 
ATOM     14  C   UNL     1       1.730   8.855  17.918  0.00  0.00    +0.000 A 
ATOM     15  H   UNL     1      -0.546  10.936  21.203  0.00  0.00    +0.000 HD
ATOM     16  H   UNL     1       0.284  11.261  17.155  0.00  0.00    +0.000 HD
ENDBRANCH   3   5
BRANCH   1  17
ATOM     17  C   UNL     1       4.033   4.724  17.315  0.00  0.00    +0.000 C 
BRANCH  17  23
ATOM     18  C   UNL     1       6.216   5.948  16.822  0.00  0.00    +0.000 A 
ATOM     19  C   UNL     1       7.420   6.504  17.277  0.00  0.00    +0.000 A 
ATOM     20  C   UNL     1       7.829   6.330  18.600  0.00  0.00    +0.000 A 
ATOM     21  C   UNL     1       7.030   5.612  19.484  0.00  0.00    +0.000 A 
ATOM     22  C   UNL     1       5.809   5.096  19.051  0.00  0.00    +0.000 A 
ATOM     23  C   UNL     1       5.377   5.277  17.726  0.00  0.00    +0.000 A 
BRANCH  18  25
ATOM     24  C   UNL     1       6.328   5.055  14.642  0.00  0.00    +0.000 C 
ATOM     25  O   UNL     1       5.785   6.041  15.521  0.00  0.00    +0.000 OA
ENDBRANCH  18  25
ENDBRANCH  17  23
ENDBRANCH   1  17
TORSDOF 4
ENDMDL
MODEL 6
REMARK VINA RESULT:      -7.3      1.263      1.407
REMARK  Name = 
REMARK  5 active torsions:
REMARK  status: ('A' for Active; 'I' for Inactive)
REMARK    1  A    between atoms: C_1  and  O_2
REMARK    2  A    between atoms: O_2  and  C_3
REMARK    3  A    between atoms: C_8  and  C_9
REMARK    4  A    between atoms: C_9  and  C_10
REMARK    5  A    between atoms: N_12  and  C_13
REMARK                            x       y       z     vdW  Elec       q    Type
REMARK                         _______ _______ _______ _____ _____    ______ ____
ROOT
ATOM      1  C   UNL     1       2.833   5.154  19.340  0.00  0.00    +0.000 C 
ATOM      2  O   UNL     1       1.694   4.768  19.595  0.00  0.00    +0.000 OA
ATOM      3  N   UNL     1       3.195   6.451  19.006  0.00  0.00    +0.000 N 
ATOM      4  H   UNL     1       4.122   6.564  18.608  0.00  0.00    +0.000 HD
ENDROOT
BRANCH   3   5
ATOM      5  C   UNL     1       2.367   7.598  19.052  0.00  0.00    +0.000 A 
ATOM      6  C   UNL     1       2.083   8.382  17.905  0.00  0.00    +0.000 A 
ATOM      7  C   UNL     1       1.249   9.508  17.962  0.00  0.00    +0.000 A 
ATOM      8  C   UNL     1       0.714   9.816  19.183  0.00  0.00    +0.000 A 
ATOM      9  N   UNL     1      -0.134  10.858  19.547  0.00  0.00    +0.000 N 
ATOM     10  C   UNL     1      -0.410  10.754  20.917  0.00  0.00    +0.000 A 
ATOM     11  O   UNL     1      -1.114  11.495  21.577  0.00  0.00    +0.000 OA
ATOM     12  N   UNL     1       0.287   9.627  21.382  0.00  0.00    +0.000 N 
ATOM     13  C   UNL     1       0.973   9.051  20.318  0.00  0.00    +0.000 A 
ATOM     14  C   UNL     1       1.787   7.936  20.285  0.00  0.00    +0.000 A 
ATOM     15  H   UNL     1      -0.504  11.581  18.952  0.00  0.00    +0.000 HD
ATOM     16  H   UNL     1       0.266   9.321  22.341  0.00  0.00    +0.000 HD
ENDBRANCH   3   5
BRANCH   1  17
ATOM     17  C   UNL     1       4.003   4.187  19.386  0.00  0.00    +0.000 C 
BRANCH  17  23
ATOM     18  C   UNL     1       6.260   4.775  18.352  0.00  0.00    +0.000 A 
ATOM     19  C   UNL     1       7.106   4.807  17.235  0.00  0.00    +0.000 A 
ATOM     20  C   UNL     1       6.627   4.468  15.969  0.00  0.00    +0.000 A 
ATOM     21  C   UNL     1       5.302   4.077  15.811  0.00  0.00    +0.000 A 
ATOM     22  C   UNL     1       4.466   3.996  16.925  0.00  0.00    +0.000 A 
ATOM     23  C   UNL     1       4.940   4.320  18.208  0.00  0.00    +0.000 A 
BRANCH  18  25
ATOM     24  C   UNL     1       7.963   5.724  19.681  0.00  0.00    +0.000 C 
ATOM     25  O   UNL     1       6.658   5.146  19.614  0.00  0.00    +0.000 OA
ENDBRANCH  18  25
ENDBRANCH  17  23
ENDBRANCH   1  17
TORSDOF 4
ENDMDL
MODEL 7
REMARK VINA RESULT:      -7.3      0.844      1.093
REMARK  Name = 
REMARK  5 active torsions:
REMARK  status: ('A' for Active; 'I' for Inactive)
REMARK    1  A    between atoms: C_1  and  O_2
REMARK    2  A    between atoms: O_2  and  C_3
REMARK    3  A    between atoms: C_8  and  C_9
REMARK    4  A    between atoms: C_9  and  C_10
REMARK    5  A    between atoms: N_12  and  C_13
REMARK                            x       y       z     vdW  Elec       q    Type
REMARK                         _______ _______ _______ _____ _____    ______ ____
ROOT
ATOM      1  C   UNL     1       2.343   4.667  17.638  0.00  0.00    +0.000 C 
ATOM      2  O   UNL     1       1.166   4.405  17.878  0.00  0.00    +0.000 OA
ATOM      3  N   UNL     1       2.955   5.898  17.824  0.00  0.00    +0.000 N 
ATOM      4  H   UNL     1       3.857   6.017  17.375  0.00  0.00    +0.000 HD
ENDROOT
BRANCH   3   5
ATOM      5  C   UNL     1       2.400   7.030  18.469  0.00  0.00    +0.000 A 
ATOM      6  C   UNL     1       1.978   8.183  17.759  0.00  0.00    +0.000 A 
ATOM      7  C   UNL     1       1.415   9.291  18.409  0.00  0.00    +0.000 A 
ATOM      8  C   UNL     1       1.287   9.207  19.769  0.00  0.00    +0.000 A 
ATOM      9  N   UNL     1       0.776  10.132  20.674  0.00  0.00    +0.000 N 
ATOM     10  C   UNL     1       0.855   9.589  21.963  0.00  0.00    +0.000 A 
ATOM     11  O   UNL     1       0.502  10.118  23.000  0.00  0.00    +0.000 OA
ATOM     12  N   UNL     1       1.425   8.312  21.826  0.00  0.00    +0.000 N 
ATOM     13  C   UNL     1       1.686   8.078  20.480  0.00  0.00    +0.000 A 
ATOM     14  C   UNL     1       2.238   6.974  19.861  0.00  0.00    +0.000 A 
ATOM     15  H   UNL     1       0.406  11.046  20.470  0.00  0.00    +0.000 HD
ATOM     16  H   UNL     1       1.598   7.699  22.605  0.00  0.00    +0.000 HD
ENDBRANCH   3   5
BRANCH   1  17
ATOM     17  C   UNL     1       3.277   3.597  17.100  0.00  0.00    +0.000 C 
BRANCH  17  23
ATOM     18  C   UNL     1       5.453   4.187  18.294  0.00  0.00    +0.000 A 
ATOM     19  C   UNL     1       6.818   4.499  18.234  0.00  0.00    +0.000 A 
ATOM     20  C   UNL     1       7.447   4.712  17.006  0.00  0.00    +0.000 A 
ATOM     21  C   UNL     1       6.719   4.599  15.826  0.00  0.00    +0.000 A 
ATOM     22  C   UNL     1       5.372   4.242  15.874  0.00  0.00    +0.000 A 
ATOM     23  C   UNL     1       4.730   4.010  17.103  0.00  0.00    +0.000 A 
BRANCH  18  25
ATOM     24  C   UNL     1       4.601   2.657  19.872  0.00  0.00    +0.000 C 
ATOM     25  O   UNL     1       4.767   4.017  19.472  0.00  0.00    +0.000 OA
ENDBRANCH  18  25
ENDBRANCH  17  23
ENDBRANCH   1  17
TORSDOF 4
ENDMDL
MODEL 8
REMARK VINA RESULT:      -7.3      1.133      1.135
REMARK  Name = 
REMARK  5 active torsions:
REMARK  status: ('A' for Active; 'I' for Inactive)
REMARK    1  A    between atoms: C_1  and  O_2
REMARK    2  A    between atoms: O_2  and  C_3
REMARK    3  A    between atoms: C_8  and  C_9
REMARK    4  A    between atoms: C_9  and  C_10
REMARK    5  A    between atoms: N_12  and  C_13
REMARK                            x       y       z     vdW  Elec       q    Type
REMARK                         _______ _______ _______ _____ _____    ______ ____
ROOT
ATOM      1  C   UNL     1       4.067   5.102  18.911  0.00  0.00    +0.000 C 
ATOM      2  O   UNL     1       4.673   5.457  19.920  0.00  0.00    +0.000 OA
ATOM      3  N   UNL     1       2.953   5.727  18.370  0.00  0.00    +0.000 N 
ATOM      4  H   UNL     1       2.438   5.193  17.678  0.00  0.00    +0.000 HD
ENDROOT
BRANCH   3   5
ATOM      5  C   UNL     1       2.403   6.968  18.770  0.00  0.00    +0.000 A 
ATOM      6  C   UNL     1       2.200   8.041  17.865  0.00  0.00    +0.000 A 
ATOM      7  C   UNL     1       1.639   9.261  18.272  0.00  0.00    +0.000 A 
ATOM      8  C   UNL     1       1.291   9.368  19.591  0.00  0.00    +0.000 A 
ATOM      9  N   UNL     1       0.725  10.438  20.278  0.00  0.00    +0.000 N 
ATOM     10  C   UNL     1       0.552  10.067  21.619  0.00  0.00    +0.000 A 
ATOM     11  O   UNL     1       0.085  10.753  22.510  0.00  0.00    +0.000 OA
ATOM     12  N   UNL     1       1.023   8.749  21.736  0.00  0.00    +0.000 N 
ATOM     13  C   UNL     1       1.473   8.321  20.491  0.00  0.00    +0.000 A 
ATOM     14  C   UNL     1       2.019   7.110  20.112  0.00  0.00    +0.000 A 
ATOM     15  H   UNL     1       0.473  11.338  19.906  0.00  0.00    +0.000 HD
ATOM     16  H   UNL     1       1.018   8.236  22.601  0.00  0.00    +0.000 HD
ENDBRANCH   3   5
BRANCH   1  17
ATOM     17  C   UNL     1       4.526   3.886  18.125  0.00  0.00    +0.000 C 
BRANCH  17  23
ATOM     18  C   UNL     1       6.760   4.495  17.054  0.00  0.00    +0.000 A 
ATOM     19  C   UNL     1       7.522   4.737  15.902  0.00  0.00    +0.000 A 
ATOM     20  C   UNL     1       6.917   4.797  14.647  0.00  0.00    +0.000 A 
ATOM     21  C   UNL     1       5.544   4.599  14.529  0.00  0.00    +0.000 A 
ATOM     22  C   UNL     1       4.786   4.310  15.664  0.00  0.00    +0.000 A 
ATOM     23  C   UNL     1       5.386   4.231  16.932  0.00  0.00    +0.000 A 
BRANCH  18  25
ATOM     24  C   UNL     1       7.803   5.728  18.772  0.00  0.00    +0.000 C 
ATOM     25  O   UNL     1       7.290   4.474  18.321  0.00  0.00    +0.000 OA
ENDBRANCH  18  25
ENDBRANCH  17  23
ENDBRANCH   1  17
TORSDOF 4
ENDMDL
MODEL 9
REMARK VINA RESULT:      -7.2      5.173      7.697
REMARK  Name = 
REMARK  5 active torsions:
REMARK  status: ('A' for Active; 'I' for Inactive)
REMARK    1  A    between atoms: C_1  and  O_2
REMARK    2  A    between atoms: O_2  and  C_3
REMARK    3  A    between atoms: C_8  and  C_9
REMARK    4  A    between atoms: C_9  and  C_10
REMARK    5  A    between atoms: N_12  and  C_13
REMARK                            x       y       z     vdW  Elec       q    Type
REMARK                         _______ _______ _______ _____ _____    ______ ____
ROOT
ATOM      1  C   UNL     1       8.223   9.026  18.181  0.00  0.00    +0.000 C 
ATOM      2  O   UNL     1       8.921   8.409  18.983  0.00  0.00    +0.000 OA
ATOM      3  N   UNL     1       7.267   8.473  17.343  0.00  0.00    +0.000 N 
ATOM      4  H   UNL     1       6.940   9.069  16.589  0.00  0.00    +0.000 HD
ENDROOT
BRANCH   3   5
ATOM      5  C   UNL     1       6.797   7.138  17.360  0.00  0.00    +0.000 A 
ATOM      6  C   UNL     1       7.669   6.023  17.456  0.00  0.00    +0.000 A 
ATOM      7  C   UNL     1       7.190   4.705  17.488  0.00  0.00    +0.000 A 
ATOM      8  C   UNL     1       5.832   4.543  17.426  0.00  0.00    +0.000 A 
ATOM      9  N   UNL     1       5.073   3.377  17.435  0.00  0.00    +0.000 N 
ATOM     10  C   UNL     1       3.718   3.723  17.354  0.00  0.00    +0.000 A 
ATOM     11  O   UNL     1       2.770   2.959  17.336  0.00  0.00    +0.000 OA
ATOM     12  N   UNL     1       3.664   5.125  17.296  0.00  0.00    +0.000 N 
ATOM     13  C   UNL     1       4.961   5.627  17.343  0.00  0.00    +0.000 A 
ATOM     14  C   UNL     1       5.410   6.932  17.315  0.00  0.00    +0.000 A 
ATOM     15  H   UNL     1       5.410   2.429  17.488  0.00  0.00    +0.000 HD
ATOM     16  H   UNL     1       2.804   5.643  17.231  0.00  0.00    +0.000 HD
ENDBRANCH   3   5
BRANCH   1  17
ATOM     17  C   UNL     1       8.353  10.533  18.047  0.00  0.00    +0.000 C 
BRANCH  17  23
ATOM     18  C   UNL     1       9.838  11.356  19.953  0.00  0.00    +0.000 A 
ATOM     19  C   UNL     1      11.091  11.787  20.408  0.00  0.00    +0.000 A 
ATOM     20  C   UNL     1      12.135  12.017  19.511  0.00  0.00    +0.000 A 
ATOM     21  C   UNL     1      11.939  11.800  18.150  0.00  0.00    +0.000 A 
ATOM     22  C   UNL     1      10.710  11.325  17.694  0.00  0.00    +0.000 A 
ATOM     23  C   UNL     1       9.655  11.075  18.589  0.00  0.00    +0.000 A 
BRANCH  18  25
ATOM     24  C   UNL     1       8.724  12.015  21.924  0.00  0.00    +0.000 C 
ATOM     25  O   UNL     1       8.758  11.162  20.779  0.00  0.00    +0.000 OA
ENDBRANCH  18  25
ENDBRANCH  17  23
ENDBRANCH   1  17
TORSDOF 4
ENDMDL
