MODEL 1
REMARK VINA RESULT:      -6.8      0.000      0.000
REMARK  Name = 
REMARK  8 active torsions:
REMARK  status: ('A' for Active; 'I' for Inactive)
REMARK    1  A    between atoms: C_1  and  C_2
REMARK    2  A    between atoms: C_2  and  C_3
REMARK    3  A    between atoms: C_2  and  C_4
REMARK    4  A    between atoms: C_4  and  O_5
REMARK    5  A    between atoms: O_5  and  C_6
REMARK    6  A    between atoms: C_11  and  C_12
REMARK    7  A    between atoms: N_13  and  O_14
REMARK    8  A    between atoms: N_15  and  C_16
REMARK                            x       y       z     vdW  Elec       q    Type
REMARK                         _______ _______ _______ _____ _____    ______ ____
ROOT
ATOM      1  C   UNL     1       4.382   5.791  17.397  0.00  0.00    +0.000 A 
ATOM      2  N   UNL     1       4.686   6.694  16.425  0.00  0.00    +0.000 NA
ATOM      3  C   UNL     1       5.388   6.255  15.365  0.00  0.00    +0.000 A 
ATOM      4  C   UNL     1       5.818   4.948  15.223  0.00  0.00    +0.000 A 
ATOM      5  C   UNL     1       5.511   4.035  16.232  0.00  0.00    +0.000 A 
ATOM      6  C   UNL     1       4.787   4.453  17.359  0.00  0.00    +0.000 A 
ENDROOT
BRANCH   6   7
ATOM      7  C   UNL     1       4.433   3.457  18.438  0.00  0.00    +0.000 C 
ATOM      8  N   UNL     1       5.386   3.196  19.288  0.00  0.00    +0.000 NA
ATOM      9  N   UNL     1       3.152   2.916  18.409  0.00  0.00    +0.000 N 
ATOM     10  H   UNL     1       2.590   3.075  17.582  0.00  0.00    +0.000 HD
BRANCH   9  11
ATOM     11  C   UNL     1       2.420   2.756  19.637  0.00  0.00    +0.000 C 
ATOM     12  C   UNL     1       2.310   4.078  20.432  0.00  0.00    +0.000 C 
ATOM     13  C   UNL     1       0.784   3.921  20.461  0.00  0.00    +0.000 C 
ATOM     14  C   UNL     1       0.894   2.807  19.413  0.00  0.00    +0.000 C 
ENDBRANCH   9  11
BRANCH   8  15
ATOM     15  O   UNL     1       5.069   2.157  20.166  0.00  0.00    +0.000 OA
ATOM     16  H   UNL     1       5.777   2.237  20.830  0.00  0.00    +0.000 HD
ENDBRANCH   8  15
ENDBRANCH   6   7
BRANCH   1  17
ATOM     17  O   UNL     1       3.732   6.280  18.511  0.00  0.00    +0.000 OA
BRANCH  17  18
ATOM     18  C   UNL     1       2.434   6.798  18.200  0.00  0.00    +0.000 C 
BRANCH  18  20
ATOM     19  C   UNL     1       1.448   9.110  17.935  0.00  0.00    +0.000 C 
ATOM     20  C   UNL     1       2.275   8.188  18.834  0.00  0.00    +0.000 C 
ATOM     21  C   UNL     1       1.626   8.068  20.212  0.00  0.00    +0.000 C 
ENDBRANCH  18  20
ENDBRANCH  17  18
ENDBRANCH   1  17
TORSDOF 6
ENDMDL
MODEL 2
REMARK VINA RESULT:      -6.7      1.547      4.498
REMARK  Name = 
REMARK  8 active torsions:
REMARK  status: ('A' for Active; 'I' for Inactive)
REMARK    1  A    between atoms: C_1  and  C_2
REMARK    2  A    between atoms: C_2  and  C_3
REMARK    3  A    between atoms: C_2  and  C_4
REMARK    4  A    between atoms: C_4  and  O_5
REMARK    5  A    between atoms: O_5  and  C_6
REMARK    6  A    between atoms: C_11  and  C_12
REMARK    7  A    between atoms: N_13  and  O_14
REMARK    8  A    between atoms: N_15  and  C_16
REMARK                            x       y       z     vdW  Elec       q    Type
REMARK                         _______ _______ _______ _____ _____    ______ ____
ROOT
ATOM      1  C   UNL     1       2.725   4.668  19.328  0.00  0.00    +0.000 A 
ATOM      2  N   UNL     1       1.459   4.436  19.769  0.00  0.00    +0.000 NA
ATOM      3  C   UNL     1       0.877   3.278  19.407  0.00  0.00    +0.000 A 
ATOM      4  C   UNL     1       1.493   2.329  18.612  0.00  0.00    +0.000 A 
ATOM      5  C   UNL     1       2.787   2.585  18.156  0.00  0.00    +0.000 A 
ATOM      6  C   UNL     1       3.429   3.783  18.503  0.00  0.00    +0.000 A 
ENDROOT
BRANCH   6   7
ATOM      7  C   UNL     1       4.839   4.048  18.030  0.00  0.00    +0.000 C 
ATOM      8  N   UNL     1       5.773   3.824  18.911  0.00  0.00    +0.000 NA
ATOM      9  N   UNL     1       4.996   4.510  16.728  0.00  0.00    +0.000 N 
ATOM     10  H   UNL     1       4.168   4.812  16.230  0.00  0.00    +0.000 HD
BRANCH   9  11
ATOM     11  C   UNL     1       6.056   3.986  15.911  0.00  0.00    +0.000 C 
ATOM     12  C   UNL     1       5.619   3.781  14.441  0.00  0.00    +0.000 C 
ATOM     13  C   UNL     1       6.801   4.644  13.980  0.00  0.00    +0.000 C 
ATOM     14  C   UNL     1       7.020   5.092  15.431  0.00  0.00    +0.000 C 
ENDBRANCH   9  11
BRANCH   8  15
ATOM     15  O   UNL     1       7.038   4.233  18.486  0.00  0.00    +0.000 OA
ATOM     16  H   UNL     1       7.107   5.115  18.892  0.00  0.00    +0.000 HD
ENDBRANCH   8  15
ENDBRANCH   6   7
BRANCH   1  17
ATOM     17  O   UNL     1       3.272   5.895  19.643  0.00  0.00    +0.000 OA
BRANCH  17  18
ATOM     18  C   UNL     1       2.326   6.961  19.519  0.00  0.00    +0.000 C 
BRANCH  18  20
ATOM     19  C   UNL     1       1.696   8.878  17.997  0.00  0.00    +0.000 C 
ATOM     20  C   UNL     1       2.350   7.498  18.080  0.00  0.00    +0.000 C 
ATOM     21  C   UNL     1       3.788   7.559  17.564  0.00  0.00    +0.000 C 
ENDBRANCH  18  20
ENDBRANCH  17  18
ENDBRANCH   1  17
TORSDOF 6
ENDMDL
MODEL 3
REMARK VINA RESULT:      -6.7      2.217      5.538
REMARK  Name = 
REMARK  8 active torsions:
REMARK  status: ('A' for Active; 'I' for Inactive)
REMARK    1  A    between atoms: C_1  and  C_2
REMARK    2  A    between atoms: C_2  and  C_3
REMARK    3  A    between atoms: C_2  and  C_4
REMARK    4  A    between atoms: C_4  and  O_5
REMARK    5  A    between atoms: O_5  and  C_6
REMARK    6  A    between atoms: C_11  and  C_12
REMARK    7  A    between atoms: N_13  and  O_14
REMARK    8  A    between atoms: N_15  and  C_16
REMARK                            x       y       z     vdW  Elec       q    Type
REMARK                         _______ _______ _______ _____ _____    ______ ____
ROOT
ATOM      1  C   UNL     1       3.628   4.924  17.471  0.00  0.00    +0.000 A 
ATOM      2  N   UNL     1       2.447   5.371  17.978  0.00  0.00    +0.000 NA
ATOM      3  C   UNL     1       2.294   6.701  18.119  0.00  0.00    +0.000 A 
ATOM      4  C   UNL     1       3.271   7.621  17.785  0.00  0.00    +0.000 A 
ATOM      5  C   UNL     1       4.482   7.149  17.278  0.00  0.00    +0.000 A 
ATOM      6  C   UNL     1       4.686   5.770  17.122  0.00  0.00    +0.000 A 
ENDROOT
BRANCH   6   7
ATOM      7  C   UNL     1       5.988   5.262  16.549  0.00  0.00    +0.000 C 
ATOM      8  N   UNL     1       6.793   4.700  17.407  0.00  0.00    +0.000 NA
ATOM      9  N   UNL     1       6.202   5.454  15.188  0.00  0.00    +0.000 N 
ATOM     10  H   UNL     1       5.569   6.070  14.692  0.00  0.00    +0.000 HD
BRANCH   9  11
ATOM     11  C   UNL     1       6.784   4.399  14.404  0.00  0.00    +0.000 C 
ATOM     12  C   UNL     1       5.753   3.727  13.466  0.00  0.00    +0.000 C 
ATOM     13  C   UNL     1       6.674   4.007  12.270  0.00  0.00    +0.000 C 
ATOM     14  C   UNL     1       7.513   4.938  13.154  0.00  0.00    +0.000 C 
ENDBRANCH   9  11
BRANCH   8  15
ATOM     15  O   UNL     1       8.043   4.393  16.867  0.00  0.00    +0.000 OA
ATOM     16  H   UNL     1       8.492   5.257  16.903  0.00  0.00    +0.000 HD
ENDBRANCH   8  15
ENDBRANCH   6   7
BRANCH   1  17
ATOM     17  O   UNL     1       3.794   3.556  17.410  0.00  0.00    +0.000 OA
BRANCH  17  18
ATOM     18  C   UNL     1       2.563   2.850  17.596  0.00  0.00    +0.000 C 
BRANCH  18  20
ATOM     19  C   UNL     1       4.043   2.098  19.502  0.00  0.00    +0.000 C 
ATOM     20  C   UNL     1       2.661   1.979  18.858  0.00  0.00    +0.000 C 
ATOM     21  C   UNL     1       1.573   2.374  19.856  0.00  0.00    +0.000 C 
ENDBRANCH  18  20
ENDBRANCH  17  18
ENDBRANCH   1  17
TORSDOF 6
ENDMDL
MODEL 4
REMARK VINA RESULT:      -6.7      2.147      5.471
REMARK  Name = 
REMARK  8 active torsions:
REMARK  status: ('A' for Active; 'I' for Inactive)
REMARK    1  A    between atoms: C_1  and  C_2
REMARK    2  A    between atoms: C_2  and  C_3
REMARK    3  A    between atoms: C_2  and  C_4
REMARK    4  A    between atoms: C_4  and  O_5
REMARK    5  A    between atoms: O_5  and  C_6
REMARK    6  A    between atoms: C_11  and  C_12
REMARK    7  A    between atoms: N_13  and  O_14
REMARK    8  A    between atoms: N_15  and  C_16
REMARK                            x       y       z     vdW  Elec       q    Type
REMARK                         _______ _______ _______ _____ _____    ______ ____
ROOT
ATOM      1  C   UNL     1       3.435   4.619  19.716  0.00  0.00    +0.000 A 
ATOM      2  N   UNL     1       3.550   3.272  19.867  0.00  0.00    +0.000 NA
ATOM      3  C   UNL     1       2.469   2.600  20.306  0.00  0.00    +0.000 A 
ATOM      4  C   UNL     1       1.266   3.208  20.614  0.00  0.00    +0.000 A 
ATOM      5  C   UNL     1       1.165   4.592  20.465  0.00  0.00    +0.000 A 
ATOM      6  C   UNL     1       2.270   5.331  20.018  0.00  0.00    +0.000 A 
ENDROOT
BRANCH   6   7
ATOM      7  C   UNL     1       2.151   6.826  19.834  0.00  0.00    +0.000 C 
ATOM      8  N   UNL     1       2.196   7.240  18.599  0.00  0.00    +0.000 NA
ATOM      9  N   UNL     1       2.022   7.600  20.983  0.00  0.00    +0.000 N 
ATOM     10  H   UNL     1       2.191   7.153  21.876  0.00  0.00    +0.000 HD
BRANCH   9  11
ATOM     11  C   UNL     1       1.090   8.694  21.002  0.00  0.00    +0.000 C 
ATOM     12  C   UNL     1      -0.335   8.245  21.403  0.00  0.00    +0.000 C 
ATOM     13  C   UNL     1      -0.341   9.298  22.520  0.00  0.00    +0.000 C 
ATOM     14  C   UNL     1       1.167   9.499  22.317  0.00  0.00    +0.000 C 
ENDBRANCH   9  11
BRANCH   8  15
ATOM     15  O   UNL     1       2.245   8.631  18.488  0.00  0.00    +0.000 OA
ATOM     16  H   UNL     1       2.397   8.748  17.533  0.00  0.00    +0.000 HD
ENDBRANCH   8  15
ENDBRANCH   6   7
BRANCH   1  17
ATOM     17  O   UNL     1       4.577   5.297  19.342  0.00  0.00    +0.000 OA
BRANCH  17  18
ATOM     18  C   UNL     1       5.312   4.606  18.327  0.00  0.00    +0.000 C 
BRANCH  18  20
ATOM     19  C   UNL     1       5.148   6.513  16.676  0.00  0.00    +0.000 C 
ATOM     20  C   UNL     1       4.808   5.045  16.944  0.00  0.00    +0.000 C 
ATOM     21  C   UNL     1       5.406   4.154  15.857  0.00  0.00    +0.000 C 
ENDBRANCH  18  20
ENDBRANCH  17  18
ENDBRANCH   1  17
TORSDOF 6
ENDMDL
MODEL 5
REMARK VINA RESULT:      -6.7      1.975      4.416
REMARK  Name = 
REMARK  8 active torsions:
REMARK  status: ('A' for Active; 'I' for Inactive)
REMARK    1  A    between atoms: C_1  and  C_2
REMARK    2  A    between atoms: C_2  and  C_3
REMARK    3  A    between atoms: C_2  and  C_4
REMARK    4  A    between atoms: C_4  and  O_5
REMARK    5  A    between atoms: O_5  and  C_6
REMARK    6  A    between atoms: C_11  and  C_12
REMARK    7  A    between atoms: N_13  and  O_14
REMARK    8  A    between atoms: N_15  and  C_16
REMARK                            x       y       z     vdW  Elec       q    Type
REMARK                         _______ _______ _______ _____ _____    ______ ____
ROOT
ATOM      1  C   UNL     1       3.040   4.986  19.712  0.00  0.00    +0.000 A 
ATOM      2  N   UNL     1       2.009   5.044  20.597  0.00  0.00    +0.000 NA
ATOM      3  C   UNL     1       1.523   3.879  21.064  0.00  0.00    +0.000 A 
ATOM      4  C   UNL     1       2.011   2.642  20.685  0.00  0.00    +0.000 A 
ATOM      5  C   UNL     1       3.060   2.596  19.766  0.00  0.00    +0.000 A 
ATOM      6  C   UNL     1       3.592   3.787  19.249  0.00  0.00    +0.000 A 
ENDROOT
BRANCH   6   7
ATOM      7  C   UNL     1       4.745   3.736  18.274  0.00  0.00    +0.000 C 
ATOM      8  N   UNL     1       4.436   3.361  17.065  0.00  0.00    +0.000 NA
ATOM      9  N   UNL     1       6.003   4.074  18.760  0.00  0.00    +0.000 N 
ATOM     10  H   UNL     1       6.115   4.163  19.762  0.00  0.00    +0.000 HD
BRANCH   9  11
ATOM     11  C   UNL     1       6.877   4.892  17.962  0.00  0.00    +0.000 C 
ATOM     12  C   UNL     1       6.296   6.304  17.714  0.00  0.00    +0.000 C 
ATOM     13  C   UNL     1       7.583   6.921  18.279  0.00  0.00    +0.000 C 
ATOM     14  C   UNL     1       7.995   5.541  18.806  0.00  0.00    +0.000 C 
ENDBRANCH   9  11
BRANCH   8  15
ATOM     15  O   UNL     1       5.551   3.174  16.246  0.00  0.00    +0.000 OA
ATOM     16  H   UNL     1       6.161   3.853  16.586  0.00  0.00    +0.000 HD
ENDBRANCH   8  15
ENDBRANCH   6   7
BRANCH   1  17
ATOM     17  O   UNL     1       3.469   6.187  19.185  0.00  0.00    +0.000 OA
BRANCH  17  18
ATOM     18  C   UNL     1       2.478   6.802  18.355  0.00  0.00    +0.000 C 
BRANCH  18  20
ATOM     19  C   UNL     1       1.517   9.050  17.716  0.00  0.00    +0.000 C 
ATOM     20  C   UNL     1       2.306   8.271  18.770  0.00  0.00    +0.000 C 
ATOM     21  C   UNL     1       1.610   8.357  20.127  0.00  0.00    +0.000 C 
ENDBRANCH  18  20
ENDBRANCH  17  18
ENDBRANCH   1  17
TORSDOF 6
ENDMDL
MODEL 6
REMARK VINA RESULT:      -6.6      1.701      4.837
REMARK  Name = 
REMARK  8 active torsions:
REMARK  status: ('A' for Active; 'I' for Inactive)
REMARK    1  A    between atoms: C_1  and  C_2
REMARK    2  A    between atoms: C_2  and  C_3
REMARK    3  A    between atoms: C_2  and  C_4
REMARK    4  A    between atoms: C_4  and  O_5
REMARK    5  A    between atoms: O_5  and  C_6
REMARK    6  A    between atoms: C_11  and  C_12
REMARK    7  A    between atoms: N_13  and  O_14
REMARK    8  A    between atoms: N_15  and  C_16
REMARK                            x       y       z     vdW  Elec       q    Type
REMARK                         _______ _______ _______ _____ _____    ______ ____
ROOT
ATOM      1  C   UNL     1       2.799   6.122  19.366  0.00  0.00    +0.000 A 
ATOM      2  N   UNL     1       2.130   7.247  19.736  0.00  0.00    +0.000 NA
ATOM      3  C   UNL     1       2.139   8.287  18.882  0.00  0.00    +0.000 A 
ATOM      4  C   UNL     1       2.796   8.268  17.665  0.00  0.00    +0.000 A 
ATOM      5  C   UNL     1       3.489   7.113  17.303  0.00  0.00    +0.000 A 
ATOM      6  C   UNL     1       3.511   6.008  18.167  0.00  0.00    +0.000 A 
ENDROOT
BRANCH   6   7
ATOM      7  C   UNL     1       4.241   4.750  17.762  0.00  0.00    +0.000 C 
ATOM      8  N   UNL     1       3.535   3.656  17.812  0.00  0.00    +0.000 NA
ATOM      9  N   UNL     1       5.578   4.879  17.398  0.00  0.00    +0.000 N 
ATOM     10  H   UNL     1       6.037   5.761  17.588  0.00  0.00    +0.000 HD
BRANCH   9  11
ATOM     11  C   UNL     1       6.079   4.149  16.265  0.00  0.00    +0.000 C 
ATOM     12  C   UNL     1       5.398   4.577  14.943  0.00  0.00    +0.000 C 
ATOM     13  C   UNL     1       6.780   4.856  14.334  0.00  0.00    +0.000 C 
ATOM     14  C   UNL     1       7.401   4.741  15.732  0.00  0.00    +0.000 C 
ENDBRANCH   9  11
BRANCH   8  15
ATOM     15  O   UNL     1       4.290   2.503  17.587  0.00  0.00    +0.000 OA
ATOM     16  H   UNL     1       5.190   2.869  17.509  0.00  0.00    +0.000 HD
ENDBRANCH   8  15
ENDBRANCH   6   7
BRANCH   1  17
ATOM     17  O   UNL     1       2.844   5.099  20.291  0.00  0.00    +0.000 OA
BRANCH  17  18
ATOM     18  C   UNL     1       1.575   4.871  20.911  0.00  0.00    +0.000 C 
BRANCH  18  20
ATOM     19  C   UNL     1       0.806   2.823  19.645  0.00  0.00    +0.000 C 
ATOM     20  C   UNL     1       1.309   3.360  20.987  0.00  0.00    +0.000 C 
ATOM     21  C   UNL     1       2.577   2.622  21.413  0.00  0.00    +0.000 C 
ENDBRANCH  18  20
ENDBRANCH  17  18
ENDBRANCH   1  17
TORSDOF 6
ENDMDL
MODEL 7
REMARK VINA RESULT:      -6.6      1.853      4.486
REMARK  Name = 
REMARK  8 active torsions:
REMARK  status: ('A' for Active; 'I' for Inactive)
REMARK    1  A    between atoms: C_1  and  C_2
REMARK    2  A    between atoms: C_2  and  C_3
REMARK    3  A    between atoms: C_2  and  C_4
REMARK    4  A    between atoms: C_4  and  O_5
REMARK    5  A    between atoms: O_5  and  C_6
REMARK    6  A    between atoms: C_11  and  C_12
REMARK    7  A    between atoms: N_13  and  O_14
REMARK    8  A    between atoms: N_15  and  C_16
REMARK                            x       y       z     vdW  Elec       q    Type
REMARK                         _______ _______ _______ _____ _____    ______ ____
ROOT
ATOM      1  C   UNL     1       2.468   6.815  19.543  0.00  0.00    +0.000 A 
ATOM      2  N   UNL     1       1.721   7.706  20.250  0.00  0.00    +0.000 NA
ATOM      3  C   UNL     1       1.384   8.858  19.641  0.00  0.00    +0.000 A 
ATOM      4  C   UNL     1       1.764   9.179  18.351  0.00  0.00    +0.000 A 
ATOM      5  C   UNL     1       2.541   8.263  17.641  0.00  0.00    +0.000 A 
ATOM      6  C   UNL     1       2.920   7.052  18.240  0.00  0.00    +0.000 A 
ENDROOT
BRANCH   6   7
ATOM      7  C   UNL     1       3.740   6.051  17.461  0.00  0.00    +0.000 C 
ATOM      8  N   UNL     1       4.773   6.541  16.837  0.00  0.00    +0.000 NA
ATOM      9  N   UNL     1       3.307   4.728  17.474  0.00  0.00    +0.000 N 
ATOM     10  H   UNL     1       2.387   4.535  17.848  0.00  0.00    +0.000 HD
BRANCH   9  11
ATOM     11  C   UNL     1       4.269   3.668  17.611  0.00  0.00    +0.000 C 
ATOM     12  C   UNL     1       4.853   3.585  19.041  0.00  0.00    +0.000 C 
ATOM     13  C   UNL     1       4.440   2.109  19.113  0.00  0.00    +0.000 C 
ATOM     14  C   UNL     1       3.594   2.300  17.848  0.00  0.00    +0.000 C 
ENDBRANCH   9  11
BRANCH   8  15
ATOM     15  O   UNL     1       5.403   5.614  16.005  0.00  0.00    +0.000 OA
ATOM     16  H   UNL     1       5.841   5.033  16.652  0.00  0.00    +0.000 HD
ENDBRANCH   8  15
ENDBRANCH   6   7
BRANCH   1  17
ATOM     17  O   UNL     1       2.869   5.678  20.212  0.00  0.00    +0.000 OA
BRANCH  17  18
ATOM     18  C   UNL     1       1.798   5.071  20.942  0.00  0.00    +0.000 C 
BRANCH  18  20
ATOM     19  C   UNL     1       1.493   2.717  21.811  0.00  0.00    +0.000 C 
ATOM     20  C   UNL     1       1.705   3.584  20.568  0.00  0.00    +0.000 C 
ATOM     21  C   UNL     1       0.574   3.362  19.566  0.00  0.00    +0.000 C 
ENDBRANCH  18  20
ENDBRANCH  17  18
ENDBRANCH   1  17
TORSDOF 6
ENDMDL
MODEL 8
REMARK VINA RESULT:      -6.6      1.634      2.070
REMARK  Name = 
REMARK  8 active torsions:
REMARK  status: ('A' for Active; 'I' for Inactive)
REMARK    1  A    between atoms: C_1  and  C_2
REMARK    2  A    between atoms: C_2  and  C_3
REMARK    3  A    between atoms: C_2  and  C_4
REMARK    4  A    between atoms: C_4  and  O_5
REMARK    5  A    between atoms: O_5  and  C_6
REMARK    6  A    between atoms: C_11  and  C_12
REMARK    7  A    between atoms: N_13  and  O_14
REMARK    8  A    between atoms: N_15  and  C_16
REMARK                            x       y       z     vdW  Elec       q    Type
REMARK                         _______ _______ _______ _____ _____    ______ ____
ROOT
ATOM      1  C   UNL     1       4.918   5.750  17.294  0.00  0.00    +0.000 A 
ATOM      2  N   UNL     1       6.083   6.148  16.714  0.00  0.00    +0.000 NA
ATOM      3  C   UNL     1       6.709   5.271  15.908  0.00  0.00    +0.000 A 
ATOM      4  C   UNL     1       6.234   3.997  15.651  0.00  0.00    +0.000 A 
ATOM      5  C   UNL     1       5.045   3.597  16.261  0.00  0.00    +0.000 A 
ATOM      6  C   UNL     1       4.364   4.478  17.115  0.00  0.00    +0.000 A 
ENDROOT
BRANCH   6   7
ATOM      7  C   UNL     1       3.064   4.052  17.755  0.00  0.00    +0.000 C 
ATOM      8  N   UNL     1       2.111   3.736  16.924  0.00  0.00    +0.000 NA
ATOM      9  N   UNL     1       3.009   4.055  19.145  0.00  0.00    +0.000 N 
ATOM     10  H   UNL     1       3.765   4.502  19.648  0.00  0.00    +0.000 HD
BRANCH   9  11
ATOM     11  C   UNL     1       2.361   2.970  19.833  0.00  0.00    +0.000 C 
ATOM     12  C   UNL     1       3.088   2.589  21.144  0.00  0.00    +0.000 C 
ATOM     13  C   UNL     1       1.774   2.775  21.915  0.00  0.00    +0.000 C 
ATOM     14  C   UNL     1       1.164   3.452  20.680  0.00  0.00    +0.000 C 
ENDBRANCH   9  11
BRANCH   8  15
ATOM     15  O   UNL     1       0.887   3.506  17.553  0.00  0.00    +0.000 OA
ATOM     16  H   UNL     1       1.113   3.659  18.488  0.00  0.00    +0.000 HD
ENDBRANCH   8  15
ENDBRANCH   6   7
BRANCH   1  17
ATOM     17  O   UNL     1       4.337   6.634  18.179  0.00  0.00    +0.000 OA
BRANCH  17  18
ATOM     18  C   UNL     1       3.611   7.672  17.512  0.00  0.00    +0.000 C 
BRANCH  18  20
ATOM     19  C   UNL     1       2.224   7.435  19.612  0.00  0.00    +0.000 C 
ATOM     20  C   UNL     1       2.206   7.784  18.122  0.00  0.00    +0.000 C 
ATOM     21  C   UNL     1       1.651   9.192  17.913  0.00  0.00    +0.000 C 
ENDBRANCH  18  20
ENDBRANCH  17  18
ENDBRANCH   1  17
TORSDOF 6
ENDMDL
MODEL 9
REMARK VINA RESULT:      -6.6      2.380      5.614
REMARK  Name = 
REMARK  8 active torsions:
REMARK  status: ('A' for Active; 'I' for Inactive)
REMARK    1  A    between atoms: C_1  and  C_2
REMARK    2  A    between atoms: C_2  and  C_3
REMARK    3  A    between atoms: C_2  and  C_4
REMARK    4  A    between atoms: C_4  and  O_5
REMARK    5  A    between atoms: O_5  and  C_6
REMARK    6  A    between atoms: C_11  and  C_12
REMARK    7  A    between atoms: N_13  and  O_14
REMARK    8  A    between atoms: N_15  and  C_16
REMARK                            x       y       z     vdW  Elec       q    Type
REMARK                         _______ _______ _______ _____ _____    ______ ____
ROOT
ATOM      1  C   UNL     1       3.495   4.717  19.778  0.00  0.00    +0.000 A 
ATOM      2  N   UNL     1       3.636   3.369  19.902  0.00  0.00    +0.000 NA
ATOM      3  C   UNL     1       2.544   2.656  20.233  0.00  0.00    +0.000 A 
ATOM      4  C   UNL     1       1.303   3.222  20.459  0.00  0.00    +0.000 A 
ATOM      5  C   UNL     1       1.174   4.607  20.342  0.00  0.00    +0.000 A 
ATOM      6  C   UNL     1       2.289   5.389  20.005  0.00  0.00    +0.000 A 
ENDROOT
BRANCH   6   7
ATOM      7  C   UNL     1       2.142   6.884  19.853  0.00  0.00    +0.000 C 
ATOM      8  N   UNL     1       2.174   7.325  18.627  0.00  0.00    +0.000 NA
ATOM      9  N   UNL     1       2.004   7.631  21.018  0.00  0.00    +0.000 N 
ATOM     10  H   UNL     1       2.185   7.169  21.901  0.00  0.00    +0.000 HD
BRANCH   9  11
ATOM     11  C   UNL     1       1.052   8.708  21.064  0.00  0.00    +0.000 C 
ATOM     12  C   UNL     1      -0.364   8.223  21.455  0.00  0.00    +0.000 C 
ATOM     13  C   UNL     1      -0.388   9.249  22.598  0.00  0.00    +0.000 C 
ATOM     14  C   UNL     1       1.116   9.482  22.398  0.00  0.00    +0.000 C 
ENDBRANCH   9  11
BRANCH   8  15
ATOM     15  O   UNL     1       2.197   8.719  18.545  0.00  0.00    +0.000 OA
ATOM     16  H   UNL     1       1.294   8.913  18.234  0.00  0.00    +0.000 HD
ENDBRANCH   8  15
ENDBRANCH   6   7
BRANCH   1  17
ATOM     17  O   UNL     1       4.643   5.436  19.516  0.00  0.00    +0.000 OA
BRANCH  17  18
ATOM     18  C   UNL     1       5.127   5.223  18.186  0.00  0.00    +0.000 C 
BRANCH  18  20
ATOM     19  C   UNL     1       7.162   4.565  16.839  0.00  0.00    +0.000 C 
ATOM     20  C   UNL     1       6.599   4.786  18.244  0.00  0.00    +0.000 C 
ATOM     21  C   UNL     1       7.429   5.828  18.992  0.00  0.00    +0.000 C 
ENDBRANCH  18  20
ENDBRANCH  17  18
ENDBRANCH   1  17
TORSDOF 6
ENDMDL
