MODEL 1
REMARK VINA RESULT:      -8.5      0.000      0.000
REMARK  Name = 
REMARK  9 active torsions:
REMARK  status: ('A' for Active; 'I' for Inactive)
REMARK    1  A    between atoms: C_1  and  O_2
REMARK    2  A    between atoms: O_2  and  C_3
REMARK    3  A    between atoms: C_6  and  C_7
REMARK    4  A    between atoms: C_7  and  C_9
REMARK    5  A    between atoms: C_9  and  C_10
REMARK    6  A    between atoms: C_10  and  C_11
REMARK    7  A    between atoms: N_13  and  C_14
REMARK    8  A    between atoms: C_16  and  C_17
REMARK    9  A    between atoms: C_17  and  C_18
REMARK                            x       y       z     vdW  Elec       q    Type
REMARK                         _______ _______ _______ _____ _____    ______ ____
ROOT
ATOM      1  C   UNL     1       2.399   6.718  19.024  0.00  0.00    +0.000 A 
ATOM      2  C   UNL     1       2.112   7.902  18.337  0.00  0.00    +0.000 A 
ATOM      3  C   UNL     1       1.524   8.996  18.982  0.00  0.00    +0.000 A 
ATOM      4  C   UNL     1       1.072   8.851  20.295  0.00  0.00    +0.000 A 
ATOM      5  C   UNL     1       1.309   7.661  20.986  0.00  0.00    +0.000 A 
ATOM      6  C   UNL     1       1.985   6.614  20.356  0.00  0.00    +0.000 A 
ATOM      7  F   UNL     1       2.303   5.527  21.075  0.00  0.00    +0.000 F 
ENDROOT
BRANCH   1  10
ATOM      8  C   UNL     1       2.576   4.455  18.052  0.00  0.00    +0.000 C 
ATOM      9  O   UNL     1       1.395   4.143  18.208  0.00  0.00    +0.000 OA
ATOM     10  N   UNL     1       3.140   5.663  18.430  0.00  0.00    +0.000 N 
ATOM     11  H   UNL     1       4.068   5.897  18.093  0.00  0.00    +0.000 HD
BRANCH   8  12
ATOM     12  C   UNL     1       3.522   3.499  17.359  0.00  0.00    +0.000 C 
BRANCH  12  13
ATOM     13  C   UNL     1       4.171   4.234  16.179  0.00  0.00    +0.000 C 
BRANCH  13  14
ATOM     14  C   UNL     1       5.673   4.146  16.159  0.00  0.00    +0.000 C 
ATOM     15  O   UNL     1       6.258   3.225  15.582  0.00  0.00    +0.000 OA
BRANCH  14  19
ATOM     16  C   UNL     1       7.952   7.162  18.226  0.00  0.00    +0.000 A 
ATOM     17  C   UNL     1       7.881   5.856  18.712  0.00  0.00    +0.000 A 
ATOM     18  C   UNL     1       7.158   4.883  18.017  0.00  0.00    +0.000 A 
ATOM     19  C   UNL     1       6.463   5.215  16.848  0.00  0.00    +0.000 A 
ATOM     20  C   UNL     1       6.526   6.531  16.372  0.00  0.00    +0.000 A 
ATOM     21  C   UNL     1       7.261   7.500  17.063  0.00  0.00    +0.000 A 
BRANCH  16  23
ATOM     22  C   UNL     1       8.622   9.395  18.588  0.00  0.00    +0.000 C 
ATOM     23  O   UNL     1       8.689   8.030  18.985  0.00  0.00    +0.000 OA
ENDBRANCH  16  23
ENDBRANCH  14  19
ENDBRANCH  13  14
ENDBRANCH  12  13
ENDBRANCH   8  12
ENDBRANCH   1  10
BRANCH   3  24
ATOM     24  C   UNL     1       1.476  10.337  18.288  0.00  0.00    +0.000 C 
BRANCH  24  25
ATOM     25  C   UNL     1       0.439  11.291  18.859  0.00  0.00    +0.000 A 
ATOM     26  N   UNL     1       0.880  12.248  19.622  0.00  0.00    +0.000 NA
ATOM     27  N   UNL     1      -0.036  13.112  20.132  0.00  0.00    +0.000 N 
ATOM     28  C   UNL     1      -1.389  13.071  19.923  0.00  0.00    +0.000 A 
ATOM     29  O   UNL     1      -2.160  13.857  20.462  0.00  0.00    +0.000 OA
ATOM     30  C   UNL     1      -1.867  12.016  18.995  0.00  0.00    +0.000 A 
ATOM     31  C   UNL     1      -0.999  11.124  18.485  0.00  0.00    +0.000 A 
ATOM     32  C   UNL     1      -1.435  10.008  17.576  0.00  0.00    +0.000 C 
ATOM     33  C   UNL     1      -2.952   9.814  17.551  0.00  0.00    +0.000 C 
ATOM     34  C   UNL     1      -3.652  11.162  17.437  0.00  0.00    +0.000 C 
ATOM     35  C   UNL     1      -3.335  12.020  18.665  0.00  0.00    +0.000 C 
ATOM     36  H   UNL     1       0.314  13.818  20.771  0.00  0.00    +0.000 HD
ENDBRANCH  24  25
ENDBRANCH   3  24
TORSDOF 8
ENDMDL
MODEL 2
REMARK VINA RESULT:      -8.3      2.264      3.281
REMARK  Name = 
REMARK  9 active torsions:
REMARK  status: ('A' for Active; 'I' for Inactive)
REMARK    1  A    between atoms: C_1  and  O_2
REMARK    2  A    between atoms: O_2  and  C_3
REMARK    3  A    between atoms: C_6  and  C_7
REMARK    4  A    between atoms: C_7  and  C_9
REMARK    5  A    between atoms: C_9  and  C_10
REMARK    6  A    between atoms: C_10  and  C_11
REMARK    7  A    between atoms: N_13  and  C_14
REMARK    8  A    between atoms: C_16  and  C_17
REMARK    9  A    between atoms: C_17  and  C_18
REMARK                            x       y       z     vdW  Elec       q    Type
REMARK                         _______ _______ _______ _____ _____    ______ ____
ROOT
ATOM      1  C   UNL     1       2.168   7.347  19.912  0.00  0.00    +0.000 A 
ATOM      2  C   UNL     1       1.561   8.395  20.611  0.00  0.00    +0.000 A 
ATOM      3  C   UNL     1       1.055   9.518  19.948  0.00  0.00    +0.000 A 
ATOM      4  C   UNL     1       1.298   9.670  18.581  0.00  0.00    +0.000 A 
ATOM      5  C   UNL     1       1.942   8.654  17.872  0.00  0.00    +0.000 A 
ATOM      6  C   UNL     1       2.353   7.496  18.534  0.00  0.00    +0.000 A 
ATOM      7  F   UNL     1       2.863   6.487  17.812  0.00  0.00    +0.000 F 
ENDROOT
BRANCH   1  10
ATOM      8  C   UNL     1       1.733   5.004  20.562  0.00  0.00    +0.000 C 
ATOM      9  O   UNL     1       0.610   4.927  20.063  0.00  0.00    +0.000 OA
ATOM     10  N   UNL     1       2.538   6.132  20.547  0.00  0.00    +0.000 N 
ATOM     11  H   UNL     1       3.513   6.042  20.815  0.00  0.00    +0.000 HD
BRANCH   8  12
ATOM     12  C   UNL     1       2.352   3.788  21.217  0.00  0.00    +0.000 C 
BRANCH  12  13
ATOM     13  C   UNL     1       2.726   2.786  20.117  0.00  0.00    +0.000 C 
BRANCH  13  14
ATOM     14  C   UNL     1       4.202   2.717  19.834  0.00  0.00    +0.000 C 
ATOM     15  O   UNL     1       4.919   1.854  20.348  0.00  0.00    +0.000 OA
BRANCH  14  19
ATOM     16  C   UNL     1       5.937   5.658  17.205  0.00  0.00    +0.000 A 
ATOM     17  C   UNL     1       6.128   5.726  18.586  0.00  0.00    +0.000 A 
ATOM     18  C   UNL     1       5.579   4.750  19.423  0.00  0.00    +0.000 A 
ATOM     19  C   UNL     1       4.798   3.717  18.893  0.00  0.00    +0.000 A 
ATOM     20  C   UNL     1       4.597   3.661  17.507  0.00  0.00    +0.000 A 
ATOM     21  C   UNL     1       5.159   4.632  16.670  0.00  0.00    +0.000 A 
BRANCH  16  23
ATOM     22  C   UNL     1       7.494   7.430  17.182  0.00  0.00    +0.000 C 
ATOM     23  O   UNL     1       6.521   6.662  16.483  0.00  0.00    +0.000 OA
ENDBRANCH  16  23
ENDBRANCH  14  19
ENDBRANCH  13  14
ENDBRANCH  12  13
ENDBRANCH   8  12
ENDBRANCH   1  10
BRANCH   3  24
ATOM     24  C   UNL     1       0.176  10.495  20.693  0.00  0.00    +0.000 C 
BRANCH  24  25
ATOM     25  C   UNL     1      -1.077  10.902  19.935  0.00  0.00    +0.000 A 
ATOM     26  N   UNL     1      -1.338  10.250  18.840  0.00  0.00    +0.000 NA
ATOM     27  N   UNL     1      -2.460  10.599  18.158  0.00  0.00    +0.000 N 
ATOM     28  C   UNL     1      -3.347  11.581  18.511  0.00  0.00    +0.000 A 
ATOM     29  O   UNL     1      -4.312  11.874  17.814  0.00  0.00    +0.000 OA
ATOM     30  C   UNL     1      -3.072  12.267  19.797  0.00  0.00    +0.000 A 
ATOM     31  C   UNL     1      -1.961  11.971  20.495  0.00  0.00    +0.000 A 
ATOM     32  C   UNL     1      -1.610  12.666  21.781  0.00  0.00    +0.000 C 
ATOM     33  C   UNL     1      -2.454  13.917  22.035  0.00  0.00    +0.000 C 
ATOM     34  C   UNL     1      -3.920  13.630  21.737  0.00  0.00    +0.000 C 
ATOM     35  C   UNL     1      -4.092  13.273  20.259  0.00  0.00    +0.000 C 
ATOM     36  H   UNL     1      -2.621  10.123  17.277  0.00  0.00    +0.000 HD
ENDBRANCH  24  25
ENDBRANCH   3  24
TORSDOF 8
ENDMDL
MODEL 3
REMARK VINA RESULT:      -8.2      1.448      2.514
REMARK  Name = 
REMARK  9 active torsions:
REMARK  status: ('A' for Active; 'I' for Inactive)
REMARK    1  A    between atoms: C_1  and  O_2
REMARK    2  A    between atoms: O_2  and  C_3
REMARK    3  A    between atoms: C_6  and  C_7
REMARK    4  A    between atoms: C_7  and  C_9
REMARK    5  A    between atoms: C_9  and  C_10
REMARK    6  A    between atoms: C_10  and  C_11
REMARK    7  A    between atoms: N_13  and  C_14
REMARK    8  A    between atoms: C_16  and  C_17
REMARK    9  A    between atoms: C_17  and  C_18
REMARK                            x       y       z     vdW  Elec       q    Type
REMARK                         _______ _______ _______ _____ _____    ______ ____
ROOT
ATOM      1  C   UNL     1       2.353   6.352  18.917  0.00  0.00    +0.000 A 
ATOM      2  C   UNL     1       2.154   7.534  18.196  0.00  0.00    +0.000 A 
ATOM      3  C   UNL     1       1.726   8.709  18.824  0.00  0.00    +0.000 A 
ATOM      4  C   UNL     1       1.339   8.663  20.165  0.00  0.00    +0.000 A 
ATOM      5  C   UNL     1       1.488   7.481  20.893  0.00  0.00    +0.000 A 
ATOM      6  C   UNL     1       2.010   6.344  20.273  0.00  0.00    +0.000 A 
ATOM      7  F   UNL     1       2.252   5.256  21.020  0.00  0.00    +0.000 F 
ENDROOT
BRANCH   1  10
ATOM      8  C   UNL     1       2.218   4.256  17.618  0.00  0.00    +0.000 C 
ATOM      9  O   UNL     1       1.001   4.283  17.435  0.00  0.00    +0.000 OA
ATOM     10  N   UNL     1       2.940   5.200  18.330  0.00  0.00    +0.000 N 
ATOM     11  H   UNL     1       3.953   5.193  18.266  0.00  0.00    +0.000 HD
BRANCH   8  12
ATOM     12  C   UNL     1       3.049   3.151  17.002  0.00  0.00    +0.000 C 
BRANCH  12  13
ATOM     13  C   UNL     1       4.489   3.290  17.512  0.00  0.00    +0.000 C 
BRANCH  13  14
ATOM     14  C   UNL     1       5.375   4.111  16.614  0.00  0.00    +0.000 C 
ATOM     15  O   UNL     1       5.380   3.951  15.390  0.00  0.00    +0.000 OA
BRANCH  14  19
ATOM     16  C   UNL     1       7.883   7.173  18.317  0.00  0.00    +0.000 A 
ATOM     17  C   UNL     1       6.992   7.466  17.284  0.00  0.00    +0.000 A 
ATOM     18  C   UNL     1       6.167   6.467  16.759  0.00  0.00    +0.000 A 
ATOM     19  C   UNL     1       6.254   5.153  17.233  0.00  0.00    +0.000 A 
ATOM     20  C   UNL     1       7.161   4.861  18.261  0.00  0.00    +0.000 A 
ATOM     21  C   UNL     1       7.975   5.866  18.794  0.00  0.00    +0.000 A 
BRANCH  16  23
ATOM     22  C   UNL     1       8.402   9.464  18.094  0.00  0.00    +0.000 C 
ATOM     23  O   UNL     1       8.638   8.226  18.756  0.00  0.00    +0.000 OA
ENDBRANCH  16  23
ENDBRANCH  14  19
ENDBRANCH  13  14
ENDBRANCH  12  13
ENDBRANCH   8  12
ENDBRANCH   1  10
BRANCH   3  24
ATOM     24  C   UNL     1       1.780  10.020  18.076  0.00  0.00    +0.000 C 
BRANCH  24  25
ATOM     25  C   UNL     1       0.825  11.076  18.609  0.00  0.00    +0.000 A 
ATOM     26  N   UNL     1      -0.348  10.666  18.995  0.00  0.00    +0.000 NA
ATOM     27  N   UNL     1      -1.207  11.599  19.481  0.00  0.00    +0.000 N 
ATOM     28  C   UNL     1      -0.959  12.940  19.601  0.00  0.00    +0.000 A 
ATOM     29  O   UNL     1      -1.806  13.731  20.001  0.00  0.00    +0.000 OA
ATOM     30  C   UNL     1       0.406  13.380  19.222  0.00  0.00    +0.000 A 
ATOM     31  C   UNL     1       1.283  12.496  18.713  0.00  0.00    +0.000 A 
ATOM     32  C   UNL     1       2.663  12.895  18.271  0.00  0.00    +0.000 C 
ATOM     33  C   UNL     1       2.843  14.411  18.169  0.00  0.00    +0.000 C 
ATOM     34  C   UNL     1       2.243  15.095  19.390  0.00  0.00    +0.000 C 
ATOM     35  C   UNL     1       0.737  14.831  19.448  0.00  0.00    +0.000 C 
ATOM     36  H   UNL     1      -2.137  11.275  19.725  0.00  0.00    +0.000 HD
ENDBRANCH  24  25
ENDBRANCH   3  24
TORSDOF 8
ENDMDL
MODEL 4
REMARK VINA RESULT:      -8.1      1.929      2.898
REMARK  Name = 
REMARK  9 active torsions:
REMARK  status: ('A' for Active; 'I' for Inactive)
REMARK    1  A    between atoms: C_1  and  O_2
REMARK    2  A    between atoms: O_2  and  C_3
REMARK    3  A    between atoms: C_6  and  C_7
REMARK    4  A    between atoms: C_7  and  C_9
REMARK    5  A    between atoms: C_9  and  C_10
REMARK    6  A    between atoms: C_10  and  C_11
REMARK    7  A    between atoms: N_13  and  C_14
REMARK    8  A    between atoms: C_16  and  C_17
REMARK    9  A    between atoms: C_17  and  C_18
REMARK                            x       y       z     vdW  Elec       q    Type
REMARK                         _______ _______ _______ _____ _____    ______ ____
ROOT
ATOM      1  C   UNL     1       2.326   6.519  20.109  0.00  0.00    +0.000 A 
ATOM      2  C   UNL     1       1.713   7.539  20.843  0.00  0.00    +0.000 A 
ATOM      3  C   UNL     1       1.285   8.723  20.230  0.00  0.00    +0.000 A 
ATOM      4  C   UNL     1       1.616   8.956  18.893  0.00  0.00    +0.000 A 
ATOM      5  C   UNL     1       2.267   7.967  18.154  0.00  0.00    +0.000 A 
ATOM      6  C   UNL     1       2.599   6.753  18.757  0.00  0.00    +0.000 A 
ATOM      7  F   UNL     1       3.119   5.776  17.998  0.00  0.00    +0.000 F 
ENDROOT
BRANCH   1  10
ATOM      8  C   UNL     1       1.750   4.172  20.621  0.00  0.00    +0.000 C 
ATOM      9  O   UNL     1       0.633   4.188  20.105  0.00  0.00    +0.000 OA
ATOM     10  N   UNL     1       2.618   5.251  20.679  0.00  0.00    +0.000 N 
ATOM     11  H   UNL     1       3.581   5.090  20.954  0.00  0.00    +0.000 HD
BRANCH   8  12
ATOM     12  C   UNL     1       2.289   2.889  21.214  0.00  0.00    +0.000 C 
BRANCH  12  13
ATOM     13  C   UNL     1       3.669   2.617  20.601  0.00  0.00    +0.000 C 
BRANCH  13  14
ATOM     14  C   UNL     1       3.650   2.471  19.103  0.00  0.00    +0.000 C 
ATOM     15  O   UNL     1       2.868   1.700  18.539  0.00  0.00    +0.000 OA
BRANCH  14  19
ATOM     16  C   UNL     1       6.352   4.795  16.682  0.00  0.00    +0.000 A 
ATOM     17  C   UNL     1       5.401   3.958  16.096  0.00  0.00    +0.000 A 
ATOM     18  C   UNL     1       4.516   3.230  16.895  0.00  0.00    +0.000 A 
ATOM     19  C   UNL     1       4.597   3.298  18.291  0.00  0.00    +0.000 A 
ATOM     20  C   UNL     1       5.564   4.129  18.874  0.00  0.00    +0.000 A 
ATOM     21  C   UNL     1       6.440   4.868  18.072  0.00  0.00    +0.000 A 
BRANCH  16  23
ATOM     22  C   UNL     1       7.106   5.013  14.457  0.00  0.00    +0.000 C 
ATOM     23  O   UNL     1       7.164   5.462  15.806  0.00  0.00    +0.000 OA
ENDBRANCH  16  23
ENDBRANCH  14  19
ENDBRANCH  13  14
ENDBRANCH  12  13
ENDBRANCH   8  12
ENDBRANCH   1  10
BRANCH   3  24
ATOM     24  C   UNL     1       0.396   9.679  20.989  0.00  0.00    +0.000 C 
BRANCH  24  25
ATOM     25  C   UNL     1       0.115  10.979  20.252  0.00  0.00    +0.000 A 
ATOM     26  N   UNL     1       0.804  12.020  20.616  0.00  0.00    +0.000 NA
ATOM     27  N   UNL     1       0.568  13.186  19.959  0.00  0.00    +0.000 N 
ATOM     28  C   UNL     1      -0.335  13.374  18.947  0.00  0.00    +0.000 A 
ATOM     29  O   UNL     1      -0.531  14.471  18.437  0.00  0.00    +0.000 OA
ATOM     30  C   UNL     1      -1.063  12.161  18.499  0.00  0.00    +0.000 A 
ATOM     31  C   UNL     1      -0.879  10.990  19.135  0.00  0.00    +0.000 A 
ATOM     32  C   UNL     1      -1.623   9.741  18.751  0.00  0.00    +0.000 C 
ATOM     33  C   UNL     1      -2.797  10.010  17.808  0.00  0.00    +0.000 C 
ATOM     34  C   UNL     1      -2.376  10.974  16.707  0.00  0.00    +0.000 C 
ATOM     35  C   UNL     1      -1.981  12.321  17.317  0.00  0.00    +0.000 C 
ATOM     36  H   UNL     1       1.070  14.002  20.290  0.00  0.00    +0.000 HD
ENDBRANCH  24  25
ENDBRANCH   3  24
TORSDOF 8
ENDMDL
MODEL 5
REMARK VINA RESULT:      -8.1      2.343      9.204
REMARK  Name = 
REMARK  9 active torsions:
REMARK  status: ('A' for Active; 'I' for Inactive)
REMARK    1  A    between atoms: C_1  and  O_2
REMARK    2  A    between atoms: O_2  and  C_3
REMARK    3  A    between atoms: C_6  and  C_7
REMARK    4  A    between atoms: C_7  and  C_9
REMARK    5  A    between atoms: C_9  and  C_10
REMARK    6  A    between atoms: C_10  and  C_11
REMARK    7  A    between atoms: N_13  and  C_14
REMARK    8  A    between atoms: C_16  and  C_17
REMARK    9  A    between atoms: C_17  and  C_18
REMARK                            x       y       z     vdW  Elec       q    Type
REMARK                         _______ _______ _______ _____ _____    ______ ____
ROOT
ATOM      1  C   UNL     1       2.247   5.355  20.337  0.00  0.00    +0.000 A 
ATOM      2  C   UNL     1       3.560   4.947  20.081  0.00  0.00    +0.000 A 
ATOM      3  C   UNL     1       3.859   3.622  19.746  0.00  0.00    +0.000 A 
ATOM      4  C   UNL     1       2.854   2.656  19.820  0.00  0.00    +0.000 A 
ATOM      5  C   UNL     1       1.544   3.036  20.116  0.00  0.00    +0.000 A 
ATOM      6  C   UNL     1       1.245   4.379  20.353  0.00  0.00    +0.000 A 
ATOM      7  F   UNL     1      -0.037   4.735  20.520  0.00  0.00    +0.000 F 
ENDROOT
BRANCH   1  10
ATOM      8  C   UNL     1       1.883   7.645  19.484  0.00  0.00    +0.000 C 
ATOM      9  O   UNL     1       2.182   7.406  18.314  0.00  0.00    +0.000 OA
ATOM     10  N   UNL     1       1.904   6.721  20.518  0.00  0.00    +0.000 N 
ATOM     11  H   UNL     1       1.464   6.964  21.400  0.00  0.00    +0.000 HD
BRANCH   8  12
ATOM     12  C   UNL     1       1.406   9.027  19.874  0.00  0.00    +0.000 C 
BRANCH  12  13
ATOM     13  C   UNL     1       1.463   9.925  18.632  0.00  0.00    +0.000 C 
BRANCH  13  14
ATOM     14  C   UNL     1       0.583  11.142  18.721  0.00  0.00    +0.000 C 
ATOM     15  O   UNL     1       1.037  12.245  19.043  0.00  0.00    +0.000 OA
BRANCH  14  19
ATOM     16  C   UNL     1      -3.625  10.794  17.864  0.00  0.00    +0.000 A 
ATOM     17  C   UNL     1      -3.149  11.765  18.746  0.00  0.00    +0.000 A 
ATOM     18  C   UNL     1      -1.778  11.881  18.994  0.00  0.00    +0.000 A 
ATOM     19  C   UNL     1      -0.871  11.001  18.395  0.00  0.00    +0.000 A 
ATOM     20  C   UNL     1      -1.355  10.018  17.521  0.00  0.00    +0.000 A 
ATOM     21  C   UNL     1      -2.727   9.913  17.263  0.00  0.00    +0.000 A 
BRANCH  16  23
ATOM     22  C   UNL     1      -5.728  11.534  18.637  0.00  0.00    +0.000 C 
ATOM     23  O   UNL     1      -4.982  10.773  17.693  0.00  0.00    +0.000 OA
ENDBRANCH  16  23
ENDBRANCH  14  19
ENDBRANCH  13  14
ENDBRANCH  12  13
ENDBRANCH   8  12
ENDBRANCH   1  10
BRANCH   3  24
ATOM     24  C   UNL     1       5.232   3.275  19.218  0.00  0.00    +0.000 C 
BRANCH  24  25
ATOM     25  C   UNL     1       5.972   4.451  18.602  0.00  0.00    +0.000 A 
ATOM     26  N   UNL     1       6.575   5.261  19.423  0.00  0.00    +0.000 NA
ATOM     27  N   UNL     1       7.246   6.312  18.883  0.00  0.00    +0.000 N 
ATOM     28  C   UNL     1       7.347   6.606  17.550  0.00  0.00    +0.000 A 
ATOM     29  O   UNL     1       7.928   7.605  17.141  0.00  0.00    +0.000 OA
ATOM     30  C   UNL     1       6.713   5.636  16.624  0.00  0.00    +0.000 A 
ATOM     31  C   UNL     1       6.017   4.594  17.114  0.00  0.00    +0.000 A 
ATOM     32  C   UNL     1       5.317   3.605  16.223  0.00  0.00    +0.000 C 
ATOM     33  C   UNL     1       5.218   4.073  14.770  0.00  0.00    +0.000 C 
ATOM     34  C   UNL     1       6.551   4.649  14.313  0.00  0.00    +0.000 C 
ATOM     35  C   UNL     1       6.903   5.880  15.151  0.00  0.00    +0.000 C 
ATOM     36  H   UNL     1       7.663   6.966  19.536  0.00  0.00    +0.000 HD
ENDBRANCH  24  25
ENDBRANCH   3  24
TORSDOF 8
ENDMDL
MODEL 6
REMARK VINA RESULT:      -8.1      2.990      5.115
REMARK  Name = 
REMARK  9 active torsions:
REMARK  status: ('A' for Active; 'I' for Inactive)
REMARK    1  A    between atoms: C_1  and  O_2
REMARK    2  A    between atoms: O_2  and  C_3
REMARK    3  A    between atoms: C_6  and  C_7
REMARK    4  A    between atoms: C_7  and  C_9
REMARK    5  A    between atoms: C_9  and  C_10
REMARK    6  A    between atoms: C_10  and  C_11
REMARK    7  A    between atoms: N_13  and  C_14
REMARK    8  A    between atoms: C_16  and  C_17
REMARK    9  A    between atoms: C_17  and  C_18
REMARK                            x       y       z     vdW  Elec       q    Type
REMARK                         _______ _______ _______ _____ _____    ______ ____
ROOT
ATOM      1  C   UNL     1       4.197   3.859  19.421  0.00  0.00    +0.000 A 
ATOM      2  C   UNL     1       3.366   4.951  19.691  0.00  0.00    +0.000 A 
ATOM      3  C   UNL     1       2.360   4.881  20.661  0.00  0.00    +0.000 A 
ATOM      4  C   UNL     1       2.077   3.652  21.261  0.00  0.00    +0.000 A 
ATOM      5  C   UNL     1       2.867   2.538  20.973  0.00  0.00    +0.000 A 
ATOM      6  C   UNL     1       3.929   2.652  20.075  0.00  0.00    +0.000 A 
ATOM      7  F   UNL     1       4.745   1.600  19.903  0.00  0.00    +0.000 F 
ENDROOT
BRANCH   1  10
ATOM      8  C   UNL     1       6.465   4.676  18.886  0.00  0.00    +0.000 C 
ATOM      9  O   UNL     1       6.630   5.319  19.922  0.00  0.00    +0.000 OA
ATOM     10  N   UNL     1       5.323   3.963  18.562  0.00  0.00    +0.000 N 
ATOM     11  H   UNL     1       5.353   3.317  17.779  0.00  0.00    +0.000 HD
BRANCH   8  12
ATOM     12  C   UNL     1       7.582   4.587  17.868  0.00  0.00    +0.000 C 
BRANCH  12  13
ATOM     13  C   UNL     1       7.683   5.936  17.145  0.00  0.00    +0.000 C 
BRANCH  13  14
ATOM     14  C   UNL     1       6.550   6.200  16.189  0.00  0.00    +0.000 C 
ATOM     15  O   UNL     1       5.764   7.136  16.362  0.00  0.00    +0.000 OA
BRANCH  14  19
ATOM     16  C   UNL     1       6.028   3.577  12.811  0.00  0.00    +0.000 A 
ATOM     17  C   UNL     1       5.073   3.641  13.827  0.00  0.00    +0.000 A 
ATOM     18  C   UNL     1       5.245   4.515  14.903  0.00  0.00    +0.000 A 
ATOM     19  C   UNL     1       6.395   5.306  14.998  0.00  0.00    +0.000 A 
ATOM     20  C   UNL     1       7.358   5.228  13.984  0.00  0.00    +0.000 A 
ATOM     21  C   UNL     1       7.177   4.362  12.900  0.00  0.00    +0.000 A 
BRANCH  16  23
ATOM     22  C   UNL     1       4.487   2.846  11.181  0.00  0.00    +0.000 C 
ATOM     23  O   UNL     1       5.756   2.690  11.806  0.00  0.00    +0.000 OA
ENDBRANCH  16  23
ENDBRANCH  14  19
ENDBRANCH  13  14
ENDBRANCH  12  13
ENDBRANCH   8  12
ENDBRANCH   1  10
BRANCH   3  24
ATOM     24  C   UNL     1       1.665   6.144  21.112  0.00  0.00    +0.000 C 
BRANCH  24  25
ATOM     25  C   UNL     1       1.750   7.287  20.113  0.00  0.00    +0.000 A 
ATOM     26  N   UNL     1       2.384   7.049  19.002  0.00  0.00    +0.000 NA
ATOM     27  N   UNL     1       2.460   8.060  18.098  0.00  0.00    +0.000 N 
ATOM     28  C   UNL     1       1.936   9.316  18.245  0.00  0.00    +0.000 A 
ATOM     29  O   UNL     1       2.092  10.195  17.405  0.00  0.00    +0.000 OA
ATOM     30  C   UNL     1       1.158   9.549  19.487  0.00  0.00    +0.000 A 
ATOM     31  C   UNL     1       1.076   8.585  20.422  0.00  0.00    +0.000 A 
ATOM     32  C   UNL     1       0.339   8.782  21.717  0.00  0.00    +0.000 C 
ATOM     33  C   UNL     1      -0.020  10.245  21.985  0.00  0.00    +0.000 C 
ATOM     34  C   UNL     1      -0.581  10.887  20.723  0.00  0.00    +0.000 C 
ATOM     35  C   UNL     1       0.481  10.887  19.622  0.00  0.00    +0.000 C 
ATOM     36  H   UNL     1       3.005   7.879  17.262  0.00  0.00    +0.000 HD
ENDBRANCH  24  25
ENDBRANCH   3  24
TORSDOF 8
ENDMDL
MODEL 7
REMARK VINA RESULT:      -8.0      2.272      3.481
REMARK  Name = 
REMARK  9 active torsions:
REMARK  status: ('A' for Active; 'I' for Inactive)
REMARK    1  A    between atoms: C_1  and  O_2
REMARK    2  A    between atoms: O_2  and  C_3
REMARK    3  A    between atoms: C_6  and  C_7
REMARK    4  A    between atoms: C_7  and  C_9
REMARK    5  A    between atoms: C_9  and  C_10
REMARK    6  A    between atoms: C_10  and  C_11
REMARK    7  A    between atoms: N_13  and  C_14
REMARK    8  A    between atoms: C_16  and  C_17
REMARK    9  A    between atoms: C_17  and  C_18
REMARK                            x       y       z     vdW  Elec       q    Type
REMARK                         _______ _______ _______ _____ _____    ______ ____
ROOT
ATOM      1  C   UNL     1       1.010   9.064  20.361  0.00  0.00    +0.000 A 
ATOM      2  C   UNL     1       0.316  10.043  19.643  0.00  0.00    +0.000 A 
ATOM      3  C   UNL     1      -0.289  11.128  20.287  0.00  0.00    +0.000 A 
ATOM      4  C   UNL     1      -0.337  11.153  21.682  0.00  0.00    +0.000 A 
ATOM      5  C   UNL     1       0.313  10.161  22.419  0.00  0.00    +0.000 A 
ATOM      6  C   UNL     1       0.996   9.138  21.758  0.00  0.00    +0.000 A 
ATOM      7  F   UNL     1       1.709   8.263  22.484  0.00  0.00    +0.000 F 
ENDROOT
BRANCH   1  10
ATOM      8  C   UNL     1       2.273   8.177  18.433  0.00  0.00    +0.000 C 
ATOM      9  O   UNL     1       2.110   9.152  17.699  0.00  0.00    +0.000 OA
ATOM     10  N   UNL     1       1.766   8.049  19.716  0.00  0.00    +0.000 N 
ATOM     11  H   UNL     1       2.109   7.298  20.306  0.00  0.00    +0.000 HD
BRANCH   8  12
ATOM     12  C   UNL     1       3.123   7.016  17.965  0.00  0.00    +0.000 C 
BRANCH  12  13
ATOM     13  C   UNL     1       3.265   6.024  19.128  0.00  0.00    +0.000 C 
BRANCH  13  14
ATOM     14  C   UNL     1       4.110   4.822  18.801  0.00  0.00    +0.000 C 
ATOM     15  O   UNL     1       4.038   3.782  19.463  0.00  0.00    +0.000 OA
BRANCH  14  19
ATOM     16  C   UNL     1       6.845   5.127  15.485  0.00  0.00    +0.000 A 
ATOM     17  C   UNL     1       7.074   5.824  16.672  0.00  0.00    +0.000 A 
ATOM     18  C   UNL     1       6.190   5.694  17.747  0.00  0.00    +0.000 A 
ATOM     19  C   UNL     1       5.045   4.899  17.634  0.00  0.00    +0.000 A 
ATOM     20  C   UNL     1       4.811   4.213  16.434  0.00  0.00    +0.000 A 
ATOM     21  C   UNL     1       5.704   4.333  15.364  0.00  0.00    +0.000 A 
BRANCH  16  23
ATOM     22  C   UNL     1       7.372   4.932  13.193  0.00  0.00    +0.000 C 
ATOM     23  O   UNL     1       7.774   5.325  14.501  0.00  0.00    +0.000 OA
ENDBRANCH  16  23
ENDBRANCH  14  19
ENDBRANCH  13  14
ENDBRANCH  12  13
ENDBRANCH   8  12
ENDBRANCH   1  10
BRANCH   3  24
ATOM     24  C   UNL     1      -0.794  12.295  19.471  0.00  0.00    +0.000 C 
BRANCH  24  25
ATOM     25  C   UNL     1      -2.293  12.276  19.226  0.00  0.00    +0.000 A 
ATOM     26  N   UNL     1      -3.035  12.924  20.076  0.00  0.00    +0.000 NA
ATOM     27  N   UNL     1      -4.377  12.921  19.862  0.00  0.00    +0.000 N 
ATOM     28  C   UNL     1      -5.030  12.293  18.836  0.00  0.00    +0.000 A 
ATOM     29  O   UNL     1      -6.252  12.291  18.739  0.00  0.00    +0.000 OA
ATOM     30  C   UNL     1      -4.165  11.617  17.839  0.00  0.00    +0.000 A 
ATOM     31  C   UNL     1      -2.833  11.574  18.021  0.00  0.00    +0.000 A 
ATOM     32  C   UNL     1      -1.913  10.864  17.066  0.00  0.00    +0.000 C 
ATOM     33  C   UNL     1      -2.655   9.962  16.078  0.00  0.00    +0.000 C 
ATOM     34  C   UNL     1      -3.870  10.688  15.516  0.00  0.00    +0.000 C 
ATOM     35  C   UNL     1      -4.852  11.012  16.644  0.00  0.00    +0.000 C 
ATOM     36  H   UNL     1      -4.948  13.382  20.563  0.00  0.00    +0.000 HD
ENDBRANCH  24  25
ENDBRANCH   3  24
TORSDOF 8
ENDMDL
MODEL 8
REMARK VINA RESULT:      -8.0      1.595      2.260
REMARK  Name = 
REMARK  9 active torsions:
REMARK  status: ('A' for Active; 'I' for Inactive)
REMARK    1  A    between atoms: C_1  and  O_2
REMARK    2  A    between atoms: O_2  and  C_3
REMARK    3  A    between atoms: C_6  and  C_7
REMARK    4  A    between atoms: C_7  and  C_9
REMARK    5  A    between atoms: C_9  and  C_10
REMARK    6  A    between atoms: C_10  and  C_11
REMARK    7  A    between atoms: N_13  and  C_14
REMARK    8  A    between atoms: C_16  and  C_17
REMARK    9  A    between atoms: C_17  and  C_18
REMARK                            x       y       z     vdW  Elec       q    Type
REMARK                         _______ _______ _______ _____ _____    ______ ____
ROOT
ATOM      1  C   UNL     1       2.134   6.504  18.805  0.00  0.00    +0.000 A 
ATOM      2  C   UNL     1       1.790   7.700  18.167  0.00  0.00    +0.000 A 
ATOM      3  C   UNL     1       1.496   8.857  18.897  0.00  0.00    +0.000 A 
ATOM      4  C   UNL     1       1.390   8.778  20.287  0.00  0.00    +0.000 A 
ATOM      5  C   UNL     1       1.686   7.581  20.941  0.00  0.00    +0.000 A 
ATOM      6  C   UNL     1       2.074   6.462  20.202  0.00  0.00    +0.000 A 
ATOM      7  F   UNL     1       2.466   5.359  20.858  0.00  0.00    +0.000 F 
ENDROOT
BRANCH   1  10
ATOM      8  C   UNL     1       1.922   4.158  18.063  0.00  0.00    +0.000 C 
ATOM      9  O   UNL     1       0.884   3.911  18.676  0.00  0.00    +0.000 OA
ATOM     10  N   UNL     1       2.593   5.369  18.084  0.00  0.00    +0.000 N 
ATOM     11  H   UNL     1       3.329   5.534  17.405  0.00  0.00    +0.000 HD
BRANCH   8  12
ATOM     12  C   UNL     1       2.535   3.106  17.164  0.00  0.00    +0.000 C 
BRANCH  12  13
ATOM     13  C   UNL     1       3.710   2.460  17.909  0.00  0.00    +0.000 C 
BRANCH  13  14
ATOM     14  C   UNL     1       4.791   3.433  18.298  0.00  0.00    +0.000 C 
ATOM     15  O   UNL     1       5.010   3.717  19.479  0.00  0.00    +0.000 OA
BRANCH  14  19
ATOM     16  C   UNL     1       7.144   5.142  15.119  0.00  0.00    +0.000 A 
ATOM     17  C   UNL     1       6.128   4.225  14.848  0.00  0.00    +0.000 A 
ATOM     18  C   UNL     1       5.357   3.699  15.888  0.00  0.00    +0.000 A 
ATOM     19  C   UNL     1       5.621   4.052  17.216  0.00  0.00    +0.000 A 
ATOM     20  C   UNL     1       6.652   4.962  17.485  0.00  0.00    +0.000 A 
ATOM     21  C   UNL     1       7.413   5.498  16.440  0.00  0.00    +0.000 A 
BRANCH  16  23
ATOM     22  C   UNL     1       7.550   4.920  12.805  0.00  0.00    +0.000 C 
ATOM     23  O   UNL     1       7.833   5.594  14.026  0.00  0.00    +0.000 OA
ENDBRANCH  16  23
ENDBRANCH  14  19
ENDBRANCH  13  14
ENDBRANCH  12  13
ENDBRANCH   8  12
ENDBRANCH   1  10
BRANCH   3  24
ATOM     24  C   UNL     1       1.393  10.185  18.184  0.00  0.00    +0.000 C 
BRANCH  24  25
ATOM     25  C   UNL     1       0.360  11.128  18.780  0.00  0.00    +0.000 A 
ATOM     26  N   UNL     1       0.805  12.064  19.567  0.00  0.00    +0.000 NA
ATOM     27  N   UNL     1      -0.107  12.918  20.100  0.00  0.00    +0.000 N 
ATOM     28  C   UNL     1      -1.460  12.886  19.891  0.00  0.00    +0.000 A 
ATOM     29  O   UNL     1      -2.228  13.661  20.451  0.00  0.00    +0.000 OA
ATOM     30  C   UNL     1      -1.943  11.857  18.938  0.00  0.00    +0.000 A 
ATOM     31  C   UNL     1      -1.079  10.975  18.405  0.00  0.00    +0.000 A 
ATOM     32  C   UNL     1      -1.520   9.884  17.468  0.00  0.00    +0.000 C 
ATOM     33  C   UNL     1      -3.038   9.696  17.441  0.00  0.00    +0.000 C 
ATOM     34  C   UNL     1      -3.733  11.048  17.362  0.00  0.00    +0.000 C 
ATOM     35  C   UNL     1      -3.412  11.873  18.610  0.00  0.00    +0.000 C 
ATOM     36  H   UNL     1       0.246  13.606  20.755  0.00  0.00    +0.000 HD
ENDBRANCH  24  25
ENDBRANCH   3  24
TORSDOF 8
ENDMDL
MODEL 9
REMARK VINA RESULT:      -8.0      3.414      5.954
REMARK  Name = 
REMARK  9 active torsions:
REMARK  status: ('A' for Active; 'I' for Inactive)
REMARK    1  A    between atoms: C_1  and  O_2
REMARK    2  A    between atoms: O_2  and  C_3
REMARK    3  A    between atoms: C_6  and  C_7
REMARK    4  A    between atoms: C_7  and  C_9
REMARK    5  A    between atoms: C_9  and  C_10
REMARK    6  A    between atoms: C_10  and  C_11
REMARK    7  A    between atoms: N_13  and  C_14
REMARK    8  A    between atoms: C_16  and  C_17
REMARK    9  A    between atoms: C_17  and  C_18
REMARK                            x       y       z     vdW  Elec       q    Type
REMARK                         _______ _______ _______ _____ _____    ______ ____
ROOT
ATOM      1  C   UNL     1       0.275  10.686  20.704  0.00  0.00    +0.000 A 
ATOM      2  C   UNL     1       0.507  12.065  20.723  0.00  0.00    +0.000 A 
ATOM      3  C   UNL     1       0.061  12.866  21.780  0.00  0.00    +0.000 A 
ATOM      4  C   UNL     1      -0.766  12.306  22.756  0.00  0.00    +0.000 A 
ATOM      5  C   UNL     1      -1.047  10.939  22.732  0.00  0.00    +0.000 A 
ATOM      6  C   UNL     1      -0.511  10.137  21.722  0.00  0.00    +0.000 A 
ATOM      7  F   UNL     1      -0.699   8.810  21.785  0.00  0.00    +0.000 F 
ENDROOT
BRANCH   1  10
ATOM      8  C   UNL     1       0.337   9.669  18.454  0.00  0.00    +0.000 C 
ATOM      9  O   UNL     1      -0.689  10.201  18.032  0.00  0.00    +0.000 OA
ATOM     10  N   UNL     1       0.859   9.836  19.727  0.00  0.00    +0.000 N 
ATOM     11  H   UNL     1       1.800   9.509  19.918  0.00  0.00    +0.000 HD
BRANCH   8  12
ATOM     12  C   UNL     1       1.160   8.787  17.540  0.00  0.00    +0.000 C 
BRANCH  12  13
ATOM     13  C   UNL     1       2.602   8.764  18.062  0.00  0.00    +0.000 C 
BRANCH  13  14
ATOM     14  C   UNL     1       3.269   7.420  17.945  0.00  0.00    +0.000 C 
ATOM     15  O   UNL     1       4.351   7.284  17.365  0.00  0.00    +0.000 OA
BRANCH  14  19
ATOM     16  C   UNL     1       1.379   4.030  19.817  0.00  0.00    +0.000 A 
ATOM     17  C   UNL     1       1.827   5.113  20.575  0.00  0.00    +0.000 A 
ATOM     18  C   UNL     1       2.416   6.216  19.950  0.00  0.00    +0.000 A 
ATOM     19  C   UNL     1       2.601   6.231  18.563  0.00  0.00    +0.000 A 
ATOM     20  C   UNL     1       2.162   5.135  17.807  0.00  0.00    +0.000 A 
ATOM     21  C   UNL     1       1.561   4.038  18.434  0.00  0.00    +0.000 A 
BRANCH  16  23
ATOM     22  C   UNL     1       1.533   2.610  21.695  0.00  0.00    +0.000 C 
ATOM     23  O   UNL     1       0.817   3.008  20.531  0.00  0.00    +0.000 OA
ENDBRANCH  16  23
ENDBRANCH  14  19
ENDBRANCH  13  14
ENDBRANCH  12  13
ENDBRANCH   8  12
ENDBRANCH   1  10
BRANCH   3  24
ATOM     24  C   UNL     1       0.555  14.288  21.902  0.00  0.00    +0.000 C 
BRANCH  24  25
ATOM     25  C   UNL     1       0.310  15.136  20.664  0.00  0.00    +0.000 A 
ATOM     26  N   UNL     1      -0.917  15.504  20.438  0.00  0.00    +0.000 NA
ATOM     27  N   UNL     1      -1.147  16.269  19.339  0.00  0.00    +0.000 N 
ATOM     28  C   UNL     1      -0.207  16.688  18.436  0.00  0.00    +0.000 A 
ATOM     29  O   UNL     1      -0.501  17.334  17.436  0.00  0.00    +0.000 OA
ATOM     30  C   UNL     1       1.196  16.318  18.745  0.00  0.00    +0.000 A 
ATOM     31  C   UNL     1       1.469  15.542  19.810  0.00  0.00    +0.000 A 
ATOM     32  C   UNL     1       2.866  15.099  20.145  0.00  0.00    +0.000 C 
ATOM     33  C   UNL     1       3.862  15.351  19.011  0.00  0.00    +0.000 C 
ATOM     34  C   UNL     1       3.658  16.746  18.434  0.00  0.00    +0.000 C 
ATOM     35  C   UNL     1       2.258  16.859  17.827  0.00  0.00    +0.000 C 
ATOM     36  H   UNL     1      -2.115  16.501  19.144  0.00  0.00    +0.000 HD
ENDBRANCH  24  25
ENDBRANCH   3  24
TORSDOF 8
ENDMDL
