MODEL 1
REMARK VINA RESULT:      -6.9      0.000      0.000
REMARK  Name = 
REMARK  3 active torsions:
REMARK  status: ('A' for Active; 'I' for Inactive)
REMARK    1  A    between atoms: C_2  and  C_3
REMARK    2  A    between atoms: C_2  and  C_13
REMARK    3  A    between atoms: C_3  and  N_4
REMARK                            x       y       z     vdW  Elec       q    Type
REMARK                         _______ _______ _______ _____ _____    ______ ____
ROOT
ATOM      1  C   UNL     1       4.060   3.215  17.850  0.00  0.00    +0.000 C 
ENDROOT
BRANCH   1   2
ATOM      2  N   UNL     1       4.924   4.135  17.099  0.00  0.00    +0.000 N 
ATOM      3  C   UNL     1       4.884   4.244  15.780  0.00  0.00    +0.000 A 
ATOM      4  S   UNL     1       5.993   5.414  15.213  0.00  0.00    +0.000 S 
ATOM      5  C   UNL     1       6.594   5.703  16.802  0.00  0.00    +0.000 A 
ATOM      6  C   UNL     1       7.616   6.574  17.207  0.00  0.00    +0.000 A 
ATOM      7  C   UNL     1       7.941   6.621  18.565  0.00  0.00    +0.000 A 
ATOM      8  C   UNL     1       7.268   5.828  19.489  0.00  0.00    +0.000 A 
ATOM      9  C   UNL     1       6.242   4.966  19.082  0.00  0.00    +0.000 A 
ATOM     10  C   UNL     1       5.901   4.908  17.714  0.00  0.00    +0.000 A 
ENDBRANCH   1   2
BRANCH   1  12
ATOM     11  O   UNL     1       1.723   3.144  17.353  0.00  0.00    +0.000 OA
ATOM     12  C   UNL     1       2.632   3.704  17.961  0.00  0.00    +0.000 C 
BRANCH  12  13
ATOM     13  C   UNL     1       2.341   4.920  18.763  0.00  0.00    +0.000 A 
ATOM     14  C   UNL     1       1.814   4.755  20.050  0.00  0.00    +0.000 A 
ATOM     15  C   UNL     1       1.493   5.872  20.824  0.00  0.00    +0.000 A 
ATOM     16  C   UNL     1       1.682   7.152  20.306  0.00  0.00    +0.000 A 
ATOM     17  I   UNL     1       1.177   8.815  21.442  0.00  0.00    +0.000 I 
ATOM     18  C   UNL     1       2.197   7.323  19.020  0.00  0.00    +0.000 A 
ATOM     19  C   UNL     1       2.531   6.208  18.246  0.00  0.00    +0.000 A 
ENDBRANCH  12  13
ENDBRANCH   1  12
TORSDOF 3
ENDMDL
MODEL 2
REMARK VINA RESULT:      -6.8      0.154      1.121
REMARK  Name = 
REMARK  3 active torsions:
REMARK  status: ('A' for Active; 'I' for Inactive)
REMARK    1  A    between atoms: C_2  and  C_3
REMARK    2  A    between atoms: C_2  and  C_13
REMARK    3  A    between atoms: C_3  and  N_4
REMARK                            x       y       z     vdW  Elec       q    Type
REMARK                         _______ _______ _______ _____ _____    ______ ____
ROOT
ATOM      1  C   UNL     1       4.169   3.139  17.947  0.00  0.00    +0.000 C 
ENDROOT
BRANCH   1   2
ATOM      2  N   UNL     1       4.966   4.105  17.179  0.00  0.00    +0.000 N 
ATOM      3  C   UNL     1       4.869   4.234  15.865  0.00  0.00    +0.000 A 
ATOM      4  S   UNL     1       5.908   5.457  15.277  0.00  0.00    +0.000 S 
ATOM      5  C   UNL     1       6.559   5.743  16.846  0.00  0.00    +0.000 A 
ATOM      6  C   UNL     1       7.561   6.648  17.227  0.00  0.00    +0.000 A 
ATOM      7  C   UNL     1       7.938   6.686  18.572  0.00  0.00    +0.000 A 
ATOM      8  C   UNL     1       7.333   5.852  19.507  0.00  0.00    +0.000 A 
ATOM      9  C   UNL     1       6.327   4.956  19.124  0.00  0.00    +0.000 A 
ATOM     10  C   UNL     1       5.935   4.907  17.770  0.00  0.00    +0.000 A 
ENDBRANCH   1   2
BRANCH   1  12
ATOM     11  O   UNL     1       1.849   2.885  17.429  0.00  0.00    +0.000 OA
ATOM     12  C   UNL     1       2.707   3.520  18.038  0.00  0.00    +0.000 C 
BRANCH  12  13
ATOM     13  C   UNL     1       2.315   4.720  18.823  0.00  0.00    +0.000 A 
ATOM     14  C   UNL     1       2.474   5.979  18.231  0.00  0.00    +0.000 A 
ATOM     15  C   UNL     1       2.151   7.134  18.946  0.00  0.00    +0.000 A 
ATOM     16  C   UNL     1       1.687   7.031  20.256  0.00  0.00    +0.000 A 
ATOM     17  I   UNL     1       1.236   8.748  21.333  0.00  0.00    +0.000 I 
ATOM     18  C   UNL     1       1.537   5.779  20.854  0.00  0.00    +0.000 A 
ATOM     19  C   UNL     1       1.847   4.620  20.139  0.00  0.00    +0.000 A 
ENDBRANCH  12  13
ENDBRANCH   1  12
TORSDOF 3
ENDMDL
MODEL 3
REMARK VINA RESULT:      -6.7      1.265      2.287
REMARK  Name = 
REMARK  3 active torsions:
REMARK  status: ('A' for Active; 'I' for Inactive)
REMARK    1  A    between atoms: C_2  and  C_3
REMARK    2  A    between atoms: C_2  and  C_13
REMARK    3  A    between atoms: C_3  and  N_4
REMARK                            x       y       z     vdW  Elec       q    Type
REMARK                         _______ _______ _______ _____ _____    ______ ____
ROOT
ATOM      1  C   UNL     1       3.941   3.176  18.236  0.00  0.00    +0.000 C 
ENDROOT
BRANCH   1   2
ATOM      2  N   UNL     1       5.147   3.983  18.003  0.00  0.00    +0.000 N 
ATOM      3  C   UNL     1       5.800   4.599  18.975  0.00  0.00    +0.000 A 
ATOM      4  S   UNL     1       7.169   5.432  18.383  0.00  0.00    +0.000 S 
ATOM      5  C   UNL     1       6.798   5.008  16.755  0.00  0.00    +0.000 A 
ATOM      6  C   UNL     1       7.481   5.359  15.581  0.00  0.00    +0.000 A 
ATOM      7  C   UNL     1       6.972   4.904  14.362  0.00  0.00    +0.000 A 
ATOM      8  C   UNL     1       5.821   4.123  14.315  0.00  0.00    +0.000 A 
ATOM      9  C   UNL     1       5.147   3.769  15.490  0.00  0.00    +0.000 A 
ATOM     10  C   UNL     1       5.650   4.218  16.728  0.00  0.00    +0.000 A 
ENDBRANCH   1   2
BRANCH   1  12
ATOM     11  O   UNL     1       1.904   3.614  17.066  0.00  0.00    +0.000 OA
ATOM     12  C   UNL     1       2.661   3.940  17.977  0.00  0.00    +0.000 C 
BRANCH  12  13
ATOM     13  C   UNL     1       2.352   5.141  18.795  0.00  0.00    +0.000 A 
ATOM     14  C   UNL     1       1.805   4.952  20.070  0.00  0.00    +0.000 A 
ATOM     15  C   UNL     1       1.467   6.054  20.858  0.00  0.00    +0.000 A 
ATOM     16  C   UNL     1       1.660   7.343  20.365  0.00  0.00    +0.000 A 
ATOM     17  I   UNL     1       1.131   8.985  21.522  0.00  0.00    +0.000 I 
ATOM     18  C   UNL     1       2.196   7.538  19.091  0.00  0.00    +0.000 A 
ATOM     19  C   UNL     1       2.546   6.438  18.304  0.00  0.00    +0.000 A 
ENDBRANCH  12  13
ENDBRANCH   1  12
TORSDOF 3
ENDMDL
MODEL 4
REMARK VINA RESULT:      -6.7      1.225      2.528
REMARK  Name = 
REMARK  3 active torsions:
REMARK  status: ('A' for Active; 'I' for Inactive)
REMARK    1  A    between atoms: C_2  and  C_3
REMARK    2  A    between atoms: C_2  and  C_13
REMARK    3  A    between atoms: C_3  and  N_4
REMARK                            x       y       z     vdW  Elec       q    Type
REMARK                         _______ _______ _______ _____ _____    ______ ____
ROOT
ATOM      1  C   UNL     1       4.065   3.207  18.335  0.00  0.00    +0.000 C 
ENDROOT
BRANCH   1   2
ATOM      2  N   UNL     1       5.221   4.069  18.058  0.00  0.00    +0.000 N 
ATOM      3  C   UNL     1       5.849   4.756  19.000  0.00  0.00    +0.000 A 
ATOM      4  S   UNL     1       7.164   5.640  18.362  0.00  0.00    +0.000 S 
ATOM      5  C   UNL     1       6.802   5.136  16.755  0.00  0.00    +0.000 A 
ATOM      6  C   UNL     1       7.453   5.479  15.560  0.00  0.00    +0.000 A 
ATOM      7  C   UNL     1       6.958   4.952  14.365  0.00  0.00    +0.000 A 
ATOM      8  C   UNL     1       5.852   4.108  14.360  0.00  0.00    +0.000 A 
ATOM      9  C   UNL     1       5.209   3.761  15.555  0.00  0.00    +0.000 A 
ATOM     10  C   UNL     1       5.698   4.284  16.770  0.00  0.00    +0.000 A 
ENDBRANCH   1   2
BRANCH   1  12
ATOM     11  O   UNL     1       2.036   3.508  17.108  0.00  0.00    +0.000 OA
ATOM     12  C   UNL     1       2.742   3.881  18.041  0.00  0.00    +0.000 C 
BRANCH  12  13
ATOM     13  C   UNL     1       2.327   5.055  18.853  0.00  0.00    +0.000 A 
ATOM     14  C   UNL     1       2.535   6.334  18.323  0.00  0.00    +0.000 A 
ATOM     15  C   UNL     1       2.192   7.465  19.067  0.00  0.00    +0.000 A 
ATOM     16  C   UNL     1       1.658   7.317  20.346  0.00  0.00    +0.000 A 
ATOM     17  I   UNL     1       1.176   8.996  21.469  0.00  0.00    +0.000 I 
ATOM     18  C   UNL     1       1.458   6.044  20.884  0.00  0.00    +0.000 A 
ATOM     19  C   UNL     1       1.789   4.909  20.138  0.00  0.00    +0.000 A 
ENDBRANCH  12  13
ENDBRANCH   1  12
TORSDOF 3
ENDMDL
MODEL 5
REMARK VINA RESULT:      -6.6      1.857      2.838
REMARK  Name = 
REMARK  3 active torsions:
REMARK  status: ('A' for Active; 'I' for Inactive)
REMARK    1  A    between atoms: C_2  and  C_3
REMARK    2  A    between atoms: C_2  and  C_13
REMARK    3  A    between atoms: C_3  and  N_4
REMARK                            x       y       z     vdW  Elec       q    Type
REMARK                         _______ _______ _______ _____ _____    ______ ____
ROOT
ATOM      1  C   UNL     1       3.437   4.275  18.641  0.00  0.00    +0.000 C 
ENDROOT
BRANCH   1   2
ATOM      2  N   UNL     1       4.824   4.678  18.373  0.00  0.00    +0.000 N 
ATOM      3  C   UNL     1       5.622   5.174  19.305  0.00  0.00    +0.000 A 
ATOM      4  S   UNL     1       7.175   5.521  18.682  0.00  0.00    +0.000 S 
ATOM      5  C   UNL     1       6.704   5.064  17.089  0.00  0.00    +0.000 A 
ATOM      6  C   UNL     1       7.464   5.090  15.909  0.00  0.00    +0.000 A 
ATOM      7  C   UNL     1       6.850   4.684  14.722  0.00  0.00    +0.000 A 
ATOM      8  C   UNL     1       5.524   4.262  14.711  0.00  0.00    +0.000 A 
ATOM      9  C   UNL     1       4.772   4.230  15.891  0.00  0.00    +0.000 A 
ATOM     10  C   UNL     1       5.378   4.635  17.099  0.00  0.00    +0.000 A 
ENDBRANCH   1   2
BRANCH   1  12
ATOM     11  O   UNL     1       2.582   4.532  20.858  0.00  0.00    +0.000 OA
ATOM     12  C   UNL     1       2.802   5.058  19.770  0.00  0.00    +0.000 C 
BRANCH  12  13
ATOM     13  C   UNL     1       2.380   6.463  19.534  0.00  0.00    +0.000 A 
ATOM     14  C   UNL     1       1.822   7.176  20.601  0.00  0.00    +0.000 A 
ATOM     15  C   UNL     1       1.379   8.486  20.414  0.00  0.00    +0.000 A 
ATOM     16  C   UNL     1       1.479   9.078  19.155  0.00  0.00    +0.000 A 
ATOM     17  I   UNL     1       0.793  11.016  18.863  0.00  0.00    +0.000 I 
ATOM     18  C   UNL     1       2.025   8.368  18.084  0.00  0.00    +0.000 A 
ATOM     19  C   UNL     1       2.480   7.060  18.270  0.00  0.00    +0.000 A 
ENDBRANCH  12  13
ENDBRANCH   1  12
TORSDOF 3
ENDMDL
MODEL 6
REMARK VINA RESULT:      -6.5      2.579      4.460
REMARK  Name = 
REMARK  3 active torsions:
REMARK  status: ('A' for Active; 'I' for Inactive)
REMARK    1  A    between atoms: C_2  and  C_3
REMARK    2  A    between atoms: C_2  and  C_13
REMARK    3  A    between atoms: C_3  and  N_4
REMARK                            x       y       z     vdW  Elec       q    Type
REMARK                         _______ _______ _______ _____ _____    ______ ____
ROOT
ATOM      1  C   UNL     1       4.429   5.739  18.536  0.00  0.00    +0.000 C 
ENDROOT
BRANCH   1   2
ATOM      2  N   UNL     1       3.688   4.476  18.420  0.00  0.00    +0.000 N 
ATOM      3  C   UNL     1       3.603   3.793  17.290  0.00  0.00    +0.000 A 
ATOM      4  S   UNL     1       2.695   2.359  17.489  0.00  0.00    +0.000 S 
ATOM      5  C   UNL     1       2.344   2.738  19.133  0.00  0.00    +0.000 A 
ATOM      6  C   UNL     1       1.568   2.017  20.052  0.00  0.00    +0.000 A 
ATOM      7  C   UNL     1       1.411   2.542  21.337  0.00  0.00    +0.000 A 
ATOM      8  C   UNL     1       2.011   3.745  21.695  0.00  0.00    +0.000 A 
ATOM      9  C   UNL     1       2.791   4.459  20.777  0.00  0.00    +0.000 A 
ATOM     10  C   UNL     1       2.960   3.941  19.476  0.00  0.00    +0.000 A 
ENDBRANCH   1   2
BRANCH   1  12
ATOM     11  O   UNL     1       4.211   7.072  16.564  0.00  0.00    +0.000 OA
ATOM     12  C   UNL     1       3.826   6.855  17.710  0.00  0.00    +0.000 C 
BRANCH  12  13
ATOM     13  C   UNL     1       2.802   7.741  18.322  0.00  0.00    +0.000 A 
ATOM     14  C   UNL     1       2.361   8.849  17.589  0.00  0.00    +0.000 A 
ATOM     15  C   UNL     1       1.425   9.727  18.140  0.00  0.00    +0.000 A 
ATOM     16  C   UNL     1       0.944   9.506  19.429  0.00  0.00    +0.000 A 
ATOM     17  I   UNL     1      -0.423  10.826  20.265  0.00  0.00    +0.000 I 
ATOM     18  C   UNL     1       1.388   8.408  20.169  0.00  0.00    +0.000 A 
ATOM     19  C   UNL     1       2.315   7.521  19.617  0.00  0.00    +0.000 A 
ENDBRANCH  12  13
ENDBRANCH   1  12
TORSDOF 3
ENDMDL
MODEL 7
REMARK VINA RESULT:      -6.5      1.850      2.989
REMARK  Name = 
REMARK  3 active torsions:
REMARK  status: ('A' for Active; 'I' for Inactive)
REMARK    1  A    between atoms: C_2  and  C_3
REMARK    2  A    between atoms: C_2  and  C_13
REMARK    3  A    between atoms: C_3  and  N_4
REMARK                            x       y       z     vdW  Elec       q    Type
REMARK                         _______ _______ _______ _____ _____    ______ ____
ROOT
ATOM      1  C   UNL     1       3.509   4.294  18.656  0.00  0.00    +0.000 C 
ENDROOT
BRANCH   1   2
ATOM      2  N   UNL     1       4.880   4.739  18.372  0.00  0.00    +0.000 N 
ATOM      3  C   UNL     1       5.667   5.274  19.292  0.00  0.00    +0.000 A 
ATOM      4  S   UNL     1       7.204   5.663  18.654  0.00  0.00    +0.000 S 
ATOM      5  C   UNL     1       6.739   5.169  17.070  0.00  0.00    +0.000 A 
ATOM      6  C   UNL     1       7.489   5.204  15.885  0.00  0.00    +0.000 A 
ATOM      7  C   UNL     1       6.882   4.761  14.708  0.00  0.00    +0.000 A 
ATOM      8  C   UNL     1       5.571   4.295  14.711  0.00  0.00    +0.000 A 
ATOM      9  C   UNL     1       4.827   4.255  15.898  0.00  0.00    +0.000 A 
ATOM     10  C   UNL     1       5.427   4.697  17.095  0.00  0.00    +0.000 A 
ENDBRANCH   1   2
BRANCH   1  12
ATOM     11  O   UNL     1       2.724   4.487  20.905  0.00  0.00    +0.000 OA
ATOM     12  C   UNL     1       2.876   5.033  19.815  0.00  0.00    +0.000 C 
BRANCH  12  13
ATOM     13  C   UNL     1       2.372   6.415  19.608  0.00  0.00    +0.000 A 
ATOM     14  C   UNL     1       2.523   6.993  18.341  0.00  0.00    +0.000 A 
ATOM     15  C   UNL     1       2.094   8.302  18.113  0.00  0.00    +0.000 A 
ATOM     16  C   UNL     1       1.530   9.038  19.154  0.00  0.00    +0.000 A 
ATOM     17  I   UNL     1       0.920  10.995  18.827  0.00  0.00    +0.000 I 
ATOM     18  C   UNL     1       1.387   8.470  20.421  0.00  0.00    +0.000 A 
ATOM     19  C   UNL     1       1.803   7.157  20.652  0.00  0.00    +0.000 A 
ENDBRANCH  12  13
ENDBRANCH   1  12
TORSDOF 3
ENDMDL
MODEL 8
REMARK VINA RESULT:      -6.4      1.436      2.411
REMARK  Name = 
REMARK  3 active torsions:
REMARK  status: ('A' for Active; 'I' for Inactive)
REMARK    1  A    between atoms: C_2  and  C_3
REMARK    2  A    between atoms: C_2  and  C_13
REMARK    3  A    between atoms: C_3  and  N_4
REMARK                            x       y       z     vdW  Elec       q    Type
REMARK                         _______ _______ _______ _____ _____    ______ ____
ROOT
ATOM      1  C   UNL     1       4.586   3.738  19.297  0.00  0.00    +0.000 C 
ENDROOT
BRANCH   1   2
ATOM      2  N   UNL     1       5.640   4.548  18.672  0.00  0.00    +0.000 N 
ATOM      3  C   UNL     1       6.371   5.421  19.346  0.00  0.00    +0.000 A 
ATOM      4  S   UNL     1       7.524   6.184  18.341  0.00  0.00    +0.000 S 
ATOM      5  C   UNL     1       6.941   5.361  16.945  0.00  0.00    +0.000 A 
ATOM      6  C   UNL     1       7.379   5.470  15.616  0.00  0.00    +0.000 A 
ATOM      7  C   UNL     1       6.730   4.705  14.644  0.00  0.00    +0.000 A 
ATOM      8  C   UNL     1       5.681   3.856  14.985  0.00  0.00    +0.000 A 
ATOM      9  C   UNL     1       5.252   3.744  16.313  0.00  0.00    +0.000 A 
ATOM     10  C   UNL     1       5.898   4.509  17.307  0.00  0.00    +0.000 A 
ENDBRANCH   1   2
BRANCH   1  12
ATOM     11  O   UNL     1       2.473   3.306  18.267  0.00  0.00    +0.000 OA
ATOM     12  C   UNL     1       3.196   4.120  18.836  0.00  0.00    +0.000 C 
BRANCH  12  13
ATOM     13  C   UNL     1       2.729   5.520  19.016  0.00  0.00    +0.000 A 
ATOM     14  C   UNL     1       2.135   5.869  20.234  0.00  0.00    +0.000 A 
ATOM     15  C   UNL     1       1.651   7.163  20.432  0.00  0.00    +0.000 A 
ATOM     16  C   UNL     1       1.746   8.103  19.407  0.00  0.00    +0.000 A 
ATOM     17  I   UNL     1       0.999  10.020  19.686  0.00  0.00    +0.000 I 
ATOM     18  C   UNL     1       2.328   7.757  18.186  0.00  0.00    +0.000 A 
ATOM     19  C   UNL     1       2.825   6.467  17.988  0.00  0.00    +0.000 A 
ENDBRANCH  12  13
ENDBRANCH   1  12
TORSDOF 3
ENDMDL
MODEL 9
REMARK VINA RESULT:      -6.3      2.562      4.315
REMARK  Name = 
REMARK  3 active torsions:
REMARK  status: ('A' for Active; 'I' for Inactive)
REMARK    1  A    between atoms: C_2  and  C_3
REMARK    2  A    between atoms: C_2  and  C_13
REMARK    3  A    between atoms: C_3  and  N_4
REMARK                            x       y       z     vdW  Elec       q    Type
REMARK                         _______ _______ _______ _____ _____    ______ ____
ROOT
ATOM      1  C   UNL     1       4.444   5.717  18.513  0.00  0.00    +0.000 C 
ENDROOT
BRANCH   1   2
ATOM      2  N   UNL     1       3.701   4.453  18.406  0.00  0.00    +0.000 N 
ATOM      3  C   UNL     1       3.624   3.758  17.282  0.00  0.00    +0.000 A 
ATOM      4  S   UNL     1       2.711   2.329  17.491  0.00  0.00    +0.000 S 
ATOM      5  C   UNL     1       2.347   2.727  19.127  0.00  0.00    +0.000 A 
ATOM      6  C   UNL     1       1.563   2.017  20.048  0.00  0.00    +0.000 A 
ATOM      7  C   UNL     1       1.397   2.558  21.326  0.00  0.00    +0.000 A 
ATOM      8  C   UNL     1       1.997   3.763  21.676  0.00  0.00    +0.000 A 
ATOM      9  C   UNL     1       2.786   4.465  20.756  0.00  0.00    +0.000 A 
ATOM     10  C   UNL     1       2.964   3.932  19.462  0.00  0.00    +0.000 A 
ENDBRANCH   1   2
BRANCH   1  12
ATOM     11  O   UNL     1       4.207   6.976  16.495  0.00  0.00    +0.000 OA
ATOM     12  C   UNL     1       3.855   6.821  17.662  0.00  0.00    +0.000 C 
BRANCH  12  13
ATOM     13  C   UNL     1       2.889   7.772  18.272  0.00  0.00    +0.000 A 
ATOM     14  C   UNL     1       2.425   7.507  19.566  0.00  0.00    +0.000 A 
ATOM     15  C   UNL     1       1.490   8.355  20.162  0.00  0.00    +0.000 A 
ATOM     16  C   UNL     1       1.008   9.458  19.459  0.00  0.00    +0.000 A 
ATOM     17  I   UNL     1      -0.406  10.705  20.330  0.00  0.00    +0.000 I 
ATOM     18  C   UNL     1       1.459   9.722  18.165  0.00  0.00    +0.000 A 
ATOM     19  C   UNL     1       2.404   8.882  17.568  0.00  0.00    +0.000 A 
ENDBRANCH  12  13
ENDBRANCH   1  12
TORSDOF 3
ENDMDL
