MODEL 1
REMARK VINA RESULT:      -9.4      0.000      0.000
REMARK  Name = 
REMARK  5 active torsions:
REMARK  status: ('A' for Active; 'I' for Inactive)
REMARK    1  A    between atoms: C_2  and  O_11
REMARK    2  A    between atoms: N_3  and  C_4
REMARK    3  A    between atoms: O_11  and  C_12
REMARK    4  A    between atoms: C_19  and  C_20
REMARK    5  A    between atoms: C_20  and  C_21
REMARK                            x       y       z     vdW  Elec       q    Type
REMARK                         _______ _______ _______ _____ _____    ______ ____
ROOT
ATOM      1  C   UNL     1       2.471   4.944  18.805  0.00  0.00    +0.000 C 
ATOM      2  C   UNL     1       1.846   3.891  19.751  0.00  0.00    +0.000 C 
ATOM      3  C   UNL     1       1.169   2.814  18.895  0.00  0.00    +0.000 C 
ATOM      4  C   UNL     1       2.201   2.182  17.951  0.00  0.00    +0.000 C 
ATOM      5  N   UNL     1       3.557   2.747  18.162  0.00  0.00    +0.000 NA
ATOM      6  C   UNL     1       3.924   2.500  19.578  0.00  0.00    +0.000 C 
ATOM      7  C   UNL     1       2.984   3.229  20.546  0.00  0.00    +0.000 C 
ATOM      8  C   UNL     1       3.521   4.230  17.886  0.00  0.00    +0.000 C 
ENDROOT
BRANCH   1   9
ATOM      9  O   UNL     1       3.033   6.019  19.579  0.00  0.00    +0.000 OA
BRANCH   9  11
ATOM     10  O   UNL     1       2.195   7.839  18.499  0.00  0.00    +0.000 OA
ATOM     11  C   UNL     1       2.323   7.184  19.522  0.00  0.00    +0.000 C 
ATOM     12  N   UNL     1       1.833   7.485  20.766  0.00  0.00    +0.000 N 
ATOM     13  H   UNL     1       2.206   6.912  21.513  0.00  0.00    +0.000 HD
BRANCH  12  14
ATOM     14  C   UNL     1       1.052   8.615  21.090  0.00  0.00    +0.000 A 
ATOM     15  C   UNL     1       0.757   9.625  20.166  0.00  0.00    +0.000 A 
ATOM     16  C   UNL     1       0.057  10.771  20.548  0.00  0.00    +0.000 A 
ATOM     17  C   UNL     1      -0.367  10.907  21.864  0.00  0.00    +0.000 A 
ATOM     18 BR   UNL     1      -1.250  12.488  22.401  0.00  0.00    +0.000 Br
ATOM     19  C   UNL     1      -0.131   9.888  22.787  0.00  0.00    +0.000 A 
ATOM     20  C   UNL     1       0.567   8.737  22.397  0.00  0.00    +0.000 A 
ENDBRANCH  12  14
ENDBRANCH   9  11
ENDBRANCH   1   9
BRANCH   8  21
ATOM     21  C   UNL     1       4.950   4.815  17.868  0.00  0.00    +0.000 C 
BRANCH  21  22
ATOM     22  C   UNL     1       5.633   4.801  16.546  0.00  0.00    +0.000 A 
ATOM     23  C   UNL     1       6.760   5.396  16.015  0.00  0.00    +0.000 A 
ATOM     24  C   UNL     1       6.848   4.966  14.662  0.00  0.00    +0.000 A 
ATOM     25  C   UNL     1       7.729   5.181  13.585  0.00  0.00    +0.000 A 
ATOM     26  C   UNL     1       7.460   4.551  12.360  0.00  0.00    +0.000 A 
ATOM     27  C   UNL     1       6.339   3.734  12.195  0.00  0.00    +0.000 A 
ATOM     28  C   UNL     1       5.447   3.515  13.249  0.00  0.00    +0.000 A 
ATOM     29  C   UNL     1       5.749   4.143  14.453  0.00  0.00    +0.000 A 
ATOM     30  O   UNL     1       5.015   4.041  15.589  0.00  0.00    +0.000 OA
ENDBRANCH  21  22
ENDBRANCH   8  21
TORSDOF 5
ENDMDL
MODEL 2
REMARK VINA RESULT:      -9.1      0.812      1.269
REMARK  Name = 
REMARK  5 active torsions:
REMARK  status: ('A' for Active; 'I' for Inactive)
REMARK    1  A    between atoms: C_2  and  O_11
REMARK    2  A    between atoms: N_3  and  C_4
REMARK    3  A    between atoms: O_11  and  C_12
REMARK    4  A    between atoms: C_19  and  C_20
REMARK    5  A    between atoms: C_20  and  C_21
REMARK                            x       y       z     vdW  Elec       q    Type
REMARK                         _______ _______ _______ _____ _____    ______ ____
ROOT
ATOM      1  C   UNL     1       2.167   5.018  19.463  0.00  0.00    +0.000 C 
ATOM      2  C   UNL     1       1.322   4.177  20.448  0.00  0.00    +0.000 C 
ATOM      3  C   UNL     1       0.624   3.062  19.658  0.00  0.00    +0.000 C 
ATOM      4  C   UNL     1       1.676   2.204  18.942  0.00  0.00    +0.000 C 
ATOM      5  N   UNL     1       3.055   2.655  19.250  0.00  0.00    +0.000 NA
ATOM      6  C   UNL     1       3.230   2.575  20.720  0.00  0.00    +0.000 C 
ATOM      7  C   UNL     1       2.279   3.524  21.459  0.00  0.00    +0.000 C 
ATOM      8  C   UNL     1       3.223   4.080  18.783  0.00  0.00    +0.000 C 
ENDROOT
BRANCH   1   9
ATOM      9  O   UNL     1       2.760   6.130  20.157  0.00  0.00    +0.000 OA
BRANCH   9  11
ATOM     10  O   UNL     1       2.080   7.921  18.927  0.00  0.00    +0.000 OA
ATOM     11  C   UNL     1       2.102   7.314  19.988  0.00  0.00    +0.000 C 
ATOM     12  N   UNL     1       1.527   7.696  21.172  0.00  0.00    +0.000 N 
ATOM     13  H   UNL     1       1.818   7.149  21.973  0.00  0.00    +0.000 HD
BRANCH  12  14
ATOM     14  C   UNL     1       0.768   8.867  21.377  0.00  0.00    +0.000 A 
ATOM     15  C   UNL     1       0.370   9.302  22.648  0.00  0.00    +0.000 A 
ATOM     16  C   UNL     1      -0.456  10.416  22.804  0.00  0.00    +0.000 A 
ATOM     17  C   UNL     1      -0.882  11.115  21.681  0.00  0.00    +0.000 A 
ATOM     18 BR   UNL     1      -2.059  12.579  21.883  0.00  0.00    +0.000 Br
ATOM     19  C   UNL     1      -0.453  10.731  20.410  0.00  0.00    +0.000 A 
ATOM     20  C   UNL     1       0.381   9.615  20.260  0.00  0.00    +0.000 A 
ENDBRANCH  12  14
ENDBRANCH   9  11
ENDBRANCH   1   9
BRANCH   8  21
ATOM     21  C   UNL     1       4.704   4.511  18.872  0.00  0.00    +0.000 C 
BRANCH  21  22
ATOM     22  C   UNL     1       5.423   4.610  17.573  0.00  0.00    +0.000 A 
ATOM     23  C   UNL     1       6.578   5.225  17.133  0.00  0.00    +0.000 A 
ATOM     24  C   UNL     1       6.694   4.930  15.747  0.00  0.00    +0.000 A 
ATOM     25  C   UNL     1       7.609   5.227  14.719  0.00  0.00    +0.000 A 
ATOM     26  C   UNL     1       7.360   4.729  13.431  0.00  0.00    +0.000 A 
ATOM     27  C   UNL     1       6.224   3.963  13.157  0.00  0.00    +0.000 A 
ATOM     28  C   UNL     1       5.297   3.665  14.160  0.00  0.00    +0.000 A 
ATOM     29  C   UNL     1       5.582   4.161  15.429  0.00  0.00    +0.000 A 
ATOM     30  O   UNL     1       4.813   3.967  16.529  0.00  0.00    +0.000 OA
ENDBRANCH  21  22
ENDBRANCH   8  21
TORSDOF 5
ENDMDL
MODEL 3
REMARK VINA RESULT:      -9.0      0.987      1.504
REMARK  Name = 
REMARK  5 active torsions:
REMARK  status: ('A' for Active; 'I' for Inactive)
REMARK    1  A    between atoms: C_2  and  O_11
REMARK    2  A    between atoms: N_3  and  C_4
REMARK    3  A    between atoms: O_11  and  C_12
REMARK    4  A    between atoms: C_19  and  C_20
REMARK    5  A    between atoms: C_20  and  C_21
REMARK                            x       y       z     vdW  Elec       q    Type
REMARK                         _______ _______ _______ _____ _____    ______ ____
ROOT
ATOM      1  C   UNL     1       2.598   4.702  18.737  0.00  0.00    +0.000 C 
ATOM      2  C   UNL     1       2.068   3.602  19.687  0.00  0.00    +0.000 C 
ATOM      3  C   UNL     1       1.434   2.494  18.837  0.00  0.00    +0.000 C 
ATOM      4  C   UNL     1       2.476   1.938  17.857  0.00  0.00    +0.000 C 
ATOM      5  N   UNL     1       3.799   2.583  18.037  0.00  0.00    +0.000 NA
ATOM      6  C   UNL     1       4.222   2.346  19.439  0.00  0.00    +0.000 C 
ATOM      7  C   UNL     1       3.267   3.005  20.442  0.00  0.00    +0.000 C 
ATOM      8  C   UNL     1       3.663   4.064  17.779  0.00  0.00    +0.000 C 
ENDROOT
BRANCH   1   9
ATOM      9  O   UNL     1       3.115   5.802  19.507  0.00  0.00    +0.000 OA
BRANCH   9  11
ATOM     10  O   UNL     1       1.428   6.401  20.912  0.00  0.00    +0.000 OA
ATOM     11  C   UNL     1       2.160   6.661  19.970  0.00  0.00    +0.000 C 
ATOM     12  N   UNL     1       2.152   7.797  19.203  0.00  0.00    +0.000 N 
ATOM     13  H   UNL     1       2.710   7.737  18.360  0.00  0.00    +0.000 HD
BRANCH  12  14
ATOM     14  C   UNL     1       1.298   8.905  19.385  0.00  0.00    +0.000 A 
ATOM     15  C   UNL     1       0.990   9.428  20.647  0.00  0.00    +0.000 A 
ATOM     16  C   UNL     1       0.070  10.469  20.793  0.00  0.00    +0.000 A 
ATOM     17  C   UNL     1      -0.541  11.004  19.666  0.00  0.00    +0.000 A 
ATOM     18 BR   UNL     1      -1.839  12.362  19.865  0.00  0.00    +0.000 Br
ATOM     19  C   UNL     1      -0.208  10.535  18.395  0.00  0.00    +0.000 A 
ATOM     20  C   UNL     1       0.720   9.494  18.255  0.00  0.00    +0.000 A 
ENDBRANCH  12  14
ENDBRANCH   9  11
ENDBRANCH   1   9
BRANCH   8  21
ATOM     21  C   UNL     1       5.053   4.737  17.729  0.00  0.00    +0.000 C 
BRANCH  21  22
ATOM     22  C   UNL     1       5.717   4.738  16.397  0.00  0.00    +0.000 A 
ATOM     23  C   UNL     1       6.838   5.338  15.858  0.00  0.00    +0.000 A 
ATOM     24  C   UNL     1       6.906   4.924  14.499  0.00  0.00    +0.000 A 
ATOM     25  C   UNL     1       7.772   5.150  13.412  0.00  0.00    +0.000 A 
ATOM     26  C   UNL     1       7.485   4.535  12.183  0.00  0.00    +0.000 A 
ATOM     27  C   UNL     1       6.360   3.722  12.024  0.00  0.00    +0.000 A 
ATOM     28  C   UNL     1       5.482   3.492  13.088  0.00  0.00    +0.000 A 
ATOM     29  C   UNL     1       5.803   4.105  14.295  0.00  0.00    +0.000 A 
ATOM     30  O   UNL     1       5.084   3.991  15.440  0.00  0.00    +0.000 OA
ENDBRANCH  21  22
ENDBRANCH   8  21
TORSDOF 5
ENDMDL
MODEL 4
REMARK VINA RESULT:      -8.9      0.585      1.143
REMARK  Name = 
REMARK  5 active torsions:
REMARK  status: ('A' for Active; 'I' for Inactive)
REMARK    1  A    between atoms: C_2  and  O_11
REMARK    2  A    between atoms: N_3  and  C_4
REMARK    3  A    between atoms: O_11  and  C_12
REMARK    4  A    between atoms: C_19  and  C_20
REMARK    5  A    between atoms: C_20  and  C_21
REMARK                            x       y       z     vdW  Elec       q    Type
REMARK                         _______ _______ _______ _____ _____    ______ ____
ROOT
ATOM      1  C   UNL     1       2.251   5.013  18.954  0.00  0.00    +0.000 C 
ATOM      2  C   UNL     1       1.752   4.022  20.032  0.00  0.00    +0.000 C 
ATOM      3  C   UNL     1       0.945   2.918  19.338  0.00  0.00    +0.000 C 
ATOM      4  C   UNL     1       1.823   2.219  18.292  0.00  0.00    +0.000 C 
ATOM      5  N   UNL     1       3.202   2.763  18.280  0.00  0.00    +0.000 NA
ATOM      6  C   UNL     1       3.764   2.580  19.640  0.00  0.00    +0.000 C 
ATOM      7  C   UNL     1       2.982   3.376  20.692  0.00  0.00    +0.000 C 
ATOM      8  C   UNL     1       3.149   4.232  17.933  0.00  0.00    +0.000 C 
ENDROOT
BRANCH   1   9
ATOM      9  O   UNL     1       2.933   6.113  19.583  0.00  0.00    +0.000 OA
BRANCH   9  11
ATOM     10  O   UNL     1       2.099   7.980  18.583  0.00  0.00    +0.000 OA
ATOM     11  C   UNL     1       2.232   7.285  19.578  0.00  0.00    +0.000 C 
ATOM     12  N   UNL     1       1.759   7.543  20.838  0.00  0.00    +0.000 N 
ATOM     13  H   UNL     1       2.135   6.938  21.559  0.00  0.00    +0.000 HD
BRANCH  12  14
ATOM     14  C   UNL     1       0.992   8.666  21.214  0.00  0.00    +0.000 A 
ATOM     15  C   UNL     1       1.030   9.880  20.517  0.00  0.00    +0.000 A 
ATOM     16  C   UNL     1       0.325  10.996  20.971  0.00  0.00    +0.000 A 
ATOM     17  C   UNL     1      -0.438  10.899  22.128  0.00  0.00    +0.000 A 
ATOM     18 BR   UNL     1      -1.334  12.426  22.786  0.00  0.00    +0.000 Br
ATOM     19  C   UNL     1      -0.534   9.684  22.807  0.00  0.00    +0.000 A 
ATOM     20  C   UNL     1       0.171   8.566  22.343  0.00  0.00    +0.000 A 
ENDBRANCH  12  14
ENDBRANCH   9  11
ENDBRANCH   1   9
BRANCH   8  21
ATOM     21  C   UNL     1       4.569   4.784  17.684  0.00  0.00    +0.000 C 
BRANCH  21  22
ATOM     22  C   UNL     1       5.113   4.561  16.316  0.00  0.00    +0.000 A 
ATOM     23  C   UNL     1       4.798   3.735  15.255  0.00  0.00    +0.000 A 
ATOM     24  C   UNL     1       5.737   4.020  14.225  0.00  0.00    +0.000 A 
ATOM     25  C   UNL     1       5.977   3.560  12.917  0.00  0.00    +0.000 A 
ATOM     26  C   UNL     1       7.045   4.113  12.194  0.00  0.00    +0.000 A 
ATOM     27  C   UNL     1       7.870   5.092  12.755  0.00  0.00    +0.000 A 
ATOM     28  C   UNL     1       7.655   5.555  14.056  0.00  0.00    +0.000 A 
ATOM     29  C   UNL     1       6.580   4.996  14.739  0.00  0.00    +0.000 A 
ATOM     30  O   UNL     1       6.205   5.325  16.001  0.00  0.00    +0.000 OA
ENDBRANCH  21  22
ENDBRANCH   8  21
TORSDOF 5
ENDMDL
MODEL 5
REMARK VINA RESULT:      -8.9      1.038      1.431
REMARK  Name = 
REMARK  5 active torsions:
REMARK  status: ('A' for Active; 'I' for Inactive)
REMARK    1  A    between atoms: C_2  and  O_11
REMARK    2  A    between atoms: N_3  and  C_4
REMARK    3  A    between atoms: O_11  and  C_12
REMARK    4  A    between atoms: C_19  and  C_20
REMARK    5  A    between atoms: C_20  and  C_21
REMARK                            x       y       z     vdW  Elec       q    Type
REMARK                         _______ _______ _______ _____ _____    ______ ____
ROOT
ATOM      1  C   UNL     1       2.523   5.595  18.251  0.00  0.00    +0.000 C 
ATOM      2  C   UNL     1       1.830   4.794  19.378  0.00  0.00    +0.000 C 
ATOM      3  C   UNL     1       1.143   3.574  18.751  0.00  0.00    +0.000 C 
ATOM      4  C   UNL     1       2.183   2.722  18.011  0.00  0.00    +0.000 C 
ATOM      5  N   UNL     1       3.550   3.282  18.149  0.00  0.00    +0.000 NA
ATOM      6  C   UNL     1       3.861   3.342  19.598  0.00  0.00    +0.000 C 
ATOM      7  C   UNL     1       2.916   4.293  20.343  0.00  0.00    +0.000 C 
ATOM      8  C   UNL     1       3.576   4.668  17.552  0.00  0.00    +0.000 C 
ENDROOT
BRANCH   1   9
ATOM      9  O   UNL     1       3.097   6.799  18.792  0.00  0.00    +0.000 OA
BRANCH   9  11
ATOM     10  O   UNL     1       2.361   8.491  17.460  0.00  0.00    +0.000 OA
ATOM     11  C   UNL     1       2.372   7.929  18.544  0.00  0.00    +0.000 C 
ATOM     12  N   UNL     1       1.719   8.316  19.685  0.00  0.00    +0.000 N 
ATOM     13  H   UNL     1       2.007   7.821  20.521  0.00  0.00    +0.000 HD
BRANCH  12  14
ATOM     14  C   UNL     1       0.876   9.441  19.808  0.00  0.00    +0.000 A 
ATOM     15  C   UNL     1       0.775  10.190  20.987  0.00  0.00    +0.000 A 
ATOM     16  C   UNL     1      -0.136  11.241  21.099  0.00  0.00    +0.000 A 
ATOM     17  C   UNL     1      -0.949  11.560  20.017  0.00  0.00    +0.000 A 
ATOM     18 BR   UNL     1      -2.233  12.935  20.189  0.00  0.00    +0.000 Br
ATOM     19  C   UNL     1      -0.826  10.863  18.816  0.00  0.00    +0.000 A 
ATOM     20  C   UNL     1       0.095   9.812  18.708  0.00  0.00    +0.000 A 
ENDBRANCH  12  14
ENDBRANCH   9  11
ENDBRANCH   1   9
BRANCH   8  21
ATOM     21  C   UNL     1       5.026   5.195  17.465  0.00  0.00    +0.000 C 
BRANCH  21  22
ATOM     22  C   UNL     1       5.695   5.016  16.148  0.00  0.00    +0.000 A 
ATOM     23  C   UNL     1       6.853   5.487  15.562  0.00  0.00    +0.000 A 
ATOM     24  C   UNL     1       6.902   4.931  14.253  0.00  0.00    +0.000 A 
ATOM     25  C   UNL     1       7.785   4.990  13.159  0.00  0.00    +0.000 A 
ATOM     26  C   UNL     1       7.466   4.269  11.997  0.00  0.00    +0.000 A 
ATOM     27  C   UNL     1       6.293   3.515  11.911  0.00  0.00    +0.000 A 
ATOM     28  C   UNL     1       5.398   3.451  12.983  0.00  0.00    +0.000 A 
ATOM     29  C   UNL     1       5.751   4.165  14.123  0.00  0.00    +0.000 A 
ATOM     30  O   UNL     1       5.021   4.215  15.266  0.00  0.00    +0.000 OA
ENDBRANCH  21  22
ENDBRANCH   8  21
TORSDOF 5
ENDMDL
MODEL 6
REMARK VINA RESULT:      -8.7      1.012      1.269
REMARK  Name = 
REMARK  5 active torsions:
REMARK  status: ('A' for Active; 'I' for Inactive)
REMARK    1  A    between atoms: C_2  and  O_11
REMARK    2  A    between atoms: N_3  and  C_4
REMARK    3  A    between atoms: O_11  and  C_12
REMARK    4  A    between atoms: C_19  and  C_20
REMARK    5  A    between atoms: C_20  and  C_21
REMARK                            x       y       z     vdW  Elec       q    Type
REMARK                         _______ _______ _______ _____ _____    ______ ____
ROOT
ATOM      1  C   UNL     1       2.429   5.306  18.569  0.00  0.00    +0.000 C 
ATOM      2  C   UNL     1       1.801   4.317  19.579  0.00  0.00    +0.000 C 
ATOM      3  C   UNL     1       1.119   3.190  18.793  0.00  0.00    +0.000 C 
ATOM      4  C   UNL     1       2.148   2.498  17.889  0.00  0.00    +0.000 C 
ATOM      5  N   UNL     1       3.506   3.069  18.064  0.00  0.00    +0.000 NA
ATOM      6  C   UNL     1       3.874   2.910  19.492  0.00  0.00    +0.000 C 
ATOM      7  C   UNL     1       2.938   3.702  20.413  0.00  0.00    +0.000 C 
ATOM      8  C   UNL     1       3.475   4.533  17.695  0.00  0.00    +0.000 C 
ENDROOT
BRANCH   1   9
ATOM      9  O   UNL     1       2.996   6.426  19.274  0.00  0.00    +0.000 OA
BRANCH   9  11
ATOM     10  O   UNL     1       1.512   7.028  20.891  0.00  0.00    +0.000 OA
ATOM     11  C   UNL     1       2.074   7.264  19.832  0.00  0.00    +0.000 C 
ATOM     12  N   UNL     1       1.880   8.345  19.014  0.00  0.00    +0.000 N 
ATOM     13  H   UNL     1       2.304   8.259  18.098  0.00  0.00    +0.000 HD
BRANCH  12  14
ATOM     14  C   UNL     1       0.998   9.418  19.266  0.00  0.00    +0.000 A 
ATOM     15  C   UNL     1       0.166   9.965  18.281  0.00  0.00    +0.000 A 
ATOM     16  C   UNL     1      -0.626  11.084  18.545  0.00  0.00    +0.000 A 
ATOM     17  C   UNL     1      -0.599  11.658  19.810  0.00  0.00    +0.000 A 
ATOM     18 BR   UNL     1      -1.614  13.215  20.149  0.00  0.00    +0.000 Br
ATOM     19  C   UNL     1       0.181  11.097  20.820  0.00  0.00    +0.000 A 
ATOM     20  C   UNL     1       0.970   9.970  20.551  0.00  0.00    +0.000 A 
ENDBRANCH  12  14
ENDBRANCH   9  11
ENDBRANCH   1   9
BRANCH   8  21
ATOM     21  C   UNL     1       4.906   5.110  17.639  0.00  0.00    +0.000 C 
BRANCH  21  22
ATOM     22  C   UNL     1       5.597   4.988  16.327  0.00  0.00    +0.000 A 
ATOM     23  C   UNL     1       6.738   5.523  15.763  0.00  0.00    +0.000 A 
ATOM     24  C   UNL     1       6.827   4.994  14.445  0.00  0.00    +0.000 A 
ATOM     25  C   UNL     1       7.717   5.115  13.362  0.00  0.00    +0.000 A 
ATOM     26  C   UNL     1       7.445   4.403  12.183  0.00  0.00    +0.000 A 
ATOM     27  C   UNL     1       6.310   3.597  12.070  0.00  0.00    +0.000 A 
ATOM     28  C   UNL     1       5.407   3.471  13.130  0.00  0.00    +0.000 A 
ATOM     29  C   UNL     1       5.714   4.179  14.288  0.00  0.00    +0.000 A 
ATOM     30  O   UNL     1       4.971   4.173  15.422  0.00  0.00    +0.000 OA
ENDBRANCH  21  22
ENDBRANCH   8  21
TORSDOF 5
ENDMDL
MODEL 7
REMARK VINA RESULT:      -8.6      1.836      1.898
REMARK  Name = 
REMARK  5 active torsions:
REMARK  status: ('A' for Active; 'I' for Inactive)
REMARK    1  A    between atoms: C_2  and  O_11
REMARK    2  A    between atoms: N_3  and  C_4
REMARK    3  A    between atoms: O_11  and  C_12
REMARK    4  A    between atoms: C_19  and  C_20
REMARK    5  A    between atoms: C_20  and  C_21
REMARK                            x       y       z     vdW  Elec       q    Type
REMARK                         _______ _______ _______ _____ _____    ______ ____
ROOT
ATOM      1  C   UNL     1       2.761   5.255  18.104  0.00  0.00    +0.000 C 
ATOM      2  C   UNL     1       1.915   4.569  19.202  0.00  0.00    +0.000 C 
ATOM      3  C   UNL     1       1.137   3.412  18.561  0.00  0.00    +0.000 C 
ATOM      4  C   UNL     1       2.121   2.430  17.911  0.00  0.00    +0.000 C 
ATOM      5  N   UNL     1       3.530   2.841  18.124  0.00  0.00    +0.000 NA
ATOM      6  C   UNL     1       3.755   2.912  19.589  0.00  0.00    +0.000 C 
ATOM      7  C   UNL     1       2.876   3.982  20.248  0.00  0.00    +0.000 C 
ATOM      8  C   UNL     1       3.747   4.197  17.498  0.00  0.00    +0.000 C 
ENDROOT
BRANCH   1   9
ATOM      9  O   UNL     1       3.430   6.405  18.653  0.00  0.00    +0.000 OA
BRANCH   9  11
ATOM     10  O   UNL     1       2.104   7.387  20.220  0.00  0.00    +0.000 OA
ATOM     11  C   UNL     1       2.591   7.384  19.100  0.00  0.00    +0.000 C 
ATOM     12  N   UNL     1       2.377   8.298  18.102  0.00  0.00    +0.000 N 
ATOM     13  H   UNL     1       2.725   8.015  17.193  0.00  0.00    +0.000 HD
BRANCH  12  14
ATOM     14  C   UNL     1       1.564   9.447  18.199  0.00  0.00    +0.000 A 
ATOM     15  C   UNL     1       2.081  10.726  18.439  0.00  0.00    +0.000 A 
ATOM     16  C   UNL     1       1.237  11.824  18.618  0.00  0.00    +0.000 A 
ATOM     17  C   UNL     1      -0.139  11.648  18.546  0.00  0.00    +0.000 A 
ATOM     18 BR   UNL     1      -1.285  13.117  18.860  0.00  0.00    +0.000 Br
ATOM     19  C   UNL     1      -0.673  10.393  18.254  0.00  0.00    +0.000 A 
ATOM     20  C   UNL     1       0.179   9.296  18.069  0.00  0.00    +0.000 A 
ENDBRANCH  12  14
ENDBRANCH   9  11
ENDBRANCH   1   9
BRANCH   8  21
ATOM     21  C   UNL     1       5.248   4.560  17.494  0.00  0.00    +0.000 C 
BRANCH  21  22
ATOM     22  C   UNL     1       5.887   4.631  16.151  0.00  0.00    +0.000 A 
ATOM     23  C   UNL     1       6.938   5.336  15.598  0.00  0.00    +0.000 A 
ATOM     24  C   UNL     1       7.021   4.938  14.235  0.00  0.00    +0.000 A 
ATOM     25  C   UNL     1       7.843   5.251  13.136  0.00  0.00    +0.000 A 
ATOM     26  C   UNL     1       7.594   4.621  11.907  0.00  0.00    +0.000 A 
ATOM     27  C   UNL     1       6.547   3.708  11.760  0.00  0.00    +0.000 A 
ATOM     28  C   UNL     1       5.712   3.390  12.836  0.00  0.00    +0.000 A 
ATOM     29  C   UNL     1       5.995   4.023  14.043  0.00  0.00    +0.000 A 
ATOM     30  O   UNL     1       5.310   3.835  15.198  0.00  0.00    +0.000 OA
ENDBRANCH  21  22
ENDBRANCH   8  21
TORSDOF 5
ENDMDL
MODEL 8
REMARK VINA RESULT:      -8.6      7.253     11.093
REMARK  Name = 
REMARK  5 active torsions:
REMARK  status: ('A' for Active; 'I' for Inactive)
REMARK    1  A    between atoms: C_2  and  O_11
REMARK    2  A    between atoms: N_3  and  C_4
REMARK    3  A    between atoms: O_11  and  C_12
REMARK    4  A    between atoms: C_19  and  C_20
REMARK    5  A    between atoms: C_20  and  C_21
REMARK                            x       y       z     vdW  Elec       q    Type
REMARK                         _______ _______ _______ _____ _____    ______ ____
ROOT
ATOM      1  C   UNL     1       9.424  11.181  18.662  0.00  0.00    +0.000 C 
ATOM      2  C   UNL     1      10.694  11.583  17.876  0.00  0.00    +0.000 C 
ATOM      3  C   UNL     1      10.592  13.072  17.520  0.00  0.00    +0.000 C 
ATOM      4  C   UNL     1      10.439  13.898  18.805  0.00  0.00    +0.000 C 
ATOM      5  N   UNL     1      10.482  13.043  20.016  0.00  0.00    +0.000 NA
ATOM      6  C   UNL     1      11.782  12.327  20.008  0.00  0.00    +0.000 C 
ATOM      7  C   UNL     1      11.908  11.391  18.800  0.00  0.00    +0.000 C 
ATOM      8  C   UNL     1       9.343  12.054  19.962  0.00  0.00    +0.000 C 
ENDROOT
BRANCH   1   9
ATOM      9  O   UNL     1       9.444   9.767  18.929  0.00  0.00    +0.000 OA
BRANCH   9  11
ATOM     10  O   UNL     1       7.565   9.596  17.656  0.00  0.00    +0.000 OA
ATOM     11  C   UNL     1       8.424   9.071  18.348  0.00  0.00    +0.000 C 
ATOM     12  N   UNL     1       8.514   7.748  18.694  0.00  0.00    +0.000 N 
ATOM     13  H   UNL     1       9.188   7.551  19.423  0.00  0.00    +0.000 HD
BRANCH  12  14
ATOM     14  C   UNL     1       7.630   6.728  18.280  0.00  0.00    +0.000 A 
ATOM     15  C   UNL     1       7.195   6.591  16.956  0.00  0.00    +0.000 A 
ATOM     16  C   UNL     1       6.251   5.625  16.603  0.00  0.00    +0.000 A 
ATOM     17  C   UNL     1       5.743   4.776  17.578  0.00  0.00    +0.000 A 
ATOM     18 BR   UNL     1       4.413   3.516  17.117  0.00  0.00    +0.000 Br
ATOM     19  C   UNL     1       6.204   4.859  18.892  0.00  0.00    +0.000 A 
ATOM     20  C   UNL     1       7.156   5.827  19.240  0.00  0.00    +0.000 A 
ENDBRANCH  12  14
ENDBRANCH   9  11
ENDBRANCH   1   9
BRANCH   8  21
ATOM     21  C   UNL     1       9.212  11.302  21.305  0.00  0.00    +0.000 C 
BRANCH  21  22
ATOM     22  C   UNL     1       8.301  11.925  22.303  0.00  0.00    +0.000 A 
ATOM     23  C   UNL     1       7.662  13.143  22.425  0.00  0.00    +0.000 A 
ATOM     24  C   UNL     1       6.935  13.100  23.647  0.00  0.00    +0.000 A 
ATOM     25  C   UNL     1       6.088  13.974  24.354  0.00  0.00    +0.000 A 
ATOM     26  C   UNL     1       5.544  13.545  25.574  0.00  0.00    +0.000 A 
ATOM     27  C   UNL     1       5.839  12.282  26.095  0.00  0.00    +0.000 A 
ATOM     28  C   UNL     1       6.686  11.402  25.413  0.00  0.00    +0.000 A 
ATOM     29  C   UNL     1       7.196  11.854  24.201  0.00  0.00    +0.000 A 
ATOM     30  O   UNL     1       8.020  11.143  23.391  0.00  0.00    +0.000 OA
ENDBRANCH  21  22
ENDBRANCH   8  21
TORSDOF 5
ENDMDL
MODEL 9
REMARK VINA RESULT:      -8.5      1.067      1.556
REMARK  Name = 
REMARK  5 active torsions:
REMARK  status: ('A' for Active; 'I' for Inactive)
REMARK    1  A    between atoms: C_2  and  O_11
REMARK    2  A    between atoms: N_3  and  C_4
REMARK    3  A    between atoms: O_11  and  C_12
REMARK    4  A    between atoms: C_19  and  C_20
REMARK    5  A    between atoms: C_20  and  C_21
REMARK                            x       y       z     vdW  Elec       q    Type
REMARK                         _______ _______ _______ _____ _____    ______ ____
ROOT
ATOM      1  C   UNL     1       2.355   5.216  18.660  0.00  0.00    +0.000 C 
ATOM      2  C   UNL     1       1.750   4.394  19.823  0.00  0.00    +0.000 C 
ATOM      3  C   UNL     1       0.919   3.251  19.226  0.00  0.00    +0.000 C 
ATOM      4  C   UNL     1       1.809   2.384  18.326  0.00  0.00    +0.000 C 
ATOM      5  N   UNL     1       3.215   2.857  18.324  0.00  0.00    +0.000 NA
ATOM      6  C   UNL     1       3.697   2.820  19.726  0.00  0.00    +0.000 C 
ATOM      7  C   UNL     1       2.908   3.779  20.625  0.00  0.00    +0.000 C 
ATOM      8  C   UNL     1       3.258   4.270  17.796  0.00  0.00    +0.000 C 
ENDROOT
BRANCH   1   9
ATOM      9  O   UNL     1       3.063   6.353  19.185  0.00  0.00    +0.000 OA
BRANCH   9  11
ATOM     10  O   UNL     1       2.790   8.113  17.768  0.00  0.00    +0.000 OA
ATOM     11  C   UNL     1       2.535   7.559  18.827  0.00  0.00    +0.000 C 
ATOM     12  N   UNL     1       1.733   8.029  19.834  0.00  0.00    +0.000 N 
ATOM     13  H   UNL     1       1.801   7.508  20.700  0.00  0.00    +0.000 HD
BRANCH  12  14
ATOM     14  C   UNL     1       1.020   9.246  19.818  0.00  0.00    +0.000 A 
ATOM     15  C   UNL     1       0.384   9.739  18.671  0.00  0.00    +0.000 A 
ATOM     16  C   UNL     1      -0.235  10.990  18.670  0.00  0.00    +0.000 A 
ATOM     17  C   UNL     1      -0.232  11.756  19.830  0.00  0.00    +0.000 A 
ATOM     18 BR   UNL     1      -1.005  13.480  19.812  0.00  0.00    +0.000 Br
ATOM     19  C   UNL     1       0.348  11.261  20.998  0.00  0.00    +0.000 A 
ATOM     20  C   UNL     1       0.963  10.001  20.994  0.00  0.00    +0.000 A 
ENDBRANCH  12  14
ENDBRANCH   9  11
ENDBRANCH   1   9
BRANCH   8  21
ATOM     21  C   UNL     1       4.717   4.718  17.560  0.00  0.00    +0.000 C 
BRANCH  21  22
ATOM     22  C   UNL     1       5.240   4.501  16.183  0.00  0.00    +0.000 A 
ATOM     23  C   UNL     1       4.932   3.655  15.137  0.00  0.00    +0.000 A 
ATOM     24  C   UNL     1       5.839   3.962  14.085  0.00  0.00    +0.000 A 
ATOM     25  C   UNL     1       6.068   3.499  12.775  0.00  0.00    +0.000 A 
ATOM     26  C   UNL     1       7.101   4.082  12.026  0.00  0.00    +0.000 A 
ATOM     27  C   UNL     1       7.902   5.095  12.560  0.00  0.00    +0.000 A 
ATOM     28  C   UNL     1       7.698   5.563  13.862  0.00  0.00    +0.000 A 
ATOM     29  C   UNL     1       6.657   4.973  14.572  0.00  0.00    +0.000 A 
ATOM     30  O   UNL     1       6.297   5.300  15.838  0.00  0.00    +0.000 OA
ENDBRANCH  21  22
ENDBRANCH   8  21
TORSDOF 5
ENDMDL
