MODEL 1
REMARK VINA RESULT:      -9.1      0.000      0.000
REMARK  Name = 
REMARK  3 active torsions:
REMARK  status: ('A' for Active; 'I' for Inactive)
REMARK    1  A    between atoms: N_5  and  C_6
REMARK    2  A    between atoms: N_18  and  C_19
REMARK    3  A    between atoms: C_19  and  C_20
REMARK                            x       y       z     vdW  Elec       q    Type
REMARK                         _______ _______ _______ _____ _____    ______ ____
ROOT
ATOM      1  O   UNL     1       0.863   8.919  21.268  0.00  0.00    +0.000 OA
ATOM      2  C   UNL     1       1.303   8.748  20.137  0.00  0.00    +0.000 C 
ATOM      3  C   UNL     1       1.938   7.378  19.772  0.00  0.00    +0.000 C 
ATOM      4  O   UNL     1       1.958   6.497  20.626  0.00  0.00    +0.000 OA
ATOM      5  N   UNL     1       2.429   7.237  18.465  0.00  0.00    +0.000 N 
ATOM      6  C   UNL     1       2.723   8.423  17.679  0.00  0.00    +0.000 C 
ATOM      7  C   UNL     1       1.553   9.393  17.761  0.00  0.00    +0.000 C 
ATOM      8  N   UNL     1       1.242   9.731  19.142  0.00  0.00    +0.000 N 
ENDROOT
BRANCH   5   9
ATOM      9  C   UNL     1       2.860   5.962  17.996  0.00  0.00    +0.000 A 
ATOM     10  C   UNL     1       1.946   4.895  17.992  0.00  0.00    +0.000 A 
ATOM     11  C   UNL     1       2.324   3.652  17.494  0.00  0.00    +0.000 A 
ATOM     12  C   UNL     1       3.617   3.452  17.023  0.00  0.00    +0.000 A 
ATOM     13  C   UNL     1       4.567   4.487  17.051  0.00  0.00    +0.000 A 
ATOM     14  C   UNL     1       5.882   4.256  16.605  0.00  0.00    +0.000 A 
ATOM     15  C   UNL     1       6.850   5.258  16.660  0.00  0.00    +0.000 A 
ATOM     16  C   UNL     1       6.521   6.503  17.171  0.00  0.00    +0.000 A 
ATOM     17  C   UNL     1       5.222   6.746  17.616  0.00  0.00    +0.000 A 
ATOM     18  C   UNL     1       4.201   5.761  17.549  0.00  0.00    +0.000 A 
ENDBRANCH   5   9
BRANCH   8  19
ATOM     19  C   UNL     1       0.448  10.929  19.395  0.00  0.00    +0.000 C 
BRANCH  19  20
ATOM     20  C   UNL     1      -0.967  10.846  18.863  0.00  0.00    +0.000 A 
ATOM     21  C   UNL     1      -1.241   9.976  17.787  0.00  0.00    +0.000 A 
ATOM     22  C   UNL     1      -2.491   9.973  17.166  0.00  0.00    +0.000 A 
ATOM     23  C   UNL     1      -3.479  10.839  17.614  0.00  0.00    +0.000 A 
ATOM     24  F   UNL     1      -4.665  10.867  16.994  0.00  0.00    +0.000 F 
ATOM     25  C   UNL     1      -3.250  11.687  18.687  0.00  0.00    +0.000 A 
ATOM     26  C   UNL     1      -2.001  11.688  19.315  0.00  0.00    +0.000 A 
ATOM     27 CL   UNL     1      -1.792  12.771  20.645  0.00  0.00    +0.000 Cl
ENDBRANCH  19  20
ENDBRANCH   8  19
TORSDOF 3
ENDMDL
MODEL 2
REMARK VINA RESULT:      -9.0      2.149      2.669
REMARK  Name = 
REMARK  3 active torsions:
REMARK  status: ('A' for Active; 'I' for Inactive)
REMARK    1  A    between atoms: N_5  and  C_6
REMARK    2  A    between atoms: N_18  and  C_19
REMARK    3  A    between atoms: C_19  and  C_20
REMARK                            x       y       z     vdW  Elec       q    Type
REMARK                         _______ _______ _______ _____ _____    ______ ____
ROOT
ATOM      1  O   UNL     1       1.174   8.392  21.696  0.00  0.00    +0.000 OA
ATOM      2  C   UNL     1       1.431   8.327  20.498  0.00  0.00    +0.000 C 
ATOM      3  C   UNL     1       2.173   7.078  19.949  0.00  0.00    +0.000 C 
ATOM      4  O   UNL     1       2.459   6.178  20.733  0.00  0.00    +0.000 OA
ATOM      5  N   UNL     1       2.443   7.057  18.573  0.00  0.00    +0.000 N 
ATOM      6  C   UNL     1       2.433   8.302  17.823  0.00  0.00    +0.000 C 
ATOM      7  C   UNL     1       1.175   9.090  18.158  0.00  0.00    +0.000 C 
ATOM      8  N   UNL     1       1.065   9.327  19.590  0.00  0.00    +0.000 N 
ENDROOT
BRANCH   5   9
ATOM      9  C   UNL     1       2.956   5.876  17.962  0.00  0.00    +0.000 A 
ATOM     10  C   UNL     1       2.123   4.749  17.860  0.00  0.00    +0.000 A 
ATOM     11  C   UNL     1       2.579   3.598  17.224  0.00  0.00    +0.000 A 
ATOM     12  C   UNL     1       3.871   3.549  16.711  0.00  0.00    +0.000 A 
ATOM     13  C   UNL     1       4.742   4.644  16.834  0.00  0.00    +0.000 A 
ATOM     14  C   UNL     1       6.058   4.562  16.342  0.00  0.00    +0.000 A 
ATOM     15  C   UNL     1       6.951   5.624  16.486  0.00  0.00    +0.000 A 
ATOM     16  C   UNL     1       6.544   6.779  17.135  0.00  0.00    +0.000 A 
ATOM     17  C   UNL     1       5.242   6.874  17.627  0.00  0.00    +0.000 A 
ATOM     18  C   UNL     1       4.296   5.826  17.472  0.00  0.00    +0.000 A 
ENDBRANCH   5   9
BRANCH   8  19
ATOM     19  C   UNL     1       0.173  10.389  20.043  0.00  0.00    +0.000 C 
BRANCH  19  20
ATOM     20  C   UNL     1       0.537  11.759  19.513  0.00  0.00    +0.000 A 
ATOM     21  C   UNL     1       1.713  12.381  19.981  0.00  0.00    +0.000 A 
ATOM     22  C   UNL     1       2.014  13.700  19.639  0.00  0.00    +0.000 A 
ATOM     23  C   UNL     1       1.143  14.410  18.825  0.00  0.00    +0.000 A 
ATOM     24  F   UNL     1       1.410  15.688  18.527  0.00  0.00    +0.000 F 
ATOM     25  C   UNL     1      -0.007  13.819  18.325  0.00  0.00    +0.000 A 
ATOM     26  C   UNL     1      -0.308  12.496  18.662  0.00  0.00    +0.000 A 
ATOM     27 CL   UNL     1      -1.758  11.829  18.001  0.00  0.00    +0.000 Cl
ENDBRANCH  19  20
ENDBRANCH   8  19
TORSDOF 3
ENDMDL
MODEL 3
REMARK VINA RESULT:      -8.8      2.433      3.106
REMARK  Name = 
REMARK  3 active torsions:
REMARK  status: ('A' for Active; 'I' for Inactive)
REMARK    1  A    between atoms: N_5  and  C_6
REMARK    2  A    between atoms: N_18  and  C_19
REMARK    3  A    between atoms: C_19  and  C_20
REMARK                            x       y       z     vdW  Elec       q    Type
REMARK                         _______ _______ _______ _____ _____    ______ ____
ROOT
ATOM      1  O   UNL     1       1.157   8.643  21.435  0.00  0.00    +0.000 OA
ATOM      2  C   UNL     1       1.432   8.487  20.250  0.00  0.00    +0.000 C 
ATOM      3  C   UNL     1       2.155   7.187  19.805  0.00  0.00    +0.000 C 
ATOM      4  O   UNL     1       2.410   6.340  20.656  0.00  0.00    +0.000 OA
ATOM      5  N   UNL     1       2.448   7.062  18.439  0.00  0.00    +0.000 N 
ATOM      6  C   UNL     1       2.476   8.249  17.602  0.00  0.00    +0.000 C 
ATOM      7  C   UNL     1       1.231   9.084  17.857  0.00  0.00    +0.000 C 
ATOM      8  N   UNL     1       1.102   9.427  19.266  0.00  0.00    +0.000 N 
ENDROOT
BRANCH   5   9
ATOM      9  C   UNL     1       2.944   5.829  17.924  0.00  0.00    +0.000 A 
ATOM     10  C   UNL     1       2.085   4.719  17.873  0.00  0.00    +0.000 A 
ATOM     11  C   UNL     1       2.527   3.517  17.330  0.00  0.00    +0.000 A 
ATOM     12  C   UNL     1       3.830   3.401  16.858  0.00  0.00    +0.000 A 
ATOM     13  C   UNL     1       4.727   4.480  16.932  0.00  0.00    +0.000 A 
ATOM     14  C   UNL     1       6.053   4.332  16.485  0.00  0.00    +0.000 A 
ATOM     15  C   UNL     1       6.970   5.379  16.583  0.00  0.00    +0.000 A 
ATOM     16  C   UNL     1       6.577   6.585  17.141  0.00  0.00    +0.000 A 
ATOM     17  C   UNL     1       5.265   6.745  17.588  0.00  0.00    +0.000 A 
ATOM     18  C   UNL     1       4.296   5.713  17.477  0.00  0.00    +0.000 A 
ENDBRANCH   5   9
BRANCH   8  19
ATOM     19  C   UNL     1       0.226  10.536  19.626  0.00  0.00    +0.000 C 
BRANCH  19  20
ATOM     20  C   UNL     1       0.944  11.862  19.757  0.00  0.00    +0.000 A 
ATOM     21  C   UNL     1       1.875  12.234  18.766  0.00  0.00    +0.000 A 
ATOM     22  C   UNL     1       2.670  13.371  18.916  0.00  0.00    +0.000 A 
ATOM     23  C   UNL     1       2.540  14.149  20.058  0.00  0.00    +0.000 A 
ATOM     24  F   UNL     1       3.329  15.218  20.224  0.00  0.00    +0.000 F 
ATOM     25  C   UNL     1       1.613  13.827  21.039  0.00  0.00    +0.000 A 
ATOM     26  C   UNL     1       0.813  12.691  20.888  0.00  0.00    +0.000 A 
ATOM     27 CL   UNL     1      -0.318  12.355  22.150  0.00  0.00    +0.000 Cl
ENDBRANCH  19  20
ENDBRANCH   8  19
TORSDOF 3
ENDMDL
MODEL 4
REMARK VINA RESULT:      -8.8      3.656      7.737
REMARK  Name = 
REMARK  3 active torsions:
REMARK  status: ('A' for Active; 'I' for Inactive)
REMARK    1  A    between atoms: N_5  and  C_6
REMARK    2  A    between atoms: N_18  and  C_19
REMARK    3  A    between atoms: C_19  and  C_20
REMARK                            x       y       z     vdW  Elec       q    Type
REMARK                         _______ _______ _______ _____ _____    ______ ____
ROOT
ATOM      1  O   UNL     1       3.536   7.449  17.584  0.00  0.00    +0.000 OA
ATOM      2  C   UNL     1       2.760   7.824  18.456  0.00  0.00    +0.000 C 
ATOM      3  C   UNL     1       1.875   9.074  18.196  0.00  0.00    +0.000 C 
ATOM      4  O   UNL     1       1.965   9.637  17.110  0.00  0.00    +0.000 OA
ATOM      5  N   UNL     1       1.008   9.459  19.229  0.00  0.00    +0.000 N 
ATOM      6  C   UNL     1       1.256   8.996  20.584  0.00  0.00    +0.000 C 
ATOM      7  C   UNL     1       1.517   7.497  20.570  0.00  0.00    +0.000 C 
ATOM      8  N   UNL     1       2.617   7.159  19.679  0.00  0.00    +0.000 N 
ENDROOT
BRANCH   5   9
ATOM      9  C   UNL     1       0.038  10.480  19.005  0.00  0.00    +0.000 A 
ATOM     10  C   UNL     1      -1.274  10.108  18.667  0.00  0.00    +0.000 A 
ATOM     11  C   UNL     1      -2.253  11.081  18.491  0.00  0.00    +0.000 A 
ATOM     12  C   UNL     1      -1.931  12.428  18.623  0.00  0.00    +0.000 A 
ATOM     13  C   UNL     1      -0.620  12.834  18.920  0.00  0.00    +0.000 A 
ATOM     14  C   UNL     1      -0.305  14.203  19.012  0.00  0.00    +0.000 A 
ATOM     15  C   UNL     1       0.998  14.629  19.269  0.00  0.00    +0.000 A 
ATOM     16  C   UNL     1       2.008  13.693  19.426  0.00  0.00    +0.000 A 
ATOM     17  C   UNL     1       1.709  12.333  19.338  0.00  0.00    +0.000 A 
ATOM     18  C   UNL     1       0.390  11.861  19.108  0.00  0.00    +0.000 A 
ENDBRANCH   5   9
BRANCH   8  19
ATOM     19  C   UNL     1       3.263   5.861  19.847  0.00  0.00    +0.000 C 
BRANCH  19  20
ATOM     20  C   UNL     1       2.417   4.694  19.386  0.00  0.00    +0.000 A 
ATOM     21  C   UNL     1       1.343   4.269  20.196  0.00  0.00    +0.000 A 
ATOM     22  C   UNL     1       0.628   3.110  19.892  0.00  0.00    +0.000 A 
ATOM     23  C   UNL     1       0.979   2.364  18.774  0.00  0.00    +0.000 A 
ATOM     24  F   UNL     1       0.320   1.231  18.502  0.00  0.00    +0.000 F 
ATOM     25  C   UNL     1       2.011   2.770  17.942  0.00  0.00    +0.000 A 
ATOM     26  C   UNL     1       2.725   3.934  18.242  0.00  0.00    +0.000 A 
ATOM     27 CL   UNL     1       3.996   4.375  17.159  0.00  0.00    +0.000 Cl
ENDBRANCH  19  20
ENDBRANCH   8  19
TORSDOF 3
ENDMDL
MODEL 5
REMARK VINA RESULT:      -8.8      2.149      3.408
REMARK  Name = 
REMARK  3 active torsions:
REMARK  status: ('A' for Active; 'I' for Inactive)
REMARK    1  A    between atoms: N_5  and  C_6
REMARK    2  A    between atoms: N_18  and  C_19
REMARK    3  A    between atoms: C_19  and  C_20
REMARK                            x       y       z     vdW  Elec       q    Type
REMARK                         _______ _______ _______ _____ _____    ______ ____
ROOT
ATOM      1  O   UNL     1       1.006   8.402  21.479  0.00  0.00    +0.000 OA
ATOM      2  C   UNL     1       1.349   8.405  20.302  0.00  0.00    +0.000 C 
ATOM      3  C   UNL     1       2.304   7.294  19.788  0.00  0.00    +0.000 C 
ATOM      4  O   UNL     1       2.670   6.428  20.577  0.00  0.00    +0.000 OA
ATOM      5  N   UNL     1       2.666   7.347  18.434  0.00  0.00    +0.000 N 
ATOM      6  C   UNL     1       2.519   8.594  17.703  0.00  0.00    +0.000 C 
ATOM      7  C   UNL     1       1.138   9.178  17.961  0.00  0.00    +0.000 C 
ATOM      8  N   UNL     1       0.899   9.362  19.384  0.00  0.00    +0.000 N 
ENDROOT
BRANCH   5   9
ATOM      9  C   UNL     1       3.389   6.270  17.843  0.00  0.00    +0.000 A 
ATOM     10  C   UNL     1       4.600   6.546  17.186  0.00  0.00    +0.000 A 
ATOM     11  C   UNL     1       5.352   5.508  16.643  0.00  0.00    +0.000 A 
ATOM     12  C   UNL     1       4.895   4.197  16.726  0.00  0.00    +0.000 A 
ATOM     13  C   UNL     1       3.669   3.893  17.340  0.00  0.00    +0.000 A 
ATOM     14  C   UNL     1       3.205   2.565  17.380  0.00  0.00    +0.000 A 
ATOM     15  C   UNL     1       1.973   2.247  17.952  0.00  0.00    +0.000 A 
ATOM     16  C   UNL     1       1.182   3.254  18.482  0.00  0.00    +0.000 A 
ATOM     17  C   UNL     1       1.630   4.574  18.450  0.00  0.00    +0.000 A 
ATOM     18  C   UNL     1       2.891   4.933  17.903  0.00  0.00    +0.000 A 
ENDBRANCH   5   9
BRANCH   8  19
ATOM     19  C   UNL     1      -0.171  10.268  19.790  0.00  0.00    +0.000 C 
BRANCH  19  20
ATOM     20  C   UNL     1       0.137  11.728  19.535  0.00  0.00    +0.000 A 
ATOM     21  C   UNL     1       1.132  12.360  20.309  0.00  0.00    +0.000 A 
ATOM     22  C   UNL     1       1.350  13.735  20.216  0.00  0.00    +0.000 A 
ATOM     23  C   UNL     1       0.575  14.492  19.348  0.00  0.00    +0.000 A 
ATOM     24  F   UNL     1       0.754  15.818  19.287  0.00  0.00    +0.000 F 
ATOM     25  C   UNL     1      -0.392  13.897  18.553  0.00  0.00    +0.000 A 
ATOM     26  C   UNL     1      -0.608  12.519  18.640  0.00  0.00    +0.000 A 
ATOM     27 CL   UNL     1      -1.830  11.850  17.618  0.00  0.00    +0.000 Cl
ENDBRANCH  19  20
ENDBRANCH   8  19
TORSDOF 3
ENDMDL
MODEL 6
REMARK VINA RESULT:      -8.7      1.850      3.029
REMARK  Name = 
REMARK  3 active torsions:
REMARK  status: ('A' for Active; 'I' for Inactive)
REMARK    1  A    between atoms: N_5  and  C_6
REMARK    2  A    between atoms: N_18  and  C_19
REMARK    3  A    between atoms: C_19  and  C_20
REMARK                            x       y       z     vdW  Elec       q    Type
REMARK                         _______ _______ _______ _____ _____    ______ ____
ROOT
ATOM      1  O   UNL     1       1.955   9.939  17.442  0.00  0.00    +0.000 OA
ATOM      2  C   UNL     1       1.929   9.114  18.349  0.00  0.00    +0.000 C 
ATOM      3  C   UNL     1       2.654   7.753  18.156  0.00  0.00    +0.000 C 
ATOM      4  O   UNL     1       3.253   7.556  17.104  0.00  0.00    +0.000 OA
ATOM      5  N   UNL     1       2.591   6.846  19.224  0.00  0.00    +0.000 N 
ATOM      6  C   UNL     1       1.553   6.997  20.230  0.00  0.00    +0.000 C 
ATOM      7  C   UNL     1       1.495   8.445  20.691  0.00  0.00    +0.000 C 
ATOM      8  N   UNL     1       1.288   9.350  19.571  0.00  0.00    +0.000 N 
ENDROOT
BRANCH   5   9
ATOM      9  C   UNL     1       3.375   5.657  19.200  0.00  0.00    +0.000 A 
ATOM     10  C   UNL     1       4.771   5.761  19.325  0.00  0.00    +0.000 A 
ATOM     11  C   UNL     1       5.558   4.614  19.354  0.00  0.00    +0.000 A 
ATOM     12  C   UNL     1       4.969   3.360  19.234  0.00  0.00    +0.000 A 
ATOM     13  C   UNL     1       3.581   3.223  19.066  0.00  0.00    +0.000 A 
ATOM     14  C   UNL     1       3.008   1.948  18.907  0.00  0.00    +0.000 A 
ATOM     15  C   UNL     1       1.637   1.792  18.702  0.00  0.00    +0.000 A 
ATOM     16  C   UNL     1       0.821   2.911  18.642  0.00  0.00    +0.000 A 
ATOM     17  C   UNL     1       1.376   4.181  18.799  0.00  0.00    +0.000 A 
ATOM     18  C   UNL     1       2.762   4.377  19.039  0.00  0.00    +0.000 A 
ENDBRANCH   5   9
BRANCH   8  19
ATOM     19  C   UNL     1       0.805  10.697  19.855  0.00  0.00    +0.000 C 
BRANCH  19  20
ATOM     20  C   UNL     1      -0.644  10.917  19.478  0.00  0.00    +0.000 A 
ATOM     21  C   UNL     1      -1.196  10.163  18.422  0.00  0.00    +0.000 A 
ATOM     22  C   UNL     1      -2.477  10.432  17.939  0.00  0.00    +0.000 A 
ATOM     23  C   UNL     1      -3.220  11.457  18.508  0.00  0.00    +0.000 A 
ATOM     24  F   UNL     1      -4.434  11.743  18.021  0.00  0.00    +0.000 F 
ATOM     25  C   UNL     1      -2.718  12.199  19.567  0.00  0.00    +0.000 A 
ATOM     26  C   UNL     1      -1.437  11.928  20.055  0.00  0.00    +0.000 A 
ATOM     27 CL   UNL     1      -0.880  12.893  21.375  0.00  0.00    +0.000 Cl
ENDBRANCH  19  20
ENDBRANCH   8  19
TORSDOF 3
ENDMDL
MODEL 7
REMARK VINA RESULT:      -8.7      3.562      7.833
REMARK  Name = 
REMARK  3 active torsions:
REMARK  status: ('A' for Active; 'I' for Inactive)
REMARK    1  A    between atoms: N_5  and  C_6
REMARK    2  A    between atoms: N_18  and  C_19
REMARK    3  A    between atoms: C_19  and  C_20
REMARK                            x       y       z     vdW  Elec       q    Type
REMARK                         _______ _______ _______ _____ _____    ______ ____
ROOT
ATOM      1  O   UNL     1       3.264   7.981  17.655  0.00  0.00    +0.000 OA
ATOM      2  C   UNL     1       2.517   8.198  18.603  0.00  0.00    +0.000 C 
ATOM      3  C   UNL     1       1.553   9.414  18.544  0.00  0.00    +0.000 C 
ATOM      4  O   UNL     1       1.552  10.110  17.534  0.00  0.00    +0.000 OA
ATOM      5  N   UNL     1       0.723   9.618  19.657  0.00  0.00    +0.000 N 
ATOM      6  C   UNL     1       1.070   9.008  20.930  0.00  0.00    +0.000 C 
ATOM      7  C   UNL     1       1.411   7.541  20.717  0.00  0.00    +0.000 C 
ATOM      8  N   UNL     1       2.477   7.381  19.740  0.00  0.00    +0.000 N 
ENDROOT
BRANCH   5   9
ATOM      9  C   UNL     1      -0.312  10.597  19.608  0.00  0.00    +0.000 A 
ATOM     10  C   UNL     1      -0.341  11.602  20.590  0.00  0.00    +0.000 A 
ATOM     11  C   UNL     1      -1.310  12.600  20.539  0.00  0.00    +0.000 A 
ATOM     12  C   UNL     1      -2.269  12.592  19.532  0.00  0.00    +0.000 A 
ATOM     13  C   UNL     1      -2.291  11.578  18.560  0.00  0.00    +0.000 A 
ATOM     14  C   UNL     1      -3.293  11.565  17.571  0.00  0.00    +0.000 A 
ATOM     15  C   UNL     1      -3.355  10.548  16.619  0.00  0.00    +0.000 A 
ATOM     16  C   UNL     1      -2.424   9.522  16.649  0.00  0.00    +0.000 A 
ATOM     17  C   UNL     1      -1.426   9.522  17.623  0.00  0.00    +0.000 A 
ATOM     18  C   UNL     1      -1.312  10.557  18.590  0.00  0.00    +0.000 A 
ENDBRANCH   5   9
BRANCH   8  19
ATOM     19  C   UNL     1       3.202   6.115  19.714  0.00  0.00    +0.000 C 
BRANCH  19  20
ATOM     20  C   UNL     1       2.353   4.935  19.290  0.00  0.00    +0.000 A 
ATOM     21  C   UNL     1       1.344   4.475  20.161  0.00  0.00    +0.000 A 
ATOM     22  C   UNL     1       0.636   3.304  19.886  0.00  0.00    +0.000 A 
ATOM     23  C   UNL     1       0.929   2.582  18.737  0.00  0.00    +0.000 A 
ATOM     24  F   UNL     1       0.279   1.438  18.491  0.00  0.00    +0.000 F 
ATOM     25  C   UNL     1       1.896   3.023  17.846  0.00  0.00    +0.000 A 
ATOM     26  C   UNL     1       2.602   4.199  18.117  0.00  0.00    +0.000 A 
ATOM     27 CL   UNL     1       3.790   4.684  16.960  0.00  0.00    +0.000 Cl
ENDBRANCH  19  20
ENDBRANCH   8  19
TORSDOF 3
ENDMDL
MODEL 8
REMARK VINA RESULT:      -8.7      1.117      2.395
REMARK  Name = 
REMARK  3 active torsions:
REMARK  status: ('A' for Active; 'I' for Inactive)
REMARK    1  A    between atoms: N_5  and  C_6
REMARK    2  A    between atoms: N_18  and  C_19
REMARK    3  A    between atoms: C_19  and  C_20
REMARK                            x       y       z     vdW  Elec       q    Type
REMARK                         _______ _______ _______ _____ _____    ______ ____
ROOT
ATOM      1  O   UNL     1       0.893   8.550  21.475  0.00  0.00    +0.000 OA
ATOM      2  C   UNL     1       1.247   8.574  20.301  0.00  0.00    +0.000 C 
ATOM      3  C   UNL     1       2.235   7.492  19.785  0.00  0.00    +0.000 C 
ATOM      4  O   UNL     1       2.614   6.627  20.569  0.00  0.00    +0.000 OA
ATOM      5  N   UNL     1       2.608   7.569  18.436  0.00  0.00    +0.000 N 
ATOM      6  C   UNL     1       2.438   8.820  17.715  0.00  0.00    +0.000 C 
ATOM      7  C   UNL     1       1.040   9.366  17.966  0.00  0.00    +0.000 C 
ATOM      8  N   UNL     1       0.782   9.529  19.389  0.00  0.00    +0.000 N 
ENDROOT
BRANCH   5   9
ATOM      9  C   UNL     1       3.364   6.517  17.841  0.00  0.00    +0.000 A 
ATOM     10  C   UNL     1       4.577   6.828  17.204  0.00  0.00    +0.000 A 
ATOM     11  C   UNL     1       5.360   5.815  16.659  0.00  0.00    +0.000 A 
ATOM     12  C   UNL     1       4.932   4.493  16.718  0.00  0.00    +0.000 A 
ATOM     13  C   UNL     1       3.705   4.153  17.311  0.00  0.00    +0.000 A 
ATOM     14  C   UNL     1       3.270   2.815  17.327  0.00  0.00    +0.000 A 
ATOM     15  C   UNL     1       2.038   2.461  17.877  0.00  0.00    +0.000 A 
ATOM     16  C   UNL     1       1.217   3.443  18.409  0.00  0.00    +0.000 A 
ATOM     17  C   UNL     1       1.636   4.774  18.400  0.00  0.00    +0.000 A 
ATOM     18  C   UNL     1       2.895   5.168  17.876  0.00  0.00    +0.000 A 
ENDBRANCH   5   9
BRANCH   8  19
ATOM     19  C   UNL     1      -0.314  10.403  19.793  0.00  0.00    +0.000 C 
BRANCH  19  20
ATOM     20  C   UNL     1      -1.382  10.573  18.733  0.00  0.00    +0.000 A 
ATOM     21  C   UNL     1      -2.273   9.508  18.487  0.00  0.00    +0.000 A 
ATOM     22  C   UNL     1      -3.175   9.557  17.423  0.00  0.00    +0.000 A 
ATOM     23  C   UNL     1      -3.196  10.670  16.595  0.00  0.00    +0.000 A 
ATOM     24  F   UNL     1      -4.033  10.703  15.551  0.00  0.00    +0.000 F 
ATOM     25  C   UNL     1      -2.352  11.747  16.827  0.00  0.00    +0.000 A 
ATOM     26  C   UNL     1      -1.451  11.702  17.895  0.00  0.00    +0.000 A 
ATOM     27 CL   UNL     1      -0.433  13.080  18.120  0.00  0.00    +0.000 Cl
ENDBRANCH  19  20
ENDBRANCH   8  19
TORSDOF 3
ENDMDL
MODEL 9
REMARK VINA RESULT:      -8.6      3.491      7.680
REMARK  Name = 
REMARK  3 active torsions:
REMARK  status: ('A' for Active; 'I' for Inactive)
REMARK    1  A    between atoms: N_5  and  C_6
REMARK    2  A    between atoms: N_18  and  C_19
REMARK    3  A    between atoms: C_19  and  C_20
REMARK                            x       y       z     vdW  Elec       q    Type
REMARK                         _______ _______ _______ _____ _____    ______ ____
ROOT
ATOM      1  O   UNL     1       3.672   7.623  17.597  0.00  0.00    +0.000 OA
ATOM      2  C   UNL     1       2.845   7.871  18.467  0.00  0.00    +0.000 C 
ATOM      3  C   UNL     1       1.872   9.066  18.269  0.00  0.00    +0.000 C 
ATOM      4  O   UNL     1       1.948   9.714  17.230  0.00  0.00    +0.000 OA
ATOM      5  N   UNL     1       0.948   9.305  19.297  0.00  0.00    +0.000 N 
ATOM      6  C   UNL     1       1.194   8.762  20.622  0.00  0.00    +0.000 C 
ATOM      7  C   UNL     1       1.572   7.292  20.509  0.00  0.00    +0.000 C 
ATOM      8  N   UNL     1       2.720   7.107  19.633  0.00  0.00    +0.000 N 
ENDROOT
BRANCH   5   9
ATOM      9  C   UNL     1      -0.093  10.262  19.115  0.00  0.00    +0.000 A 
ATOM     10  C   UNL     1      -1.269   9.869  18.456  0.00  0.00    +0.000 A 
ATOM     11  C   UNL     1      -2.321  10.768  18.308  0.00  0.00    +0.000 A 
ATOM     12  C   UNL     1      -2.202  12.068  18.788  0.00  0.00    +0.000 A 
ATOM     13  C   UNL     1      -1.023  12.504  19.414  0.00  0.00    +0.000 A 
ATOM     14  C   UNL     1      -0.906  13.834  19.859  0.00  0.00    +0.000 A 
ATOM     15  C   UNL     1       0.269  14.298  20.450  0.00  0.00    +0.000 A 
ATOM     16  C   UNL     1       1.349  13.442  20.594  0.00  0.00    +0.000 A 
ATOM     17  C   UNL     1       1.247  12.121  20.159  0.00  0.00    +0.000 A 
ATOM     18  C   UNL     1       0.057  11.604  19.580  0.00  0.00    +0.000 A 
ENDBRANCH   5   9
BRANCH   8  19
ATOM     19  C   UNL     1       3.462   5.854  19.729  0.00  0.00    +0.000 C 
BRANCH  19  20
ATOM     20  C   UNL     1       2.644   4.632  19.366  0.00  0.00    +0.000 A 
ATOM     21  C   UNL     1       2.323   4.404  18.012  0.00  0.00    +0.000 A 
ATOM     22  C   UNL     1       1.450   3.380  17.643  0.00  0.00    +0.000 A 
ATOM     23  C   UNL     1       0.891   2.572  18.624  0.00  0.00    +0.000 A 
ATOM     24  F   UNL     1       0.023   1.614  18.276  0.00  0.00    +0.000 F 
ATOM     25  C   UNL     1       1.209   2.752  19.962  0.00  0.00    +0.000 A 
ATOM     26  C   UNL     1       2.087   3.775  20.333  0.00  0.00    +0.000 A 
ATOM     27 CL   UNL     1       2.434   3.936  22.018  0.00  0.00    +0.000 Cl
ENDBRANCH  19  20
ENDBRANCH   8  19
TORSDOF 3
ENDMDL
