MODEL 1
REMARK VINA RESULT:      -5.4      0.000      0.000
REMARK  Name = 
REMARK  4 active torsions:
REMARK  status: ('A' for Active; 'I' for Inactive)
REMARK    1  A    between atoms: N_1  and  C_2
REMARK    2  A    between atoms: C_2  and  C_3
REMARK    3  A    between atoms: CA_6  and  C_7
REMARK    4  A    between atoms: C_7  and  OXT_9
REMARK                            x       y       z     vdW  Elec       q    Type
REMARK                         _______ _______ _______ _____ _____    ______ ____
ROOT
ATOM      1  C   UNL     1       4.383   3.494  18.689  0.00  0.00    +0.000 A 
ATOM      2  C   UNL     1       3.650   4.270  17.818  0.00  0.00    +0.000 A 
ATOM      3  C   UNL     1       4.565   4.940  16.966  0.00  0.00    +0.000 A 
ATOM      4  CA  UNL     1       5.849   4.556  17.322  0.00  0.00    +0.000 A 
ATOM      5  N   UNL     1       5.706   3.650  18.353  0.00  0.00    +0.000 N 
ATOM      6  H   UNL     1       6.473   3.196  18.836  0.00  0.00    +0.000 HD
ENDROOT
BRANCH   4   7
ATOM      7  C   UNL     1       7.164   4.915  16.841  0.00  0.00    +0.000 C 
ATOM      8  O   UNL     1       7.398   5.854  16.095  0.00  0.00    +0.000 OA
BRANCH   7   9
ATOM      9  OXT UNL     1       8.142   4.097  17.295  0.00  0.00    +0.000 OA
ATOM     10  HXT UNL     1       8.431   4.306  18.199  0.00  0.00    +0.000 HD
ENDBRANCH   7   9
ENDBRANCH   4   7
BRANCH   1  11
ATOM     11  C   UNL     1       3.955   2.603  19.799  0.00  0.00    +0.000 C 
BRANCH  11  12
ATOM     12  N   UNL     1       5.093   1.836  20.288  0.00  0.00    +0.000 NA
ATOM     13  H   UNL     1       5.280   2.112  21.251  0.00  0.00    +0.000 HD
ATOM     14  H   UNL     1       5.919   2.113  19.759  0.00  0.00    +0.000 HD
ENDBRANCH  11  12
ENDBRANCH   1  11
TORSDOF 4
ENDMDL
MODEL 2
REMARK VINA RESULT:      -5.1      0.889      1.324
REMARK  Name = 
REMARK  4 active torsions:
REMARK  status: ('A' for Active; 'I' for Inactive)
REMARK    1  A    between atoms: N_1  and  C_2
REMARK    2  A    between atoms: C_2  and  C_3
REMARK    3  A    between atoms: CA_6  and  C_7
REMARK    4  A    between atoms: C_7  and  OXT_9
REMARK                            x       y       z     vdW  Elec       q    Type
REMARK                         _______ _______ _______ _____ _____    ______ ____
ROOT
ATOM      1  C   UNL     1       4.661   3.782  19.273  0.00  0.00    +0.000 A 
ATOM      2  C   UNL     1       4.236   5.092  19.217  0.00  0.00    +0.000 A 
ATOM      3  C   UNL     1       5.151   5.805  18.400  0.00  0.00    +0.000 A 
ATOM      4  CA  UNL     1       6.121   4.918  17.959  0.00  0.00    +0.000 A 
ATOM      5  N   UNL     1       5.779   3.687  18.480  0.00  0.00    +0.000 N 
ATOM      6  H   UNL     1       6.307   2.832  18.342  0.00  0.00    +0.000 HD
ENDROOT
BRANCH   4   7
ATOM      7  C   UNL     1       7.300   5.062  17.135  0.00  0.00    +0.000 C 
ATOM      8  O   UNL     1       8.170   4.213  17.014  0.00  0.00    +0.000 OA
BRANCH   7   9
ATOM      9  OXT UNL     1       7.363   6.253  16.496  0.00  0.00    +0.000 OA
ATOM     10  HXT UNL     1       7.545   6.171  15.545  0.00  0.00    +0.000 HD
ENDBRANCH   7   9
ENDBRANCH   4   7
BRANCH   1  11
ATOM     11  C   UNL     1       4.105   2.606  19.990  0.00  0.00    +0.000 C 
BRANCH  11  12
ATOM     12  N   UNL     1       5.160   1.636  20.250  0.00  0.00    +0.000 NA
ATOM     13  H   UNL     1       5.526   1.800  21.187  0.00  0.00    +0.000 HD
ATOM     14  H   UNL     1       5.936   1.827  19.616  0.00  0.00    +0.000 HD
ENDBRANCH  11  12
ENDBRANCH   1  11
TORSDOF 4
ENDMDL
MODEL 3
REMARK VINA RESULT:      -5.1      2.697      4.016
REMARK  Name = 
REMARK  4 active torsions:
REMARK  status: ('A' for Active; 'I' for Inactive)
REMARK    1  A    between atoms: N_1  and  C_2
REMARK    2  A    between atoms: C_2  and  C_3
REMARK    3  A    between atoms: CA_6  and  C_7
REMARK    4  A    between atoms: C_7  and  OXT_9
REMARK                            x       y       z     vdW  Elec       q    Type
REMARK                         _______ _______ _______ _____ _____    ______ ____
ROOT
ATOM      1  C   UNL     1       5.788   4.423  17.459  0.00  0.00    +0.000 A 
ATOM      2  C   UNL     1       4.499   4.661  17.034  0.00  0.00    +0.000 A 
ATOM      3  C   UNL     1       3.624   3.985  17.923  0.00  0.00    +0.000 A 
ATOM      4  CA  UNL     1       4.391   3.350  18.888  0.00  0.00    +0.000 A 
ATOM      5  N   UNL     1       5.703   3.660  18.599  0.00  0.00    +0.000 N 
ATOM      6  H   UNL     1       6.507   3.331  19.124  0.00  0.00    +0.000 HD
ENDROOT
BRANCH   4   7
ATOM      7  C   UNL     1       4.070   2.508  20.018  0.00  0.00    +0.000 C 
ATOM      8  O   UNL     1       3.005   2.525  20.617  0.00  0.00    +0.000 OA
BRANCH   7   9
ATOM      9  OXT UNL     1       5.079   1.677  20.370  0.00  0.00    +0.000 OA
ATOM     10  HXT UNL     1       5.294   1.712  21.316  0.00  0.00    +0.000 HD
ENDBRANCH   7   9
ENDBRANCH   4   7
BRANCH   1  11
ATOM     11  C   UNL     1       7.095   4.861  16.904  0.00  0.00    +0.000 C 
BRANCH  11  12
ATOM     12  N   UNL     1       8.181   4.163  17.578  0.00  0.00    +0.000 NA
ATOM     13  H   UNL     1       8.894   4.845  17.835  0.00  0.00    +0.000 HD
ATOM     14  H   UNL     1       8.629   3.540  16.907  0.00  0.00    +0.000 HD
ENDBRANCH  11  12
ENDBRANCH   1  11
TORSDOF 4
ENDMDL
MODEL 4
REMARK VINA RESULT:      -5.0      2.890      3.930
REMARK  Name = 
REMARK  4 active torsions:
REMARK  status: ('A' for Active; 'I' for Inactive)
REMARK    1  A    between atoms: N_1  and  C_2
REMARK    2  A    between atoms: C_2  and  C_3
REMARK    3  A    between atoms: CA_6  and  C_7
REMARK    4  A    between atoms: C_7  and  OXT_9
REMARK                            x       y       z     vdW  Elec       q    Type
REMARK                         _______ _______ _______ _____ _____    ______ ____
ROOT
ATOM      1  C   UNL     1       6.243   5.292  18.761  0.00  0.00    +0.000 A 
ATOM      2  C   UNL     1       5.102   5.839  18.215  0.00  0.00    +0.000 A 
ATOM      3  C   UNL     1       4.074   4.866  18.307  0.00  0.00    +0.000 A 
ATOM      4  CA  UNL     1       4.598   3.737  18.918  0.00  0.00    +0.000 A 
ATOM      5  N   UNL     1       5.912   4.037  19.212  0.00  0.00    +0.000 N 
ATOM      6  H   UNL     1       6.567   3.402  19.657  0.00  0.00    +0.000 HD
ENDROOT
BRANCH   4   7
ATOM      7  C   UNL     1       4.050   2.443  19.255  0.00  0.00    +0.000 C 
ATOM      8  O   UNL     1       2.896   2.101  19.044  0.00  0.00    +0.000 OA
BRANCH   7   9
ATOM      9  OXT UNL     1       4.947   1.619  19.845  0.00  0.00    +0.000 OA
ATOM     10  HXT UNL     1       4.983   1.717  20.811  0.00  0.00    +0.000 HD
ENDBRANCH   7   9
ENDBRANCH   4   7
BRANCH   1  11
ATOM     11  C   UNL     1       7.613   5.845  18.914  0.00  0.00    +0.000 C 
BRANCH  11  12
ATOM     12  N   UNL     1       8.114   5.571  20.255  0.00  0.00    +0.000 NA
ATOM     13  H   UNL     1       7.335   5.261  20.834  0.00  0.00    +0.000 HD
ATOM     14  H   UNL     1       8.429   6.449  20.667  0.00  0.00    +0.000 HD
ENDBRANCH  11  12
ENDBRANCH   1  11
TORSDOF 4
ENDMDL
MODEL 5
REMARK VINA RESULT:      -5.0      1.260      1.599
REMARK  Name = 
REMARK  4 active torsions:
REMARK  status: ('A' for Active; 'I' for Inactive)
REMARK    1  A    between atoms: N_1  and  C_2
REMARK    2  A    between atoms: C_2  and  C_3
REMARK    3  A    between atoms: CA_6  and  C_7
REMARK    4  A    between atoms: C_7  and  OXT_9
REMARK                            x       y       z     vdW  Elec       q    Type
REMARK                         _______ _______ _______ _____ _____    ______ ____
ROOT
ATOM      1  C   UNL     1       3.865   3.324  17.523  0.00  0.00    +0.000 A 
ATOM      2  C   UNL     1       3.495   4.651  17.479  0.00  0.00    +0.000 A 
ATOM      3  C   UNL     1       4.639   5.403  17.106  0.00  0.00    +0.000 A 
ATOM      4  CA  UNL     1       5.694   4.522  16.916  0.00  0.00    +0.000 A 
ATOM      5  N   UNL     1       5.185   3.261  17.146  0.00  0.00    +0.000 N 
ATOM      6  H   UNL     1       5.721   2.401  17.095  0.00  0.00    +0.000 HD
ENDROOT
BRANCH   4   7
ATOM      7  C   UNL     1       7.083   4.697  16.559  0.00  0.00    +0.000 C 
ATOM      8  O   UNL     1       8.024   4.205  17.164  0.00  0.00    +0.000 OA
BRANCH   7   9
ATOM      9  OXT UNL     1       7.261   5.480  15.469  0.00  0.00    +0.000 OA
ATOM     10  HXT UNL     1       8.106   5.960  15.473  0.00  0.00    +0.000 HD
ENDBRANCH   7   9
ENDBRANCH   4   7
BRANCH   1  11
ATOM     11  C   UNL     1       3.089   2.105  17.869  0.00  0.00    +0.000 C 
BRANCH  11  12
ATOM     12  N   UNL     1       3.995   1.018  18.212  0.00  0.00    +0.000 NA
ATOM     13  H   UNL     1       4.046   0.377  17.422  0.00  0.00    +0.000 HD
ATOM     14  H   UNL     1       3.581   0.481  18.974  0.00  0.00    +0.000 HD
ENDBRANCH  11  12
ENDBRANCH   1  11
TORSDOF 4
ENDMDL
MODEL 6
REMARK VINA RESULT:      -5.0      1.021      1.021
REMARK  Name = 
REMARK  4 active torsions:
REMARK  status: ('A' for Active; 'I' for Inactive)
REMARK    1  A    between atoms: N_1  and  C_2
REMARK    2  A    between atoms: C_2  and  C_3
REMARK    3  A    between atoms: CA_6  and  C_7
REMARK    4  A    between atoms: C_7  and  OXT_9
REMARK                            x       y       z     vdW  Elec       q    Type
REMARK                         _______ _______ _______ _____ _____    ______ ____
ROOT
ATOM      1  C   UNL     1       4.129   3.627  18.164  0.00  0.00    +0.000 A 
ATOM      2  C   UNL     1       3.587   4.743  17.565  0.00  0.00    +0.000 A 
ATOM      3  C   UNL     1       4.618   5.373  16.822  0.00  0.00    +0.000 A 
ATOM      4  CA  UNL     1       5.777   4.626  16.968  0.00  0.00    +0.000 A 
ATOM      5  N   UNL     1       5.441   3.551  17.765  0.00  0.00    +0.000 N 
ATOM      6  H   UNL     1       6.085   2.825  18.062  0.00  0.00    +0.000 HD
ENDROOT
BRANCH   4   7
ATOM      7  C   UNL     1       7.128   4.779  16.477  0.00  0.00    +0.000 C 
ATOM      8  O   UNL     1       7.436   5.410  15.477  0.00  0.00    +0.000 OA
BRANCH   7   9
ATOM      9  OXT UNL     1       8.049   4.142  17.238  0.00  0.00    +0.000 OA
ATOM     10  HXT UNL     1       8.647   4.748  17.706  0.00  0.00    +0.000 HD
ENDBRANCH   7   9
ENDBRANCH   4   7
BRANCH   1  11
ATOM     11  C   UNL     1       3.523   2.611  19.065  0.00  0.00    +0.000 C 
BRANCH  11  12
ATOM     12  N   UNL     1       3.232   1.395  18.318  0.00  0.00    +0.000 NA
ATOM     13  H   UNL     1       2.964   0.666  18.978  0.00  0.00    +0.000 HD
ATOM     14  H   UNL     1       4.096   1.068  17.886  0.00  0.00    +0.000 HD
ENDBRANCH  11  12
ENDBRANCH   1  11
TORSDOF 4
ENDMDL
MODEL 7
REMARK VINA RESULT:      -4.9      3.383      4.883
REMARK  Name = 
REMARK  4 active torsions:
REMARK  status: ('A' for Active; 'I' for Inactive)
REMARK    1  A    between atoms: N_1  and  C_2
REMARK    2  A    between atoms: C_2  and  C_3
REMARK    3  A    between atoms: CA_6  and  C_7
REMARK    4  A    between atoms: C_7  and  OXT_9
REMARK                            x       y       z     vdW  Elec       q    Type
REMARK                         _______ _______ _______ _____ _____    ______ ____
ROOT
ATOM      1  C   UNL     1       7.107   4.804  13.947  0.00  0.00    +0.000 A 
ATOM      2  C   UNL     1       5.990   4.025  14.155  0.00  0.00    +0.000 A 
ATOM      3  C   UNL     1       5.848   3.845  15.555  0.00  0.00    +0.000 A 
ATOM      4  CA  UNL     1       6.877   4.527  16.187  0.00  0.00    +0.000 A 
ATOM      5  N   UNL     1       7.609   5.128  15.184  0.00  0.00    +0.000 N 
ATOM      6  H   UNL     1       8.439   5.693  15.331  0.00  0.00    +0.000 HD
ENDROOT
BRANCH   4   7
ATOM      7  C   UNL     1       7.261   4.687  17.571  0.00  0.00    +0.000 C 
ATOM      8  O   UNL     1       6.639   5.342  18.393  0.00  0.00    +0.000 OA
BRANCH   7   9
ATOM      9  OXT UNL     1       8.405   4.036  17.887  0.00  0.00    +0.000 OA
ATOM     10  HXT UNL     1       9.018   4.570  18.419  0.00  0.00    +0.000 HD
ENDBRANCH   7   9
ENDBRANCH   4   7
BRANCH   1  11
ATOM     11  C   UNL     1       7.738   5.290  12.692  0.00  0.00    +0.000 C 
BRANCH  11  12
ATOM     12  N   UNL     1       8.932   6.064  13.003  0.00  0.00    +0.000 NA
ATOM     13  H   UNL     1       9.617   5.444  13.432  0.00  0.00    +0.000 HD
ATOM     14  H   UNL     1       8.694   6.748  13.720  0.00  0.00    +0.000 HD
ENDBRANCH  11  12
ENDBRANCH   1  11
TORSDOF 4
ENDMDL
MODEL 8
REMARK VINA RESULT:      -4.9      1.577      2.026
REMARK  Name = 
REMARK  4 active torsions:
REMARK  status: ('A' for Active; 'I' for Inactive)
REMARK    1  A    between atoms: N_1  and  C_2
REMARK    2  A    between atoms: C_2  and  C_3
REMARK    3  A    between atoms: CA_6  and  C_7
REMARK    4  A    between atoms: C_7  and  OXT_9
REMARK                            x       y       z     vdW  Elec       q    Type
REMARK                         _______ _______ _______ _____ _____    ______ ____
ROOT
ATOM      1  C   UNL     1       5.499   4.242  18.426  0.00  0.00    +0.000 A 
ATOM      2  C   UNL     1       6.468   5.163  18.759  0.00  0.00    +0.000 A 
ATOM      3  C   UNL     1       7.193   5.469  17.578  0.00  0.00    +0.000 A 
ATOM      4  CA  UNL     1       6.649   4.736  16.534  0.00  0.00    +0.000 A 
ATOM      5  N   UNL     1       5.599   4.022  17.073  0.00  0.00    +0.000 N 
ATOM      6  H   UNL     1       5.008   3.380  16.556  0.00  0.00    +0.000 HD
ENDROOT
BRANCH   4   7
ATOM      7  C   UNL     1       6.974   4.613  15.131  0.00  0.00    +0.000 C 
ATOM      8  O   UNL     1       7.712   5.371  14.519  0.00  0.00    +0.000 OA
BRANCH   7   9
ATOM      9  OXT UNL     1       6.369   3.560  14.532  0.00  0.00    +0.000 OA
ATOM     10  HXT UNL     1       6.409   3.594  13.562  0.00  0.00    +0.000 HD
ENDBRANCH   7   9
ENDBRANCH   4   7
BRANCH   1  11
ATOM     11  C   UNL     1       4.473   3.560  19.258  0.00  0.00    +0.000 C 
BRANCH  11  12
ATOM     12  N   UNL     1       4.985   2.280  19.728  0.00  0.00    +0.000 NA
ATOM     13  H   UNL     1       4.196   1.656  19.890  0.00  0.00    +0.000 HD
ATOM     14  H   UNL     1       5.413   2.421  20.643  0.00  0.00    +0.000 HD
ENDBRANCH  11  12
ENDBRANCH   1  11
TORSDOF 4
ENDMDL
MODEL 9
REMARK VINA RESULT:      -4.9      2.694      3.334
REMARK  Name = 
REMARK  4 active torsions:
REMARK  status: ('A' for Active; 'I' for Inactive)
REMARK    1  A    between atoms: N_1  and  C_2
REMARK    2  A    between atoms: C_2  and  C_3
REMARK    3  A    between atoms: CA_6  and  C_7
REMARK    4  A    between atoms: C_7  and  OXT_9
REMARK                            x       y       z     vdW  Elec       q    Type
REMARK                         _______ _______ _______ _____ _____    ______ ____
ROOT
ATOM      1  C   UNL     1       7.134   5.419  17.964  0.00  0.00    +0.000 A 
ATOM      2  C   UNL     1       6.009   4.628  18.051  0.00  0.00    +0.000 A 
ATOM      3  C   UNL     1       5.699   4.179  16.741  0.00  0.00    +0.000 A 
ATOM      4  CA  UNL     1       6.646   4.694  15.870  0.00  0.00    +0.000 A 
ATOM      5  N   UNL     1       7.526   5.420  16.647  0.00  0.00    +0.000 N 
ATOM      6  H   UNL     1       8.328   5.929  16.293  0.00  0.00    +0.000 HD
ENDROOT
BRANCH   4   7
ATOM      7  C   UNL     1       6.835   4.605  14.440  0.00  0.00    +0.000 C 
ATOM      8  O   UNL     1       6.237   3.832  13.707  0.00  0.00    +0.000 OA
BRANCH   7   9
ATOM      9  OXT UNL     1       7.761   5.472  13.967  0.00  0.00    +0.000 OA
ATOM     10  HXT UNL     1       8.609   5.424  14.439  0.00  0.00    +0.000 HD
ENDBRANCH   7   9
ENDBRANCH   4   7
BRANCH   1  11
ATOM     11  C   UNL     1       7.887   6.162  19.007  0.00  0.00    +0.000 C 
BRANCH  11  12
ATOM     12  N   UNL     1       7.892   5.406  20.252  0.00  0.00    +0.000 NA
ATOM     13  H   UNL     1       8.248   6.005  20.994  0.00  0.00    +0.000 HD
ATOM     14  H   UNL     1       8.567   4.647  20.165  0.00  0.00    +0.000 HD
ENDBRANCH  11  12
ENDBRANCH   1  11
TORSDOF 4
ENDMDL
