MODEL 1
REMARK VINA RESULT:      -7.6      0.000      0.000
REMARK  Name = 
REMARK  3 active torsions:
REMARK  status: ('A' for Active; 'I' for Inactive)
REMARK    1  A    between atoms: C_2  and  C_3
REMARK    2  A    between atoms: N_11  and  C_12
REMARK    3  A    between atoms: C_12  and  C_13
REMARK                            x       y       z     vdW  Elec       q    Type
REMARK                         _______ _______ _______ _____ _____    ______ ____
ROOT
ATOM      1  O   UNL     1       4.286   3.603  16.560  0.00  0.00    +0.000 OA
ATOM      2  C   UNL     1       4.461   4.785  16.853  0.00  0.00    +0.000 C 
ATOM      3  N   UNL     1       3.826   5.446  17.916  0.00  0.00    +0.000 N 
ATOM      4  C   UNL     1       3.844   6.908  18.053  0.00  0.00    +0.000 C 
ATOM      5  C   UNL     1       2.527   7.454  18.574  0.00  0.00    +0.000 C 
ATOM      6  N   UNL     1       2.204   6.862  19.861  0.00  0.00    +0.000 N 
ATOM      7  C   UNL     1       2.424   5.487  19.988  0.00  0.00    +0.000 A 
ATOM      8  C   UNL     1       1.887   4.769  21.076  0.00  0.00    +0.000 A 
ATOM      9  C   UNL     1       2.136   3.409  21.269  0.00  0.00    +0.000 A 
ATOM     10  C   UNL     1       2.937   2.724  20.371  0.00  0.00    +0.000 A 
ATOM     11  C   UNL     1       3.467   3.391  19.267  0.00  0.00    +0.000 A 
ATOM     12  C   UNL     1       3.220   4.758  19.043  0.00  0.00    +0.000 A 
ENDROOT
BRANCH   2  13
ATOM     13  C   UNL     1       5.383   5.646  15.979  0.00  0.00    +0.000 C 
ATOM     14  C   UNL     1       5.533   5.065  14.586  0.00  0.00    +0.000 C 
ATOM     15  C   UNL     1       6.798   4.239  14.680  0.00  0.00    +0.000 C 
ATOM     16  O   UNL     1       7.629   4.865  15.656  0.00  0.00    +0.000 OA
ATOM     17  C   UNL     1       6.812   5.690  16.497  0.00  0.00    +0.000 C 
ENDBRANCH   2  13
BRANCH   6  18
ATOM     18  C   UNL     1       1.429   7.679  20.787  0.00  0.00    +0.000 C 
BRANCH  18  19
ATOM     19  C   UNL     1       1.063   8.991  20.153  0.00  0.00    +0.000 C 
ATOM     20  C   UNL     1      -0.272   9.671  20.366  0.00  0.00    +0.000 C 
ATOM     21  C   UNL     1       0.962  10.229  21.013  0.00  0.00    +0.000 C 
ENDBRANCH  18  19
ENDBRANCH   6  18
TORSDOF 3
ENDMDL
MODEL 2
REMARK VINA RESULT:      -7.0      2.555      6.183
REMARK  Name = 
REMARK  3 active torsions:
REMARK  status: ('A' for Active; 'I' for Inactive)
REMARK    1  A    between atoms: C_2  and  C_3
REMARK    2  A    between atoms: N_11  and  C_12
REMARK    3  A    between atoms: C_12  and  C_13
REMARK                            x       y       z     vdW  Elec       q    Type
REMARK                         _______ _______ _______ _____ _____    ______ ____
ROOT
ATOM      1  O   UNL     1       1.421   7.651  20.925  0.00  0.00    +0.000 OA
ATOM      2  C   UNL     1       1.832   7.847  19.782  0.00  0.00    +0.000 C 
ATOM      3  N   UNL     1       2.455   6.876  18.982  0.00  0.00    +0.000 N 
ATOM      4  C   UNL     1       3.179   7.222  17.752  0.00  0.00    +0.000 C 
ATOM      5  C   UNL     1       4.424   6.376  17.560  0.00  0.00    +0.000 C 
ATOM      6  N   UNL     1       4.080   4.964  17.526  0.00  0.00    +0.000 N 
ATOM      7  C   UNL     1       3.147   4.527  18.471  0.00  0.00    +0.000 A 
ATOM      8  C   UNL     1       2.957   3.151  18.712  0.00  0.00    +0.000 A 
ATOM      9  C   UNL     1       1.992   2.676  19.603  0.00  0.00    +0.000 A 
ATOM     10  C   UNL     1       1.182   3.571  20.280  0.00  0.00    +0.000 A 
ATOM     11  C   UNL     1       1.355   4.942  20.089  0.00  0.00    +0.000 A 
ATOM     12  C   UNL     1       2.328   5.447  19.208  0.00  0.00    +0.000 A 
ENDROOT
BRANCH   2  13
ATOM     13  C   UNL     1       1.733   9.255  19.180  0.00  0.00    +0.000 C 
ATOM     14  C   UNL     1       1.010  10.210  20.110  0.00  0.00    +0.000 C 
ATOM     15  C   UNL     1      -0.422  10.165  19.623  0.00  0.00    +0.000 C 
ATOM     16  O   UNL     1      -0.374   9.891  18.224  0.00  0.00    +0.000 OA
ATOM     17  C   UNL     1       0.892   9.295  17.913  0.00  0.00    +0.000 C 
ENDBRANCH   2  13
BRANCH   6  18
ATOM     18  C   UNL     1       4.931   4.097  16.720  0.00  0.00    +0.000 C 
BRANCH  18  19
ATOM     19  C   UNL     1       5.485   4.848  15.543  0.00  0.00    +0.000 C 
ATOM     20  C   UNL     1       6.952   4.839  15.170  0.00  0.00    +0.000 C 
ATOM     21  C   UNL     1       5.962   4.083  14.331  0.00  0.00    +0.000 C 
ENDBRANCH  18  19
ENDBRANCH   6  18
TORSDOF 3
ENDMDL
MODEL 3
REMARK VINA RESULT:      -6.9      2.846      6.290
REMARK  Name = 
REMARK  3 active torsions:
REMARK  status: ('A' for Active; 'I' for Inactive)
REMARK    1  A    between atoms: C_2  and  C_3
REMARK    2  A    between atoms: N_11  and  C_12
REMARK    3  A    between atoms: C_12  and  C_13
REMARK                            x       y       z     vdW  Elec       q    Type
REMARK                         _______ _______ _______ _____ _____    ______ ____
ROOT
ATOM      1  O   UNL     1       1.350   8.677  20.360  0.00  0.00    +0.000 OA
ATOM      2  C   UNL     1       1.668   8.574  19.177  0.00  0.00    +0.000 C 
ATOM      3  N   UNL     1       2.442   7.530  18.646  0.00  0.00    +0.000 N 
ATOM      4  C   UNL     1       3.032   7.595  17.303  0.00  0.00    +0.000 C 
ATOM      5  C   UNL     1       4.414   6.970  17.250  0.00  0.00    +0.000 C 
ATOM      6  N   UNL     1       4.360   5.582  17.676  0.00  0.00    +0.000 N 
ATOM      7  C   UNL     1       3.572   5.303  18.797  0.00  0.00    +0.000 A 
ATOM      8  C   UNL     1       3.673   4.062  19.458  0.00  0.00    +0.000 A 
ATOM      9  C   UNL     1       2.860   3.725  20.542  0.00  0.00    +0.000 A 
ATOM     10  C   UNL     1       1.914   4.628  20.997  0.00  0.00    +0.000 A 
ATOM     11  C   UNL     1       1.799   5.876  20.387  0.00  0.00    +0.000 A 
ATOM     12  C   UNL     1       2.615   6.245  19.302  0.00  0.00    +0.000 A 
ENDROOT
BRANCH   2  13
ATOM     13  C   UNL     1       1.263   9.680  18.193  0.00  0.00    +0.000 C 
ATOM     14  C   UNL     1       2.008  10.972  18.468  0.00  0.00    +0.000 C 
ATOM     15  C   UNL     1       1.057  11.749  19.353  0.00  0.00    +0.000 C 
ATOM     16  O   UNL     1      -0.264  11.351  18.990  0.00  0.00    +0.000 OA
ATOM     17  C   UNL     1      -0.198  10.082  18.327  0.00  0.00    +0.000 C 
ENDBRANCH   2  13
BRANCH   6  18
ATOM     18  C   UNL     1       5.336   4.672  17.087  0.00  0.00    +0.000 C 
BRANCH  18  19
ATOM     19  C   UNL     1       5.634   5.068  15.668  0.00  0.00    +0.000 C 
ATOM     20  C   UNL     1       6.992   4.881  15.024  0.00  0.00    +0.000 C 
ATOM     21  C   UNL     1       5.847   3.994  14.626  0.00  0.00    +0.000 C 
ENDBRANCH  18  19
ENDBRANCH   6  18
TORSDOF 3
ENDMDL
MODEL 4
REMARK VINA RESULT:      -6.9      1.704      3.955
REMARK  Name = 
REMARK  3 active torsions:
REMARK  status: ('A' for Active; 'I' for Inactive)
REMARK    1  A    between atoms: C_2  and  C_3
REMARK    2  A    between atoms: N_11  and  C_12
REMARK    3  A    between atoms: C_12  and  C_13
REMARK                            x       y       z     vdW  Elec       q    Type
REMARK                         _______ _______ _______ _____ _____    ______ ____
ROOT
ATOM      1  O   UNL     1       5.650   6.802  15.878  0.00  0.00    +0.000 OA
ATOM      2  C   UNL     1       5.318   5.691  16.289  0.00  0.00    +0.000 C 
ATOM      3  N   UNL     1       4.500   5.466  17.408  0.00  0.00    +0.000 N 
ATOM      4  C   UNL     1       4.365   4.141  18.026  0.00  0.00    +0.000 C 
ATOM      5  C   UNL     1       4.272   4.218  19.538  0.00  0.00    +0.000 C 
ATOM      6  N   UNL     1       3.146   5.044  19.938  0.00  0.00    +0.000 N 
ATOM      7  C   UNL     1       2.957   6.230  19.223  0.00  0.00    +0.000 A 
ATOM      8  C   UNL     1       2.085   7.229  19.701  0.00  0.00    +0.000 A 
ATOM      9  C   UNL     1       1.825   8.399  18.985  0.00  0.00    +0.000 A 
ATOM     10  C   UNL     1       2.434   8.602  17.758  0.00  0.00    +0.000 A 
ATOM     11  C   UNL     1       3.323   7.650  17.261  0.00  0.00    +0.000 A 
ATOM     12  C   UNL     1       3.613   6.470  17.969  0.00  0.00    +0.000 A 
ENDROOT
BRANCH   2  13
ATOM     13  C   UNL     1       5.869   4.439  15.594  0.00  0.00    +0.000 C 
ATOM     14  C   UNL     1       7.362   4.545  15.354  0.00  0.00    +0.000 C 
ATOM     15  C   UNL     1       7.459   5.075  13.940  0.00  0.00    +0.000 C 
ATOM     16  O   UNL     1       6.311   4.598  13.240  0.00  0.00    +0.000 OA
ATOM     17  C   UNL     1       5.302   4.245  14.195  0.00  0.00    +0.000 C 
ENDBRANCH   2  13
BRANCH   6  18
ATOM     18  C   UNL     1       2.501   4.713  21.203  0.00  0.00    +0.000 C 
BRANCH  18  19
ATOM     19  C   UNL     1       1.347   3.776  20.978  0.00  0.00    +0.000 C 
ATOM     20  C   UNL     1       1.486   2.448  20.265  0.00  0.00    +0.000 C 
ATOM     21  C   UNL     1       1.280   2.481  21.752  0.00  0.00    +0.000 C 
ENDBRANCH  18  19
ENDBRANCH   6  18
TORSDOF 3
ENDMDL
MODEL 5
REMARK VINA RESULT:      -6.8      3.430      6.883
REMARK  Name = 
REMARK  3 active torsions:
REMARK  status: ('A' for Active; 'I' for Inactive)
REMARK    1  A    between atoms: C_2  and  C_3
REMARK    2  A    between atoms: N_11  and  C_12
REMARK    3  A    between atoms: C_12  and  C_13
REMARK                            x       y       z     vdW  Elec       q    Type
REMARK                         _______ _______ _______ _____ _____    ______ ____
ROOT
ATOM      1  O   UNL     1       3.758   4.703  20.498  0.00  0.00    +0.000 OA
ATOM      2  C   UNL     1       3.703   3.934  19.540  0.00  0.00    +0.000 C 
ATOM      3  N   UNL     1       4.410   4.104  18.339  0.00  0.00    +0.000 N 
ATOM      4  C   UNL     1       4.099   3.330  17.130  0.00  0.00    +0.000 C 
ATOM      5  C   UNL     1       4.228   4.159  15.866  0.00  0.00    +0.000 C 
ATOM      6  N   UNL     1       5.571   4.702  15.748  0.00  0.00    +0.000 N 
ATOM      7  C   UNL     1       6.140   5.219  16.916  0.00  0.00    +0.000 A 
ATOM      8  C   UNL     1       7.302   6.015  16.860  0.00  0.00    +0.000 A 
ATOM      9  C   UNL     1       7.931   6.499  18.009  0.00  0.00    +0.000 A 
ATOM     10  C   UNL     1       7.413   6.194  19.256  0.00  0.00    +0.000 A 
ATOM     11  C   UNL     1       6.250   5.430  19.354  0.00  0.00    +0.000 A 
ATOM     12  C   UNL     1       5.589   4.943  18.212  0.00  0.00    +0.000 A 
ENDROOT
BRANCH   2  13
ATOM     13  C   UNL     1       2.756   2.728  19.600  0.00  0.00    +0.000 C 
ATOM     14  C   UNL     1       1.396   3.056  19.016  0.00  0.00    +0.000 C 
ATOM     15  C   UNL     1       0.576   3.452  20.225  0.00  0.00    +0.000 C 
ATOM     16  O   UNL     1       1.097   2.723  21.335  0.00  0.00    +0.000 OA
ATOM     17  C   UNL     1       2.433   2.304  21.025  0.00  0.00    +0.000 C 
ENDBRANCH   2  13
BRANCH   6  18
ATOM     18  C   UNL     1       6.081   4.914  14.399  0.00  0.00    +0.000 C 
BRANCH  18  19
ATOM     19  C   UNL     1       6.004   3.644  13.600  0.00  0.00    +0.000 C 
ATOM     20  C   UNL     1       5.186   3.510  12.334  0.00  0.00    +0.000 C 
ATOM     21  C   UNL     1       6.684   3.570  12.254  0.00  0.00    +0.000 C 
ENDBRANCH  18  19
ENDBRANCH   6  18
TORSDOF 3
ENDMDL
MODEL 6
REMARK VINA RESULT:      -6.6      0.862      1.077
REMARK  Name = 
REMARK  3 active torsions:
REMARK  status: ('A' for Active; 'I' for Inactive)
REMARK    1  A    between atoms: C_2  and  C_3
REMARK    2  A    between atoms: N_11  and  C_12
REMARK    3  A    between atoms: C_12  and  C_13
REMARK                            x       y       z     vdW  Elec       q    Type
REMARK                         _______ _______ _______ _____ _____    ______ ____
ROOT
ATOM      1  O   UNL     1       4.349   3.886  16.626  0.00  0.00    +0.000 OA
ATOM      2  C   UNL     1       4.572   5.086  16.774  0.00  0.00    +0.000 C 
ATOM      3  N   UNL     1       3.868   5.926  17.651  0.00  0.00    +0.000 N 
ATOM      4  C   UNL     1       3.971   7.390  17.588  0.00  0.00    +0.000 C 
ATOM      5  C   UNL     1       2.645   8.073  17.864  0.00  0.00    +0.000 C 
ATOM      6  N   UNL     1       2.138   7.691  19.171  0.00  0.00    +0.000 N 
ATOM      7  C   UNL     1       2.245   6.339  19.511  0.00  0.00    +0.000 A 
ATOM      8  C   UNL     1       1.540   5.815  20.613  0.00  0.00    +0.000 A 
ATOM      9  C   UNL     1       1.670   4.485  21.019  0.00  0.00    +0.000 A 
ATOM     10  C   UNL     1       2.518   3.637  20.328  0.00  0.00    +0.000 A 
ATOM     11  C   UNL     1       3.215   4.109  19.216  0.00  0.00    +0.000 A 
ATOM     12  C   UNL     1       3.091   5.440  18.779  0.00  0.00    +0.000 A 
ENDROOT
BRANCH   2  13
ATOM     13  C   UNL     1       5.645   5.762  15.909  0.00  0.00    +0.000 C 
ATOM     14  C   UNL     1       5.736   5.127  14.536  0.00  0.00    +0.000 C 
ATOM     15  C   UNL     1       6.846   4.109  14.687  0.00  0.00    +0.000 C 
ATOM     16  O   UNL     1       7.742   4.619  15.674  0.00  0.00    +0.000 OA
ATOM     17  C   UNL     1       7.048   5.588  16.471  0.00  0.00    +0.000 C 
ENDBRANCH   2  13
BRANCH   6  18
ATOM     18  C   UNL     1       1.322   8.673  19.875  0.00  0.00    +0.000 C 
BRANCH  18  19
ATOM     19  C   UNL     1       1.155   8.282  21.317  0.00  0.00    +0.000 C 
ATOM     20  C   UNL     1       1.192   9.280  22.455  0.00  0.00    +0.000 C 
ATOM     21  C   UNL     1      -0.113   8.658  22.047  0.00  0.00    +0.000 C 
ENDBRANCH  18  19
ENDBRANCH   6  18
TORSDOF 3
ENDMDL
MODEL 7
REMARK VINA RESULT:      -6.6      2.864      6.510
REMARK  Name = 
REMARK  3 active torsions:
REMARK  status: ('A' for Active; 'I' for Inactive)
REMARK    1  A    between atoms: C_2  and  C_3
REMARK    2  A    between atoms: N_11  and  C_12
REMARK    3  A    between atoms: C_12  and  C_13
REMARK                            x       y       z     vdW  Elec       q    Type
REMARK                         _______ _______ _______ _____ _____    ______ ____
ROOT
ATOM      1  O   UNL     1       1.252   8.487  21.323  0.00  0.00    +0.000 OA
ATOM      2  C   UNL     1       1.377   8.625  20.107  0.00  0.00    +0.000 C 
ATOM      3  N   UNL     1       2.058   7.728  19.269  0.00  0.00    +0.000 N 
ATOM      4  C   UNL     1       2.426   8.070  17.889  0.00  0.00    +0.000 C 
ATOM      5  C   UNL     1       3.782   7.514  17.499  0.00  0.00    +0.000 C 
ATOM      6  N   UNL     1       3.802   6.068  17.650  0.00  0.00    +0.000 N 
ATOM      7  C   UNL     1       3.204   5.553  18.804  0.00  0.00    +0.000 A 
ATOM      8  C   UNL     1       3.414   4.213  19.187  0.00  0.00    +0.000 A 
ATOM      9  C   UNL     1       2.786   3.647  20.299  0.00  0.00    +0.000 A 
ATOM     10  C   UNL     1       1.922   4.413  21.063  0.00  0.00    +0.000 A 
ATOM     11  C   UNL     1       1.707   5.751  20.733  0.00  0.00    +0.000 A 
ATOM     12  C   UNL     1       2.338   6.348  19.627  0.00  0.00    +0.000 A 
ENDROOT
BRANCH   2  13
ATOM     13  C   UNL     1       0.816   9.884  19.433  0.00  0.00    +0.000 C 
ATOM     14  C   UNL     1       1.408  11.146  20.029  0.00  0.00    +0.000 C 
ATOM     15  C   UNL     1       0.396  11.553  21.079  0.00  0.00    +0.000 C 
ATOM     16  O   UNL     1      -0.878  11.101  20.621  0.00  0.00    +0.000 OA
ATOM     17  C   UNL     1      -0.678  10.057  19.659  0.00  0.00    +0.000 C 
ENDBRANCH   2  13
BRANCH   6  18
ATOM     18  C   UNL     1       4.673   5.323  16.749  0.00  0.00    +0.000 C 
BRANCH  18  19
ATOM     19  C   UNL     1       6.107   5.723  16.952  0.00  0.00    +0.000 C 
ATOM     20  C   UNL     1       7.178   4.759  17.418  0.00  0.00    +0.000 C 
ATOM     21  C   UNL     1       7.160   5.225  15.991  0.00  0.00    +0.000 C 
ENDBRANCH  18  19
ENDBRANCH   6  18
TORSDOF 3
ENDMDL
MODEL 8
REMARK VINA RESULT:      -6.5      2.944      6.280
REMARK  Name = 
REMARK  3 active torsions:
REMARK  status: ('A' for Active; 'I' for Inactive)
REMARK    1  A    between atoms: C_2  and  C_3
REMARK    2  A    between atoms: N_11  and  C_12
REMARK    3  A    between atoms: C_12  and  C_13
REMARK                            x       y       z     vdW  Elec       q    Type
REMARK                         _______ _______ _______ _____ _____    ______ ____
ROOT
ATOM      1  O   UNL     1       1.701   9.556  17.405  0.00  0.00    +0.000 OA
ATOM      2  C   UNL     1       1.607   9.299  18.604  0.00  0.00    +0.000 C 
ATOM      3  N   UNL     1       1.980   8.079  19.190  0.00  0.00    +0.000 N 
ATOM      4  C   UNL     1       1.590   7.714  20.558  0.00  0.00    +0.000 C 
ATOM      5  C   UNL     1       1.255   6.240  20.688  0.00  0.00    +0.000 C 
ATOM      6  N   UNL     1       2.388   5.423  20.286  0.00  0.00    +0.000 N 
ATOM      7  C   UNL     1       3.070   5.827  19.134  0.00  0.00    +0.000 A 
ATOM      8  C   UNL     1       3.989   4.965  18.502  0.00  0.00    +0.000 A 
ATOM      9  C   UNL     1       4.733   5.356  17.386  0.00  0.00    +0.000 A 
ATOM     10  C   UNL     1       4.579   6.631  16.870  0.00  0.00    +0.000 A 
ATOM     11  C   UNL     1       3.662   7.507  17.451  0.00  0.00    +0.000 A 
ATOM     12  C   UNL     1       2.890   7.133  18.567  0.00  0.00    +0.000 A 
ENDROOT
BRANCH   2  13
ATOM     13  C   UNL     1       0.985  10.337  19.547  0.00  0.00    +0.000 C 
ATOM     14  C   UNL     1      -0.530  10.319  19.474  0.00  0.00    +0.000 C 
ATOM     15  C   UNL     1      -0.850  11.402  18.466  0.00  0.00    +0.000 C 
ATOM     16  O   UNL     1       0.189  12.375  18.561  0.00  0.00    +0.000 OA
ATOM     17  C   UNL     1       1.338  11.766  19.165  0.00  0.00    +0.000 C 
ENDBRANCH   2  13
BRANCH   6  18
ATOM     18  C   UNL     1       2.531   4.127  20.937  0.00  0.00    +0.000 C 
BRANCH  18  19
ATOM     19  C   UNL     1       1.382   3.228  20.580  0.00  0.00    +0.000 C 
ATOM     20  C   UNL     1       0.888   3.038  19.162  0.00  0.00    +0.000 C 
ATOM     21  C   UNL     1       1.649   1.937  19.842  0.00  0.00    +0.000 C 
ENDBRANCH  18  19
ENDBRANCH   6  18
TORSDOF 3
ENDMDL
MODEL 9
REMARK VINA RESULT:      -6.4      2.566      6.105
REMARK  Name = 
REMARK  3 active torsions:
REMARK  status: ('A' for Active; 'I' for Inactive)
REMARK    1  A    between atoms: C_2  and  C_3
REMARK    2  A    between atoms: N_11  and  C_12
REMARK    3  A    between atoms: C_12  and  C_13
REMARK                            x       y       z     vdW  Elec       q    Type
REMARK                         _______ _______ _______ _____ _____    ______ ____
ROOT
ATOM      1  O   UNL     1       1.398   6.746  20.044  0.00  0.00    +0.000 OA
ATOM      2  C   UNL     1       2.170   7.202  19.202  0.00  0.00    +0.000 C 
ATOM      3  N   UNL     1       3.093   6.439  18.469  0.00  0.00    +0.000 N 
ATOM      4  C   UNL     1       4.179   7.052  17.694  0.00  0.00    +0.000 C 
ATOM      5  C   UNL     1       5.462   6.247  17.762  0.00  0.00    +0.000 C 
ATOM      6  N   UNL     1       5.241   4.895  17.278  0.00  0.00    +0.000 N 
ATOM      7  C   UNL     1       4.066   4.266  17.700  0.00  0.00    +0.000 A 
ATOM      8  C   UNL     1       3.890   2.878  17.527  0.00  0.00    +0.000 A 
ATOM      9  C   UNL     1       2.707   2.225  17.880  0.00  0.00    +0.000 A 
ATOM     10  C   UNL     1       1.657   2.951  18.417  0.00  0.00    +0.000 A 
ATOM     11  C   UNL     1       1.799   4.322  18.627  0.00  0.00    +0.000 A 
ATOM     12  C   UNL     1       2.986   5.000  18.293  0.00  0.00    +0.000 A 
ENDROOT
BRANCH   2  13
ATOM     13  C   UNL     1       2.199   8.716  18.953  0.00  0.00    +0.000 C 
ATOM     14  C   UNL     1       1.413   9.470  20.007  0.00  0.00    +0.000 C 
ATOM     15  C   UNL     1       0.046   9.639  19.378  0.00  0.00    +0.000 C 
ATOM     16  O   UNL     1       0.246   9.702  17.966  0.00  0.00    +0.000 OA
ATOM     17  C   UNL     1       1.515   9.112  17.653  0.00  0.00    +0.000 C 
ENDBRANCH   2  13
BRANCH   6  18
ATOM     18  C   UNL     1       6.373   4.227  16.646  0.00  0.00    +0.000 C 
BRANCH  18  19
ATOM     19  C   UNL     1       6.548   4.710  15.234  0.00  0.00    +0.000 C 
ATOM     20  C   UNL     1       6.296   3.838  14.023  0.00  0.00    +0.000 C 
ATOM     21  C   UNL     1       5.330   4.935  14.369  0.00  0.00    +0.000 C 
ENDBRANCH  18  19
ENDBRANCH   6  18
TORSDOF 3
ENDMDL
