MODEL 1
REMARK VINA RESULT:      -6.2      0.000      0.000
REMARK  Name = 
REMARK  21 active torsions:
REMARK  status: ('A' for Active; 'I' for Inactive)
REMARK    1  A    between atoms: C_1  and  C_2
REMARK    2  A    between atoms: C_2  and  C_3
REMARK    3  A    between atoms: C_3  and  C_4
REMARK    4  A    between atoms: C_4  and  C_5
REMARK    5  A    between atoms: C_5  and  C_6
REMARK    6  A    between atoms: C_6  and  C_7
REMARK    7  A    between atoms: C_7  and  C_8
REMARK    8  A    between atoms: C_8  and  C_9
REMARK    9  A    between atoms: C_9  and  C_10
REMARK   10  A    between atoms: C_10  and  C_11
REMARK   11  A    between atoms: C_15  and  C_16
REMARK   12  A    between atoms: C_16  and  C_17
REMARK   13  A    between atoms: C_17  and  C_18
REMARK   14  A    between atoms: C_18  and  C_19
REMARK   15  A    between atoms: C_19  and  S_20
REMARK   16  A    between atoms: S_20  and  C_23
REMARK   17  A    between atoms: C_23  and  C_24
REMARK   18  A    between atoms: C_24  and  C_25
REMARK   19  A    between atoms: C_25  and  N_26
REMARK   20  A    between atoms: N_26  and  C_27
REMARK   21  A    between atoms: N_26  and  C_28
REMARK                            x       y       z     vdW  Elec       q    Type
REMARK                         _______ _______ _______ _____ _____    ______ ____
ROOT
ATOM      1  C   UNL     1       1.133   4.350  20.296  0.00  0.00    +0.000 C 
ATOM      2  C   UNL     1       2.111   3.870  21.382  0.00  0.00    +0.000 C 
ATOM      3  O   UNL     1       2.121   3.066  22.286  0.00  0.00    +0.000 OA
ATOM      4  O   UNL     1       3.069   4.769  21.035  0.00  0.00    +0.000 OA
ATOM      5  C   UNL     1       2.351   5.148  19.824  0.00  0.00    +0.000 C 
ENDROOT
BRANCH   1   6
ATOM      6  C   UNL     1       0.555   3.336  19.326  0.00  0.00    +0.000 C 
BRANCH   6   7
ATOM      7  C   UNL     1       1.353   3.288  18.026  0.00  0.00    +0.000 C 
BRANCH   7   8
ATOM      8  C   UNL     1       2.369   2.150  18.015  0.00  0.00    +0.000 C 
BRANCH   8   9
ATOM      9  C   UNL     1       3.797   2.676  17.980  0.00  0.00    +0.000 C 
BRANCH   9  10
ATOM     10  C   UNL     1       4.005   3.522  16.729  0.00  0.00    +0.000 C 
BRANCH  10  11
ATOM     11  C   UNL     1       5.086   4.564  16.971  0.00  0.00    +0.000 C 
BRANCH  11  12
ATOM     12  C   UNL     1       5.531   5.197  15.658  0.00  0.00    +0.000 C 
BRANCH  12  13
ATOM     13  C   UNL     1       5.578   4.146  14.555  0.00  0.00    +0.000 C 
BRANCH  13  15
ATOM     14  C   UNL     1       6.497   3.632  12.285  0.00  0.00    +0.000 C 
ATOM     15  C   UNL     1       6.670   4.465  13.543  0.00  0.00    +0.000 C 
ENDBRANCH  13  15
ENDBRANCH  12  13
ENDBRANCH  11  12
ENDBRANCH  10  11
ENDBRANCH   9  10
ENDBRANCH   8   9
ENDBRANCH   7   8
ENDBRANCH   6   7
ENDBRANCH   1   6
BRANCH   5  16
ATOM     16  C   UNL     1       2.097   6.649  19.726  0.00  0.00    +0.000 C 
BRANCH  16  17
ATOM     17  C   UNL     1       2.214   7.168  18.297  0.00  0.00    +0.000 C 
BRANCH  17  18
ATOM     18  C   UNL     1       2.349   8.682  18.258  0.00  0.00    +0.000 C 
BRANCH  18  19
ATOM     19  C   UNL     1       1.061   9.370  17.829  0.00  0.00    +0.000 C 
BRANCH  19  20
ATOM     20  S   UNL     1       0.528  10.461  19.139  0.00  0.00    +0.000 S 
ATOM     21  O   UNL     1       0.125   9.626  20.256  0.00  0.00    +0.000 OA
ATOM     22  O   UNL     1       1.555  11.472  19.298  0.00  0.00    +0.000 OA
BRANCH  20  23
ATOM     23  C   UNL     1      -0.927  11.244  18.489  0.00  0.00    +0.000 C 
BRANCH  23  24
ATOM     24  C   UNL     1      -1.934  10.174  18.075  0.00  0.00    +0.000 C 
BRANCH  24  25
ATOM     25  C   UNL     1      -2.154  10.111  16.564  0.00  0.00    +0.000 C 
BRANCH  25  26
ATOM     26  N   UNL     1      -3.570  10.192  16.188  0.00  0.00    +0.000 NA
ATOM     27  C   UNL     1      -4.226  11.409  16.679  0.00  0.00    +0.000 C 
ATOM     28  C   UNL     1      -3.667  10.177  14.719  0.00  0.00    +0.000 C 
ENDBRANCH  25  26
ENDBRANCH  24  25
ENDBRANCH  23  24
ENDBRANCH  20  23
ENDBRANCH  19  20
ENDBRANCH  18  19
ENDBRANCH  17  18
ENDBRANCH  16  17
ENDBRANCH   5  16
TORSDOF 18
ENDMDL
MODEL 2
REMARK VINA RESULT:      -6.1      6.401      8.404
REMARK  Name = 
REMARK  21 active torsions:
REMARK  status: ('A' for Active; 'I' for Inactive)
REMARK    1  A    between atoms: C_1  and  C_2
REMARK    2  A    between atoms: C_2  and  C_3
REMARK    3  A    between atoms: C_3  and  C_4
REMARK    4  A    between atoms: C_4  and  C_5
REMARK    5  A    between atoms: C_5  and  C_6
REMARK    6  A    between atoms: C_6  and  C_7
REMARK    7  A    between atoms: C_7  and  C_8
REMARK    8  A    between atoms: C_8  and  C_9
REMARK    9  A    between atoms: C_9  and  C_10
REMARK   10  A    between atoms: C_10  and  C_11
REMARK   11  A    between atoms: C_15  and  C_16
REMARK   12  A    between atoms: C_16  and  C_17
REMARK   13  A    between atoms: C_17  and  C_18
REMARK   14  A    between atoms: C_18  and  C_19
REMARK   15  A    between atoms: C_19  and  S_20
REMARK   16  A    between atoms: S_20  and  C_23
REMARK   17  A    between atoms: C_23  and  C_24
REMARK   18  A    between atoms: C_24  and  C_25
REMARK   19  A    between atoms: C_25  and  N_26
REMARK   20  A    between atoms: N_26  and  C_27
REMARK   21  A    between atoms: N_26  and  C_28
REMARK                            x       y       z     vdW  Elec       q    Type
REMARK                         _______ _______ _______ _____ _____    ______ ____
ROOT
ATOM      1  C   UNL     1       6.693   5.867  17.993  0.00  0.00    +0.000 C 
ATOM      2  C   UNL     1       7.096   5.340  16.606  0.00  0.00    +0.000 C 
ATOM      3  O   UNL     1       7.061   4.293  15.999  0.00  0.00    +0.000 OA
ATOM      4  O   UNL     1       7.637   6.526  16.220  0.00  0.00    +0.000 OA
ATOM      5  C   UNL     1       7.097   7.213  17.386  0.00  0.00    +0.000 C 
ENDROOT
BRANCH   1   6
ATOM      6  C   UNL     1       5.252   5.719  18.445  0.00  0.00    +0.000 C 
BRANCH   6   7
ATOM      7  C   UNL     1       4.297   6.474  17.524  0.00  0.00    +0.000 C 
BRANCH   7   8
ATOM      8  C   UNL     1       2.915   6.649  18.146  0.00  0.00    +0.000 C 
BRANCH   8   9
ATOM      9  C   UNL     1       2.973   6.583  19.666  0.00  0.00    +0.000 C 
BRANCH   9  10
ATOM     10  C   UNL     1       1.736   5.869  20.199  0.00  0.00    +0.000 C 
BRANCH  10  11
ATOM     11  C   UNL     1       2.141   4.640  20.999  0.00  0.00    +0.000 C 
BRANCH  11  12
ATOM     12  C   UNL     1       1.264   3.447  20.639  0.00  0.00    +0.000 C 
BRANCH  12  13
ATOM     13  C   UNL     1       2.074   2.411  19.868  0.00  0.00    +0.000 C 
BRANCH  13  15
ATOM     14  C   UNL     1       2.556   3.038  17.494  0.00  0.00    +0.000 C 
ATOM     15  C   UNL     1       1.601   2.312  18.424  0.00  0.00    +0.000 C 
ENDBRANCH  13  15
ENDBRANCH  12  13
ENDBRANCH  11  12
ENDBRANCH  10  11
ENDBRANCH   9  10
ENDBRANCH   8   9
ENDBRANCH   7   8
ENDBRANCH   6   7
ENDBRANCH   1   6
BRANCH   5  16
ATOM     16  C   UNL     1       8.163   7.950  18.191  0.00  0.00    +0.000 C 
BRANCH  16  17
ATOM     17  C   UNL     1       8.121   9.458  17.972  0.00  0.00    +0.000 C 
BRANCH  17  18
ATOM     18  C   UNL     1       9.085  10.189  18.894  0.00  0.00    +0.000 C 
BRANCH  18  19
ATOM     19  C   UNL     1      10.136  10.978  18.128  0.00  0.00    +0.000 C 
BRANCH  19  20
ATOM     20  S   UNL     1      10.525  12.459  19.048  0.00  0.00    +0.000 S 
ATOM     21  O   UNL     1      11.100  12.039  20.313  0.00  0.00    +0.000 OA
ATOM     22  O   UNL     1      11.253  13.339  18.155  0.00  0.00    +0.000 OA
BRANCH  20  23
ATOM     23  C   UNL     1       8.943  13.192  19.383  0.00  0.00    +0.000 C 
BRANCH  23  24
ATOM     24  C   UNL     1       8.785  14.457  18.543  0.00  0.00    +0.000 C 
BRANCH  24  25
ATOM     25  C   UNL     1       7.391  15.073  18.647  0.00  0.00    +0.000 C 
BRANCH  25  26
ATOM     26  N   UNL     1       7.412  16.455  19.142  0.00  0.00    +0.000 NA
ATOM     27  C   UNL     1       8.330  17.320  18.392  0.00  0.00    +0.000 C 
ATOM     28  C   UNL     1       6.055  17.015  19.028  0.00  0.00    +0.000 C 
ENDBRANCH  25  26
ENDBRANCH  24  25
ENDBRANCH  23  24
ENDBRANCH  20  23
ENDBRANCH  19  20
ENDBRANCH  18  19
ENDBRANCH  17  18
ENDBRANCH  16  17
ENDBRANCH   5  16
TORSDOF 18
ENDMDL
MODEL 3
REMARK VINA RESULT:      -6.0      3.034      5.136
REMARK  Name = 
REMARK  21 active torsions:
REMARK  status: ('A' for Active; 'I' for Inactive)
REMARK    1  A    between atoms: C_1  and  C_2
REMARK    2  A    between atoms: C_2  and  C_3
REMARK    3  A    between atoms: C_3  and  C_4
REMARK    4  A    between atoms: C_4  and  C_5
REMARK    5  A    between atoms: C_5  and  C_6
REMARK    6  A    between atoms: C_6  and  C_7
REMARK    7  A    between atoms: C_7  and  C_8
REMARK    8  A    between atoms: C_8  and  C_9
REMARK    9  A    between atoms: C_9  and  C_10
REMARK   10  A    between atoms: C_10  and  C_11
REMARK   11  A    between atoms: C_15  and  C_16
REMARK   12  A    between atoms: C_16  and  C_17
REMARK   13  A    between atoms: C_17  and  C_18
REMARK   14  A    between atoms: C_18  and  C_19
REMARK   15  A    between atoms: C_19  and  S_20
REMARK   16  A    between atoms: S_20  and  C_23
REMARK   17  A    between atoms: C_23  and  C_24
REMARK   18  A    between atoms: C_24  and  C_25
REMARK   19  A    between atoms: C_25  and  N_26
REMARK   20  A    between atoms: N_26  and  C_27
REMARK   21  A    between atoms: N_26  and  C_28
REMARK                            x       y       z     vdW  Elec       q    Type
REMARK                         _______ _______ _______ _____ _____    ______ ____
ROOT
ATOM      1  C   UNL     1       5.761   6.389  18.015  0.00  0.00    +0.000 C 
ATOM      2  C   UNL     1       6.293   6.247  16.579  0.00  0.00    +0.000 C 
ATOM      3  O   UNL     1       7.351   6.030  16.032  0.00  0.00    +0.000 OA
ATOM      4  O   UNL     1       5.090   6.534  16.015  0.00  0.00    +0.000 OA
ATOM      5  C   UNL     1       4.409   6.457  17.301  0.00  0.00    +0.000 C 
ENDROOT
BRANCH   1   6
ATOM      6  C   UNL     1       5.969   5.247  18.993  0.00  0.00    +0.000 C 
BRANCH   6   7
ATOM      7  C   UNL     1       4.702   4.410  19.151  0.00  0.00    +0.000 C 
BRANCH   7   8
ATOM      8  C   UNL     1       4.786   3.089  18.393  0.00  0.00    +0.000 C 
BRANCH   8   9
ATOM      9  C   UNL     1       3.405   2.490  18.160  0.00  0.00    +0.000 C 
BRANCH   9  10
ATOM     10  C   UNL     1       2.653   3.317  17.123  0.00  0.00    +0.000 C 
BRANCH  10  11
ATOM     11  C   UNL     1       1.397   3.914  17.738  0.00  0.00    +0.000 C 
BRANCH  11  12
ATOM     12  C   UNL     1       0.868   3.028  18.859  0.00  0.00    +0.000 C 
BRANCH  12  13
ATOM     13  C   UNL     1       0.907   3.778  20.186  0.00  0.00    +0.000 C 
BRANCH  13  15
ATOM     14  C   UNL     1       2.612   2.766  21.714  0.00  0.00    +0.000 C 
ATOM     15  C   UNL     1       1.139   2.821  21.348  0.00  0.00    +0.000 C 
ENDBRANCH  13  15
ENDBRANCH  12  13
ENDBRANCH  11  12
ENDBRANCH  10  11
ENDBRANCH   9  10
ENDBRANCH   8   9
ENDBRANCH   7   8
ENDBRANCH   6   7
ENDBRANCH   1   6
BRANCH   5  16
ATOM     16  C   UNL     1       3.608   7.713  17.629  0.00  0.00    +0.000 C 
BRANCH  16  17
ATOM     17  C   UNL     1       2.280   7.397  18.309  0.00  0.00    +0.000 C 
BRANCH  17  18
ATOM     18  C   UNL     1       1.780   8.570  19.138  0.00  0.00    +0.000 C 
BRANCH  18  19
ATOM     19  C   UNL     1       1.497   8.182  20.582  0.00  0.00    +0.000 C 
BRANCH  19  20
ATOM     20  S   UNL     1       0.440   9.423  21.314  0.00  0.00    +0.000 S 
ATOM     21  O   UNL     1      -0.508   8.730  22.168  0.00  0.00    +0.000 OA
ATOM     22  O   UNL     1       1.302  10.460  21.846  0.00  0.00    +0.000 OA
BRANCH  20  23
ATOM     23  C   UNL     1      -0.456  10.098  19.937  0.00  0.00    +0.000 C 
BRANCH  23  24
ATOM     24  C   UNL     1      -0.633  11.600  20.137  0.00  0.00    +0.000 C 
BRANCH  24  25
ATOM     25  C   UNL     1      -1.715  11.945  21.158  0.00  0.00    +0.000 C 
BRANCH  25  26
ATOM     26  N   UNL     1      -2.556  13.074  20.742  0.00  0.00    +0.000 NA
ATOM     27  C   UNL     1      -3.776  12.653  20.042  0.00  0.00    +0.000 C 
ATOM     28  C   UNL     1      -2.951  13.832  21.940  0.00  0.00    +0.000 C 
ENDBRANCH  25  26
ENDBRANCH  24  25
ENDBRANCH  23  24
ENDBRANCH  20  23
ENDBRANCH  19  20
ENDBRANCH  18  19
ENDBRANCH  17  18
ENDBRANCH  16  17
ENDBRANCH   5  16
TORSDOF 18
ENDMDL
MODEL 4
REMARK VINA RESULT:      -6.0      2.650      3.171
REMARK  Name = 
REMARK  21 active torsions:
REMARK  status: ('A' for Active; 'I' for Inactive)
REMARK    1  A    between atoms: C_1  and  C_2
REMARK    2  A    between atoms: C_2  and  C_3
REMARK    3  A    between atoms: C_3  and  C_4
REMARK    4  A    between atoms: C_4  and  C_5
REMARK    5  A    between atoms: C_5  and  C_6
REMARK    6  A    between atoms: C_6  and  C_7
REMARK    7  A    between atoms: C_7  and  C_8
REMARK    8  A    between atoms: C_8  and  C_9
REMARK    9  A    between atoms: C_9  and  C_10
REMARK   10  A    between atoms: C_10  and  C_11
REMARK   11  A    between atoms: C_15  and  C_16
REMARK   12  A    between atoms: C_16  and  C_17
REMARK   13  A    between atoms: C_17  and  C_18
REMARK   14  A    between atoms: C_18  and  C_19
REMARK   15  A    between atoms: C_19  and  S_20
REMARK   16  A    between atoms: S_20  and  C_23
REMARK   17  A    between atoms: C_23  and  C_24
REMARK   18  A    between atoms: C_24  and  C_25
REMARK   19  A    between atoms: C_25  and  N_26
REMARK   20  A    between atoms: N_26  and  C_27
REMARK   21  A    between atoms: N_26  and  C_28
REMARK                            x       y       z     vdW  Elec       q    Type
REMARK                         _______ _______ _______ _____ _____    ______ ____
ROOT
ATOM      1  C   UNL     1       0.927   3.777  20.384  0.00  0.00    +0.000 C 
ATOM      2  C   UNL     1       1.630   3.083  21.562  0.00  0.00    +0.000 C 
ATOM      3  O   UNL     1       1.549   2.036  22.164  0.00  0.00    +0.000 OA
ATOM      4  O   UNL     1       2.437   4.147  21.817  0.00  0.00    +0.000 OA
ATOM      5  C   UNL     1       2.033   4.815  20.586  0.00  0.00    +0.000 C 
ENDROOT
BRANCH   1   6
ATOM      6  C   UNL     1       0.877   3.074  19.040  0.00  0.00    +0.000 C 
BRANCH   6   7
ATOM      7  C   UNL     1       2.018   2.071  18.892  0.00  0.00    +0.000 C 
BRANCH   7   8
ATOM      8  C   UNL     1       2.870   2.345  17.656  0.00  0.00    +0.000 C 
BRANCH   8   9
ATOM      9  C   UNL     1       3.903   3.433  17.918  0.00  0.00    +0.000 C 
BRANCH   9  10
ATOM     10  C   UNL     1       3.376   4.775  17.422  0.00  0.00    +0.000 C 
BRANCH  10  11
ATOM     11  C   UNL     1       4.465   5.833  17.513  0.00  0.00    +0.000 C 
BRANCH  11  12
ATOM     12  C   UNL     1       5.446   5.505  18.631  0.00  0.00    +0.000 C 
BRANCH  12  13
ATOM     13  C   UNL     1       6.878   5.722  18.155  0.00  0.00    +0.000 C 
BRANCH  13  15
ATOM     14  C   UNL     1       7.292   4.825  15.855  0.00  0.00    +0.000 C 
ATOM     15  C   UNL     1       7.371   4.531  17.343  0.00  0.00    +0.000 C 
ENDBRANCH  13  15
ENDBRANCH  12  13
ENDBRANCH  11  12
ENDBRANCH  10  11
ENDBRANCH   9  10
ENDBRANCH   8   9
ENDBRANCH   7   8
ENDBRANCH   6   7
ENDBRANCH   1   6
BRANCH   5  16
ATOM     16  C   UNL     1       1.508   6.228  20.819  0.00  0.00    +0.000 C 
BRANCH  16  17
ATOM     17  C   UNL     1       2.088   7.236  19.832  0.00  0.00    +0.000 C 
BRANCH  17  18
ATOM     18  C   UNL     1       1.585   8.645  20.104  0.00  0.00    +0.000 C 
BRANCH  18  19
ATOM     19  C   UNL     1       0.244   8.655  20.825  0.00  0.00    +0.000 C 
BRANCH  19  20
ATOM     20  S   UNL     1       0.359   9.744  22.236  0.00  0.00    +0.000 S 
ATOM     21  O   UNL     1      -0.786   9.468  23.085  0.00  0.00    +0.000 OA
ATOM     22  O   UNL     1       1.710   9.639  22.750  0.00  0.00    +0.000 OA
BRANCH  20  23
ATOM     23  C   UNL     1       0.151  11.369  21.549  0.00  0.00    +0.000 C 
BRANCH  23  24
ATOM     24  C   UNL     1      -0.871  11.311  20.416  0.00  0.00    +0.000 C 
BRANCH  24  25
ATOM     25  C   UNL     1      -0.321  11.828  19.088  0.00  0.00    +0.000 C 
BRANCH  25  26
ATOM     26  N   UNL     1       0.987  12.480  19.225  0.00  0.00    +0.000 NA
ATOM     27  C   UNL     1       2.019  11.879  18.373  0.00  0.00    +0.000 C 
ATOM     28  C   UNL     1       0.846  13.896  18.849  0.00  0.00    +0.000 C 
ENDBRANCH  25  26
ENDBRANCH  24  25
ENDBRANCH  23  24
ENDBRANCH  20  23
ENDBRANCH  19  20
ENDBRANCH  18  19
ENDBRANCH  17  18
ENDBRANCH  16  17
ENDBRANCH   5  16
TORSDOF 18
ENDMDL
MODEL 5
REMARK VINA RESULT:      -5.9      5.981      8.094
REMARK  Name = 
REMARK  21 active torsions:
REMARK  status: ('A' for Active; 'I' for Inactive)
REMARK    1  A    between atoms: C_1  and  C_2
REMARK    2  A    between atoms: C_2  and  C_3
REMARK    3  A    between atoms: C_3  and  C_4
REMARK    4  A    between atoms: C_4  and  C_5
REMARK    5  A    between atoms: C_5  and  C_6
REMARK    6  A    between atoms: C_6  and  C_7
REMARK    7  A    between atoms: C_7  and  C_8
REMARK    8  A    between atoms: C_8  and  C_9
REMARK    9  A    between atoms: C_9  and  C_10
REMARK   10  A    between atoms: C_10  and  C_11
REMARK   11  A    between atoms: C_15  and  C_16
REMARK   12  A    between atoms: C_16  and  C_17
REMARK   13  A    between atoms: C_17  and  C_18
REMARK   14  A    between atoms: C_18  and  C_19
REMARK   15  A    between atoms: C_19  and  S_20
REMARK   16  A    between atoms: S_20  and  C_23
REMARK   17  A    between atoms: C_23  and  C_24
REMARK   18  A    between atoms: C_24  and  C_25
REMARK   19  A    between atoms: C_25  and  N_26
REMARK   20  A    between atoms: N_26  and  C_27
REMARK   21  A    between atoms: N_26  and  C_28
REMARK                            x       y       z     vdW  Elec       q    Type
REMARK                         _______ _______ _______ _____ _____    ______ ____
ROOT
ATOM      1  C   UNL     1       6.226   6.458  17.522  0.00  0.00    +0.000 C 
ATOM      2  C   UNL     1       6.958   5.545  16.524  0.00  0.00    +0.000 C 
ATOM      3  O   UNL     1       6.864   4.411  16.110  0.00  0.00    +0.000 OA
ATOM      4  O   UNL     1       7.912   6.473  16.246  0.00  0.00    +0.000 OA
ATOM      5  C   UNL     1       7.186   7.512  16.965  0.00  0.00    +0.000 C 
ENDROOT
BRANCH   1   6
ATOM      6  C   UNL     1       4.741   6.710  17.335  0.00  0.00    +0.000 C 
BRANCH   6   7
ATOM      7  C   UNL     1       3.903   5.787  18.215  0.00  0.00    +0.000 C 
BRANCH   7   8
ATOM      8  C   UNL     1       2.496   6.330  18.443  0.00  0.00    +0.000 C 
BRANCH   8   9
ATOM      9  C   UNL     1       2.354   6.954  19.824  0.00  0.00    +0.000 C 
BRANCH   9  10
ATOM     10  C   UNL     1       1.452   6.085  20.693  0.00  0.00    +0.000 C 
BRANCH  10  11
ATOM     11  C   UNL     1       2.044   4.692  20.839  0.00  0.00    +0.000 C 
BRANCH  11  12
ATOM     12  C   UNL     1       0.989   3.625  20.575  0.00  0.00    +0.000 C 
BRANCH  12  13
ATOM     13  C   UNL     1       1.619   2.420  19.887  0.00  0.00    +0.000 C 
BRANCH  13  15
ATOM     14  C   UNL     1       3.061   2.211  17.851  0.00  0.00    +0.000 C 
ATOM     15  C   UNL     1       1.701   2.632  18.380  0.00  0.00    +0.000 C 
ENDBRANCH  13  15
ENDBRANCH  12  13
ENDBRANCH  11  12
ENDBRANCH  10  11
ENDBRANCH   9  10
ENDBRANCH   8   9
ENDBRANCH   7   8
ENDBRANCH   6   7
ENDBRANCH   1   6
BRANCH   5  16
ATOM     16  C   UNL     1       8.029   8.195  18.037  0.00  0.00    +0.000 C 
BRANCH  16  17
ATOM     17  C   UNL     1       8.035   9.714  17.895  0.00  0.00    +0.000 C 
BRANCH  17  18
ATOM     18  C   UNL     1       9.347  10.319  18.369  0.00  0.00    +0.000 C 
BRANCH  18  19
ATOM     19  C   UNL     1       9.333  10.646  19.855  0.00  0.00    +0.000 C 
BRANCH  19  20
ATOM     20  S   UNL     1       9.883  12.331  20.077  0.00  0.00    +0.000 S 
ATOM     21  O   UNL     1       8.938  12.976  20.971  0.00  0.00    +0.000 OA
ATOM     22  O   UNL     1      11.296  12.283  20.397  0.00  0.00    +0.000 OA
BRANCH  20  23
ATOM     23  C   UNL     1       9.701  13.064  18.469  0.00  0.00    +0.000 C 
BRANCH  23  24
ATOM     24  C   UNL     1       9.235  14.509  18.623  0.00  0.00    +0.000 C 
BRANCH  24  25
ATOM     25  C   UNL     1       7.927  14.797  17.888  0.00  0.00    +0.000 C 
BRANCH  25  26
ATOM     26  N   UNL     1       6.745  14.665  18.749  0.00  0.00    +0.000 NA
ATOM     27  C   UNL     1       6.693  15.678  19.809  0.00  0.00    +0.000 C 
ATOM     28  C   UNL     1       5.540  14.806  17.916  0.00  0.00    +0.000 C 
ENDBRANCH  25  26
ENDBRANCH  24  25
ENDBRANCH  23  24
ENDBRANCH  20  23
ENDBRANCH  19  20
ENDBRANCH  18  19
ENDBRANCH  17  18
ENDBRANCH  16  17
ENDBRANCH   5  16
TORSDOF 18
ENDMDL
MODEL 6
REMARK VINA RESULT:      -5.8      3.158      5.177
REMARK  Name = 
REMARK  21 active torsions:
REMARK  status: ('A' for Active; 'I' for Inactive)
REMARK    1  A    between atoms: C_1  and  C_2
REMARK    2  A    between atoms: C_2  and  C_3
REMARK    3  A    between atoms: C_3  and  C_4
REMARK    4  A    between atoms: C_4  and  C_5
REMARK    5  A    between atoms: C_5  and  C_6
REMARK    6  A    between atoms: C_6  and  C_7
REMARK    7  A    between atoms: C_7  and  C_8
REMARK    8  A    between atoms: C_8  and  C_9
REMARK    9  A    between atoms: C_9  and  C_10
REMARK   10  A    between atoms: C_10  and  C_11
REMARK   11  A    between atoms: C_15  and  C_16
REMARK   12  A    between atoms: C_16  and  C_17
REMARK   13  A    between atoms: C_17  and  C_18
REMARK   14  A    between atoms: C_18  and  C_19
REMARK   15  A    between atoms: C_19  and  S_20
REMARK   16  A    between atoms: S_20  and  C_23
REMARK   17  A    between atoms: C_23  and  C_24
REMARK   18  A    between atoms: C_24  and  C_25
REMARK   19  A    between atoms: C_25  and  N_26
REMARK   20  A    between atoms: N_26  and  C_27
REMARK   21  A    between atoms: N_26  and  C_28
REMARK                            x       y       z     vdW  Elec       q    Type
REMARK                         _______ _______ _______ _____ _____    ______ ____
ROOT
ATOM      1  C   UNL     1       5.355   6.011  17.872  0.00  0.00    +0.000 C 
ATOM      2  C   UNL     1       6.202   6.272  16.615  0.00  0.00    +0.000 C 
ATOM      3  O   UNL     1       7.310   6.001  16.209  0.00  0.00    +0.000 OA
ATOM      4  O   UNL     1       5.253   7.052  16.035  0.00  0.00    +0.000 OA
ATOM      5  C   UNL     1       4.263   6.690  17.041  0.00  0.00    +0.000 C 
ENDROOT
BRANCH   1   6
ATOM      6  C   UNL     1       5.102   4.579  18.305  0.00  0.00    +0.000 C 
BRANCH   6   7
ATOM      7  C   UNL     1       4.536   3.741  17.161  0.00  0.00    +0.000 C 
BRANCH   7   8
ATOM      8  C   UNL     1       3.090   3.325  17.413  0.00  0.00    +0.000 C 
BRANCH   8   9
ATOM      9  C   UNL     1       2.992   1.861  17.821  0.00  0.00    +0.000 C 
BRANCH   9  10
ATOM     10  C   UNL     1       2.084   1.724  19.038  0.00  0.00    +0.000 C 
BRANCH  10  11
ATOM     11  C   UNL     1       0.862   2.616  18.886  0.00  0.00    +0.000 C 
BRANCH  11  12
ATOM     12  C   UNL     1       0.549   3.333  20.194  0.00  0.00    +0.000 C 
BRANCH  12  13
ATOM     13  C   UNL     1       1.747   3.258  21.135  0.00  0.00    +0.000 C 
BRANCH  13  15
ATOM     14  C   UNL     1       1.765   5.690  20.542  0.00  0.00    +0.000 C 
ATOM     15  C   UNL     1       2.594   4.521  21.042  0.00  0.00    +0.000 C 
ENDBRANCH  13  15
ENDBRANCH  12  13
ENDBRANCH  11  12
ENDBRANCH  10  11
ENDBRANCH   9  10
ENDBRANCH   8   9
ENDBRANCH   7   8
ENDBRANCH   6   7
ENDBRANCH   1   6
BRANCH   5  16
ATOM     16  C   UNL     1       3.639   7.901  17.727  0.00  0.00    +0.000 C 
BRANCH  16  17
ATOM     17  C   UNL     1       2.115   7.879  17.675  0.00  0.00    +0.000 C 
BRANCH  17  18
ATOM     18  C   UNL     1       1.519   9.224  18.061  0.00  0.00    +0.000 C 
BRANCH  18  19
ATOM     19  C   UNL     1       1.152   9.295  19.536  0.00  0.00    +0.000 C 
BRANCH  19  20
ATOM     20  S   UNL     1       0.787  10.993  19.955  0.00  0.00    +0.000 S 
ATOM     21  O   UNL     1       1.184  11.188  21.338  0.00  0.00    +0.000 OA
ATOM     22  O   UNL     1       1.334  11.822  18.899  0.00  0.00    +0.000 OA
BRANCH  20  23
ATOM     23  C   UNL     1      -0.985  11.090  19.876  0.00  0.00    +0.000 C 
BRANCH  23  24
ATOM     24  C   UNL     1      -1.396  12.515  19.513  0.00  0.00    +0.000 C 
BRANCH  24  25
ATOM     25  C   UNL     1      -1.262  13.492  20.679  0.00  0.00    +0.000 C 
BRANCH  25  26
ATOM     26  N   UNL     1      -2.294  14.536  20.673  0.00  0.00    +0.000 NA
ATOM     27  C   UNL     1      -3.077  14.575  21.914  0.00  0.00    +0.000 C 
ATOM     28  C   UNL     1      -1.640  15.842  20.499  0.00  0.00    +0.000 C 
ENDBRANCH  25  26
ENDBRANCH  24  25
ENDBRANCH  23  24
ENDBRANCH  20  23
ENDBRANCH  19  20
ENDBRANCH  18  19
ENDBRANCH  17  18
ENDBRANCH  16  17
ENDBRANCH   5  16
TORSDOF 18
ENDMDL
MODEL 7
REMARK VINA RESULT:      -5.8      6.434      8.508
REMARK  Name = 
REMARK  21 active torsions:
REMARK  status: ('A' for Active; 'I' for Inactive)
REMARK    1  A    between atoms: C_1  and  C_2
REMARK    2  A    between atoms: C_2  and  C_3
REMARK    3  A    between atoms: C_3  and  C_4
REMARK    4  A    between atoms: C_4  and  C_5
REMARK    5  A    between atoms: C_5  and  C_6
REMARK    6  A    between atoms: C_6  and  C_7
REMARK    7  A    between atoms: C_7  and  C_8
REMARK    8  A    between atoms: C_8  and  C_9
REMARK    9  A    between atoms: C_9  and  C_10
REMARK   10  A    between atoms: C_10  and  C_11
REMARK   11  A    between atoms: C_15  and  C_16
REMARK   12  A    between atoms: C_16  and  C_17
REMARK   13  A    between atoms: C_17  and  C_18
REMARK   14  A    between atoms: C_18  and  C_19
REMARK   15  A    between atoms: C_19  and  S_20
REMARK   16  A    between atoms: S_20  and  C_23
REMARK   17  A    between atoms: C_23  and  C_24
REMARK   18  A    between atoms: C_24  and  C_25
REMARK   19  A    between atoms: C_25  and  N_26
REMARK   20  A    between atoms: N_26  and  C_27
REMARK   21  A    between atoms: N_26  and  C_28
REMARK                            x       y       z     vdW  Elec       q    Type
REMARK                         _______ _______ _______ _____ _____    ______ ____
ROOT
ATOM      1  C   UNL     1       7.333   5.603  17.841  0.00  0.00    +0.000 C 
ATOM      2  C   UNL     1       7.154   5.838  16.332  0.00  0.00    +0.000 C 
ATOM      3  O   UNL     1       7.015   5.172  15.331  0.00  0.00    +0.000 OA
ATOM      4  O   UNL     1       7.277   7.187  16.442  0.00  0.00    +0.000 OA
ATOM      5  C   UNL     1       7.212   7.127  17.897  0.00  0.00    +0.000 C 
ENDROOT
BRANCH   1   6
ATOM      6  C   UNL     1       6.286   4.799  18.589  0.00  0.00    +0.000 C 
BRANCH   6   7
ATOM      7  C   UNL     1       4.994   5.593  18.765  0.00  0.00    +0.000 C 
BRANCH   7   8
ATOM      8  C   UNL     1       4.021   5.373  17.611  0.00  0.00    +0.000 C 
BRANCH   8   9
ATOM      9  C   UNL     1       2.603   5.781  17.989  0.00  0.00    +0.000 C 
BRANCH   9  10
ATOM     10  C   UNL     1       1.658   4.600  17.796  0.00  0.00    +0.000 C 
BRANCH  10  11
ATOM     11  C   UNL     1       2.431   3.379  17.321  0.00  0.00    +0.000 C 
BRANCH  11  12
ATOM     12  C   UNL     1       2.165   2.183  18.227  0.00  0.00    +0.000 C 
BRANCH  12  13
ATOM     13  C   UNL     1       2.856   2.378  19.572  0.00  0.00    +0.000 C 
BRANCH  13  15
ATOM     14  C   UNL     1       2.122   3.812  21.487  0.00  0.00    +0.000 C 
ATOM     15  C   UNL     1       1.837   2.551  20.690  0.00  0.00    +0.000 C 
ENDBRANCH  13  15
ENDBRANCH  12  13
ENDBRANCH  11  12
ENDBRANCH  10  11
ENDBRANCH   9  10
ENDBRANCH   8   9
ENDBRANCH   7   8
ENDBRANCH   6   7
ENDBRANCH   1   6
BRANCH   5  16
ATOM     16  C   UNL     1       8.396   7.809  18.576  0.00  0.00    +0.000 C 
BRANCH  16  17
ATOM     17  C   UNL     1       8.451   9.305  18.290  0.00  0.00    +0.000 C 
BRANCH  17  18
ATOM     18  C   UNL     1       9.464  10.012  19.177  0.00  0.00    +0.000 C 
BRANCH  18  19
ATOM     19  C   UNL     1       9.133  11.482  19.382  0.00  0.00    +0.000 C 
BRANCH  19  20
ATOM     20  S   UNL     1      10.649  12.376  19.687  0.00  0.00    +0.000 S 
ATOM     21  O   UNL     1      10.513  13.023  20.979  0.00  0.00    +0.000 OA
ATOM     22  O   UNL     1      11.744  11.464  19.422  0.00  0.00    +0.000 OA
BRANCH  20  23
ATOM     23  C   UNL     1      10.667  13.642  18.441  0.00  0.00    +0.000 C 
BRANCH  23  24
ATOM     24  C   UNL     1       9.242  13.887  17.950  0.00  0.00    +0.000 C 
BRANCH  24  25
ATOM     25  C   UNL     1       8.851  15.363  17.963  0.00  0.00    +0.000 C 
BRANCH  25  26
ATOM     26  N   UNL     1       7.570  15.609  18.637  0.00  0.00    +0.000 NA
ATOM     27  C   UNL     1       7.231  17.035  18.723  0.00  0.00    +0.000 C 
ATOM     28  C   UNL     1       6.505  14.928  17.884  0.00  0.00    +0.000 C 
ENDBRANCH  25  26
ENDBRANCH  24  25
ENDBRANCH  23  24
ENDBRANCH  20  23
ENDBRANCH  19  20
ENDBRANCH  18  19
ENDBRANCH  17  18
ENDBRANCH  16  17
ENDBRANCH   5  16
TORSDOF 18
ENDMDL
MODEL 8
REMARK VINA RESULT:      -5.7      2.857      3.721
REMARK  Name = 
REMARK  21 active torsions:
REMARK  status: ('A' for Active; 'I' for Inactive)
REMARK    1  A    between atoms: C_1  and  C_2
REMARK    2  A    between atoms: C_2  and  C_3
REMARK    3  A    between atoms: C_3  and  C_4
REMARK    4  A    between atoms: C_4  and  C_5
REMARK    5  A    between atoms: C_5  and  C_6
REMARK    6  A    between atoms: C_6  and  C_7
REMARK    7  A    between atoms: C_7  and  C_8
REMARK    8  A    between atoms: C_8  and  C_9
REMARK    9  A    between atoms: C_9  and  C_10
REMARK   10  A    between atoms: C_10  and  C_11
REMARK   11  A    between atoms: C_15  and  C_16
REMARK   12  A    between atoms: C_16  and  C_17
REMARK   13  A    between atoms: C_17  and  C_18
REMARK   14  A    between atoms: C_18  and  C_19
REMARK   15  A    between atoms: C_19  and  S_20
REMARK   16  A    between atoms: S_20  and  C_23
REMARK   17  A    between atoms: C_23  and  C_24
REMARK   18  A    between atoms: C_24  and  C_25
REMARK   19  A    between atoms: C_25  and  N_26
REMARK   20  A    between atoms: N_26  and  C_27
REMARK   21  A    between atoms: N_26  and  C_28
REMARK                            x       y       z     vdW  Elec       q    Type
REMARK                         _______ _______ _______ _____ _____    ______ ____
ROOT
ATOM      1  C   UNL     1       0.895   3.864  20.448  0.00  0.00    +0.000 C 
ATOM      2  C   UNL     1       1.777   3.286  21.568  0.00  0.00    +0.000 C 
ATOM      3  O   UNL     1       1.899   2.239  22.163  0.00  0.00    +0.000 OA
ATOM      4  O   UNL     1       2.428   4.461  21.777  0.00  0.00    +0.000 OA
ATOM      5  C   UNL     1       1.842   5.058  20.584  0.00  0.00    +0.000 C 
ENDROOT
BRANCH   1   6
ATOM      6  C   UNL     1       0.859   3.161  19.104  0.00  0.00    +0.000 C 
BRANCH   6   7
ATOM      7  C   UNL     1       2.059   2.235  18.926  0.00  0.00    +0.000 C 
BRANCH   7   8
ATOM      8  C   UNL     1       2.657   2.332  17.525  0.00  0.00    +0.000 C 
BRANCH   8   9
ATOM      9  C   UNL     1       3.927   3.172  17.517  0.00  0.00    +0.000 C 
BRANCH   9  10
ATOM     10  C   UNL     1       3.585   4.620  17.181  0.00  0.00    +0.000 C 
BRANCH  10  11
ATOM     11  C   UNL     1       4.440   5.568  18.007  0.00  0.00    +0.000 C 
BRANCH  11  12
ATOM     12  C   UNL     1       5.797   5.787  17.348  0.00  0.00    +0.000 C 
BRANCH  12  13
ATOM     13  C   UNL     1       5.640   5.864  15.834  0.00  0.00    +0.000 C 
BRANCH  13  15
ATOM     14  C   UNL     1       5.968   3.972  14.228  0.00  0.00    +0.000 C 
ATOM     15  C   UNL     1       6.660   4.977  15.132  0.00  0.00    +0.000 C 
ENDBRANCH  13  15
ENDBRANCH  12  13
ENDBRANCH  11  12
ENDBRANCH  10  11
ENDBRANCH   9  10
ENDBRANCH   8   9
ENDBRANCH   7   8
ENDBRANCH   6   7
ENDBRANCH   1   6
BRANCH   5  16
ATOM     16  C   UNL     1       1.126   6.376  20.866  0.00  0.00    +0.000 C 
BRANCH  16  17
ATOM     17  C   UNL     1       1.851   7.575  20.266  0.00  0.00    +0.000 C 
BRANCH  17  18
ATOM     18  C   UNL     1       1.284   8.890  20.777  0.00  0.00    +0.000 C 
BRANCH  18  19
ATOM     19  C   UNL     1       0.520   9.650  19.702  0.00  0.00    +0.000 C 
BRANCH  19  20
ATOM     20  S   UNL     1       0.311  11.343  20.235  0.00  0.00    +0.000 S 
ATOM     21  O   UNL     1      -1.098  11.529  20.531  0.00  0.00    +0.000 OA
ATOM     22  O   UNL     1       1.323  11.603  21.240  0.00  0.00    +0.000 OA
BRANCH  20  23
ATOM     23  C   UNL     1       0.699  12.304  18.793  0.00  0.00    +0.000 C 
BRANCH  23  24
ATOM     24  C   UNL     1       2.178  12.683  18.822  0.00  0.00    +0.000 C 
BRANCH  24  25
ATOM     25  C   UNL     1       2.454  14.059  18.218  0.00  0.00    +0.000 C 
BRANCH  25  26
ATOM     26  N   UNL     1       3.388  14.858  19.020  0.00  0.00    +0.000 NA
ATOM     27  C   UNL     1       3.487  14.401  20.411  0.00  0.00    +0.000 C 
ATOM     28  C   UNL     1       4.725  14.770  18.410  0.00  0.00    +0.000 C 
ENDBRANCH  25  26
ENDBRANCH  24  25
ENDBRANCH  23  24
ENDBRANCH  20  23
ENDBRANCH  19  20
ENDBRANCH  18  19
ENDBRANCH  17  18
ENDBRANCH  16  17
ENDBRANCH   5  16
TORSDOF 18
ENDMDL
MODEL 9
REMARK VINA RESULT:      -5.7      4.918      7.940
REMARK  Name = 
REMARK  21 active torsions:
REMARK  status: ('A' for Active; 'I' for Inactive)
REMARK    1  A    between atoms: C_1  and  C_2
REMARK    2  A    between atoms: C_2  and  C_3
REMARK    3  A    between atoms: C_3  and  C_4
REMARK    4  A    between atoms: C_4  and  C_5
REMARK    5  A    between atoms: C_5  and  C_6
REMARK    6  A    between atoms: C_6  and  C_7
REMARK    7  A    between atoms: C_7  and  C_8
REMARK    8  A    between atoms: C_8  and  C_9
REMARK    9  A    between atoms: C_9  and  C_10
REMARK   10  A    between atoms: C_10  and  C_11
REMARK   11  A    between atoms: C_15  and  C_16
REMARK   12  A    between atoms: C_16  and  C_17
REMARK   13  A    between atoms: C_17  and  C_18
REMARK   14  A    between atoms: C_18  and  C_19
REMARK   15  A    between atoms: C_19  and  S_20
REMARK   16  A    between atoms: S_20  and  C_23
REMARK   17  A    between atoms: C_23  and  C_24
REMARK   18  A    between atoms: C_24  and  C_25
REMARK   19  A    between atoms: C_25  and  N_26
REMARK   20  A    between atoms: N_26  and  C_27
REMARK   21  A    between atoms: N_26  and  C_28
REMARK                            x       y       z     vdW  Elec       q    Type
REMARK                         _______ _______ _______ _____ _____    ______ ____
ROOT
ATOM      1  C   UNL     1       6.237   6.026  16.784  0.00  0.00    +0.000 C 
ATOM      2  C   UNL     1       6.891   5.230  15.642  0.00  0.00    +0.000 C 
ATOM      3  O   UNL     1       7.763   5.396  14.819  0.00  0.00    +0.000 OA
ATOM      4  O   UNL     1       6.061   4.165  15.796  0.00  0.00    +0.000 OA
ATOM      5  C   UNL     1       5.521   4.697  17.040  0.00  0.00    +0.000 C 
ENDROOT
BRANCH   1   6
ATOM      6  C   UNL     1       7.111   6.566  17.900  0.00  0.00    +0.000 C 
BRANCH   6   7
ATOM      7  C   UNL     1       8.094   7.612  17.383  0.00  0.00    +0.000 C 
BRANCH   7   8
ATOM      8  C   UNL     1       7.747   9.017  17.866  0.00  0.00    +0.000 C 
BRANCH   8   9
ATOM      9  C   UNL     1       8.861   9.606  18.721  0.00  0.00    +0.000 C 
BRANCH   9  10
ATOM     10  C   UNL     1       9.530  10.756  17.976  0.00  0.00    +0.000 C 
BRANCH  10  11
ATOM     11  C   UNL     1      10.026  11.803  18.961  0.00  0.00    +0.000 C 
BRANCH  11  12
ATOM     12  C   UNL     1       8.968  12.874  19.192  0.00  0.00    +0.000 C 
BRANCH  12  13
ATOM     13  C   UNL     1       8.387  13.336  17.860  0.00  0.00    +0.000 C 
BRANCH  13  15
ATOM     14  C   UNL     1       6.239  14.620  17.785  0.00  0.00    +0.000 C 
ATOM     15  C   UNL     1       7.741  14.709  17.993  0.00  0.00    +0.000 C 
ENDBRANCH  13  15
ENDBRANCH  12  13
ENDBRANCH  11  12
ENDBRANCH  10  11
ENDBRANCH   9  10
ENDBRANCH   8   9
ENDBRANCH   7   8
ENDBRANCH   6   7
ENDBRANCH   1   6
BRANCH   5  16
ATOM     16  C   UNL     1       4.000   4.812  17.030  0.00  0.00    +0.000 C 
BRANCH  16  17
ATOM     17  C   UNL     1       3.313   3.481  17.316  0.00  0.00    +0.000 C 
BRANCH  17  18
ATOM     18  C   UNL     1       4.013   2.712  18.425  0.00  0.00    +0.000 C 
BRANCH  18  19
ATOM     19  C   UNL     1       3.820   3.356  19.791  0.00  0.00    +0.000 C 
BRANCH  19  20
ATOM     20  S   UNL     1       2.214   2.895  20.421  0.00  0.00    +0.000 S 
ATOM     21  O   UNL     1       1.692   1.859  19.548  0.00  0.00    +0.000 OA
ATOM     22  O   UNL     1       2.362   2.665  21.844  0.00  0.00    +0.000 OA
BRANCH  20  23
ATOM     23  C   UNL     1       1.223   4.352  20.194  0.00  0.00    +0.000 C 
BRANCH  23  24
ATOM     24  C   UNL     1       1.939   5.551  20.810  0.00  0.00    +0.000 C 
BRANCH  24  25
ATOM     25  C   UNL     1       2.360   6.592  19.776  0.00  0.00    +0.000 C 
BRANCH  25  26
ATOM     26  N   UNL     1       1.457   7.749  19.728  0.00  0.00    +0.000 NA
ATOM     27  C   UNL     1       1.396   8.482  20.998  0.00  0.00    +0.000 C 
ATOM     28  C   UNL     1       1.933   8.673  18.685  0.00  0.00    +0.000 C 
ENDBRANCH  25  26
ENDBRANCH  24  25
ENDBRANCH  23  24
ENDBRANCH  20  23
ENDBRANCH  19  20
ENDBRANCH  18  19
ENDBRANCH  17  18
ENDBRANCH  16  17
ENDBRANCH   5  16
TORSDOF 18
ENDMDL
