MODEL 1
REMARK VINA RESULT:      -7.3      0.000      0.000
REMARK  Name = 
REMARK  6 active torsions:
REMARK  status: ('A' for Active; 'I' for Inactive)
REMARK    1  A    between atoms: C_1  and  O_2
REMARK    2  A    between atoms: O_2  and  C_3
REMARK    3  A    between atoms: C_6  and  C_7
REMARK    4  A    between atoms: N_9  and  C_10
REMARK    5  A    between atoms: C_20  and  O_21
REMARK    6  A    between atoms: O_21  and  C_22
REMARK                            x       y       z     vdW  Elec       q    Type
REMARK                         _______ _______ _______ _____ _____    ______ ____
ROOT
ATOM      1  C   UNL     1       2.425   7.634  18.474  0.00  0.00    +0.000 C 
ATOM      2  O   UNL     1       2.091   7.456  19.647  0.00  0.00    +0.000 OA
ATOM      3  N   UNL     1       1.895   8.699  17.713  0.00  0.00    +0.000 N 
ATOM      4  H   UNL     1       2.332   8.979  16.849  0.00  0.00    +0.000 HD
ENDROOT
BRANCH   3   5
ATOM      5  C   UNL     1       1.130   9.681  18.469  0.00  0.00    +0.000 C 
ATOM      6  C   UNL     1       1.851  11.040  18.455  0.00  0.00    +0.000 C 
ATOM      7  C   UNL     1       0.921  11.948  19.246  0.00  0.00    +0.000 C 
ATOM      8  C   UNL     1      -0.386  11.490  18.677  0.00  0.00    +0.000 A 
ATOM      9  C   UNL     1      -1.575  12.206  18.704  0.00  0.00    +0.000 A 
ATOM     10  C   UNL     1      -2.683  11.634  18.109  0.00  0.00    +0.000 A 
ATOM     11  C   UNL     1      -2.594  10.362  17.522  0.00  0.00    +0.000 A 
ATOM     12  C   UNL     1      -1.393   9.620  17.540  0.00  0.00    +0.000 A 
ATOM     13  C   UNL     1      -0.262  10.181  18.117  0.00  0.00    +0.000 A 
ENDBRANCH   3   5
BRANCH   1  17
ATOM     14  C   UNL     1       5.177   4.806  16.655  0.00  0.00    +0.000 A 
ATOM     15  C   UNL     1       3.955   4.390  17.192  0.00  0.00    +0.000 A 
ATOM     16  C   UNL     1       3.095   5.318  17.799  0.00  0.00    +0.000 A 
ATOM     17  C   UNL     1       3.434   6.678  17.906  0.00  0.00    +0.000 A 
ATOM     18  C   UNL     1       4.691   7.063  17.450  0.00  0.00    +0.000 A 
ATOM     19  C   UNL     1       5.570   6.143  16.838  0.00  0.00    +0.000 A 
BRANCH  14  21
ATOM     20  C   UNL     1       5.999   3.992  14.576  0.00  0.00    +0.000 C 
ATOM     21  O   UNL     1       6.007   3.932  16.002  0.00  0.00    +0.000 OA
ENDBRANCH  14  21
BRANCH  19  22
ATOM     22  O   UNL     1       6.744   6.752  16.475  0.00  0.00    +0.000 OA
ATOM     23  C   UNL     1       7.574   7.322  17.472  0.00  0.00    +0.000 C 
ENDBRANCH  19  22
ENDBRANCH   1  17
TORSDOF 4
ENDMDL
MODEL 2
REMARK VINA RESULT:      -7.2      5.953      8.359
REMARK  Name = 
REMARK  6 active torsions:
REMARK  status: ('A' for Active; 'I' for Inactive)
REMARK    1  A    between atoms: C_1  and  O_2
REMARK    2  A    between atoms: O_2  and  C_3
REMARK    3  A    between atoms: C_6  and  C_7
REMARK    4  A    between atoms: N_9  and  C_10
REMARK    5  A    between atoms: C_20  and  O_21
REMARK    6  A    between atoms: O_21  and  C_22
REMARK                            x       y       z     vdW  Elec       q    Type
REMARK                         _______ _______ _______ _____ _____    ______ ____
ROOT
ATOM      1  C   UNL     1       8.364   9.248  18.285  0.00  0.00    +0.000 C 
ATOM      2  O   UNL     1       7.987  10.077  17.453  0.00  0.00    +0.000 OA
ATOM      3  N   UNL     1       9.233   9.609  19.338  0.00  0.00    +0.000 N 
ATOM      4  H   UNL     1       9.353   9.002  20.135  0.00  0.00    +0.000 HD
ENDROOT
BRANCH   3   5
ATOM      5  C   UNL     1       9.454  11.039  19.499  0.00  0.00    +0.000 C 
ATOM      6  C   UNL     1       9.785  11.362  20.966  0.00  0.00    +0.000 C 
ATOM      7  C   UNL     1      10.017  12.867  20.959  0.00  0.00    +0.000 C 
ATOM      8  C   UNL     1      10.813  12.970  19.695  0.00  0.00    +0.000 A 
ATOM      9  C   UNL     1      11.652  14.022  19.352  0.00  0.00    +0.000 A 
ATOM     10  C   UNL     1      12.327  13.939  18.149  0.00  0.00    +0.000 A 
ATOM     11  C   UNL     1      12.139  12.832  17.307  0.00  0.00    +0.000 A 
ATOM     12  C   UNL     1      11.247  11.789  17.641  0.00  0.00    +0.000 A 
ATOM     13  C   UNL     1      10.571  11.842  18.852  0.00  0.00    +0.000 A 
ENDBRANCH   3   5
BRANCH   1  17
ATOM     14  C   UNL     1       6.767   5.212  18.090  0.00  0.00    +0.000 A 
ATOM     15  C   UNL     1       7.810   5.542  18.963  0.00  0.00    +0.000 A 
ATOM     16  C   UNL     1       8.327   6.846  18.987  0.00  0.00    +0.000 A 
ATOM     17  C   UNL     1       7.837   7.851  18.135  0.00  0.00    +0.000 A 
ATOM     18  C   UNL     1       6.864   7.488  17.209  0.00  0.00    +0.000 A 
ATOM     19  C   UNL     1       6.332   6.179  17.168  0.00  0.00    +0.000 A 
BRANCH  14  21
ATOM     20  C   UNL     1       4.976   3.820  18.808  0.00  0.00    +0.000 C 
ATOM     21  O   UNL     1       6.202   3.963  18.090  0.00  0.00    +0.000 OA
ENDBRANCH  14  21
BRANCH  19  22
ATOM     22  O   UNL     1       5.393   6.061  16.177  0.00  0.00    +0.000 OA
ATOM     23  C   UNL     1       5.698   5.320  15.009  0.00  0.00    +0.000 C 
ENDBRANCH  19  22
ENDBRANCH   1  17
TORSDOF 4
ENDMDL
MODEL 3
REMARK VINA RESULT:      -7.2      2.568      3.172
REMARK  Name = 
REMARK  6 active torsions:
REMARK  status: ('A' for Active; 'I' for Inactive)
REMARK    1  A    between atoms: C_1  and  O_2
REMARK    2  A    between atoms: O_2  and  C_3
REMARK    3  A    between atoms: C_6  and  C_7
REMARK    4  A    between atoms: N_9  and  C_10
REMARK    5  A    between atoms: C_20  and  O_21
REMARK    6  A    between atoms: O_21  and  C_22
REMARK                            x       y       z     vdW  Elec       q    Type
REMARK                         _______ _______ _______ _____ _____    ______ ____
ROOT
ATOM      1  C   UNL     1       1.934   6.902  20.025  0.00  0.00    +0.000 C 
ATOM      2  O   UNL     1       1.321   6.131  20.767  0.00  0.00    +0.000 OA
ATOM      3  N   UNL     1       1.606   8.274  19.961  0.00  0.00    +0.000 N 
ATOM      4  H   UNL     1       2.242   8.934  19.541  0.00  0.00    +0.000 HD
ENDROOT
BRANCH   3   5
ATOM      5  C   UNL     1       0.676   8.739  20.981  0.00  0.00    +0.000 C 
ATOM      6  C   UNL     1       1.423   9.000  22.300  0.00  0.00    +0.000 C 
ATOM      7  C   UNL     1       0.333   9.503  23.236  0.00  0.00    +0.000 C 
ATOM      8  C   UNL     1      -0.387  10.407  22.285  0.00  0.00    +0.000 A 
ATOM      9  C   UNL     1      -1.230  11.451  22.643  0.00  0.00    +0.000 A 
ATOM     10  C   UNL     1      -1.795  12.197  21.627  0.00  0.00    +0.000 A 
ATOM     11  C   UNL     1      -1.531  11.881  20.285  0.00  0.00    +0.000 A 
ATOM     12  C   UNL     1      -0.711  10.787  19.928  0.00  0.00    +0.000 A 
ATOM     13  C   UNL     1      -0.118  10.034  20.932  0.00  0.00    +0.000 A 
ENDBRANCH   3   5
BRANCH   1  17
ATOM     14  C   UNL     1       5.300   5.420  17.711  0.00  0.00    +0.000 A 
ATOM     15  C   UNL     1       4.564   6.535  17.295  0.00  0.00    +0.000 A 
ATOM     16  C   UNL     1       3.463   6.978  18.045  0.00  0.00    +0.000 A 
ATOM     17  C   UNL     1       3.054   6.315  19.216  0.00  0.00    +0.000 A 
ATOM     18  C   UNL     1       3.737   5.156  19.569  0.00  0.00    +0.000 A 
ATOM     19  C   UNL     1       4.845   4.694  18.824  0.00  0.00    +0.000 A 
BRANCH  14  21
ATOM     20  C   UNL     1       6.193   4.134  15.920  0.00  0.00    +0.000 C 
ATOM     21  O   UNL     1       6.414   5.004  17.030  0.00  0.00    +0.000 OA
ENDBRANCH  14  21
BRANCH  19  22
ATOM     22  O   UNL     1       5.350   3.538  19.362  0.00  0.00    +0.000 OA
ATOM     23  C   UNL     1       4.465   2.575  19.906  0.00  0.00    +0.000 C 
ENDBRANCH  19  22
ENDBRANCH   1  17
TORSDOF 4
ENDMDL
MODEL 4
REMARK VINA RESULT:      -7.1      0.916      2.090
REMARK  Name = 
REMARK  6 active torsions:
REMARK  status: ('A' for Active; 'I' for Inactive)
REMARK    1  A    between atoms: C_1  and  O_2
REMARK    2  A    between atoms: O_2  and  C_3
REMARK    3  A    between atoms: C_6  and  C_7
REMARK    4  A    between atoms: N_9  and  C_10
REMARK    5  A    between atoms: C_20  and  O_21
REMARK    6  A    between atoms: O_21  and  C_22
REMARK                            x       y       z     vdW  Elec       q    Type
REMARK                         _______ _______ _______ _____ _____    ______ ____
ROOT
ATOM      1  C   UNL     1       2.355   7.636  18.439  0.00  0.00    +0.000 C 
ATOM      2  O   UNL     1       2.159   7.519  19.651  0.00  0.00    +0.000 OA
ATOM      3  N   UNL     1       1.772   8.688  17.699  0.00  0.00    +0.000 N 
ATOM      4  H   UNL     1       2.110   8.915  16.776  0.00  0.00    +0.000 HD
ENDROOT
BRANCH   3   5
ATOM      5  C   UNL     1       1.135   9.728  18.495  0.00  0.00    +0.000 C 
ATOM      6  C   UNL     1       1.911  11.050  18.358  0.00  0.00    +0.000 C 
ATOM      7  C   UNL     1       1.111  12.026  19.208  0.00  0.00    +0.000 C 
ATOM      8  C   UNL     1      -0.268  11.614  18.795  0.00  0.00    +0.000 A 
ATOM      9  C   UNL     1      -1.414  12.387  18.920  0.00  0.00    +0.000 A 
ATOM     10  C   UNL     1      -2.603  11.851  18.464  0.00  0.00    +0.000 A 
ATOM     11  C   UNL     1      -2.633  10.559  17.916  0.00  0.00    +0.000 A 
ATOM     12  C   UNL     1      -1.471   9.760  17.836  0.00  0.00    +0.000 A 
ATOM     13  C   UNL     1      -0.262  10.284  18.272  0.00  0.00    +0.000 A 
ENDBRANCH   3   5
BRANCH   1  17
ATOM     14  C   UNL     1       5.161   4.817  16.688  0.00  0.00    +0.000 A 
ATOM     15  C   UNL     1       5.205   6.180  16.374  0.00  0.00    +0.000 A 
ATOM     16  C   UNL     1       4.271   7.066  16.931  0.00  0.00    +0.000 A 
ATOM     17  C   UNL     1       3.257   6.621  17.798  0.00  0.00    +0.000 A 
ATOM     18  C   UNL     1       3.167   5.252  18.030  0.00  0.00    +0.000 A 
ATOM     19  C   UNL     1       4.098   4.345  17.476  0.00  0.00    +0.000 A 
BRANCH  14  21
ATOM     20  C   UNL     1       6.297   3.936  14.793  0.00  0.00    +0.000 C 
ATOM     21  O   UNL     1       6.098   3.941  16.207  0.00  0.00    +0.000 OA
ENDBRANCH  14  21
BRANCH  19  22
ATOM     22  O   UNL     1       3.805   3.056  17.843  0.00  0.00    +0.000 OA
ATOM     23  C   UNL     1       2.504   2.543  17.615  0.00  0.00    +0.000 C 
ENDBRANCH  19  22
ENDBRANCH   1  17
TORSDOF 4
ENDMDL
MODEL 5
REMARK VINA RESULT:      -6.9      2.231      3.787
REMARK  Name = 
REMARK  6 active torsions:
REMARK  status: ('A' for Active; 'I' for Inactive)
REMARK    1  A    between atoms: C_1  and  O_2
REMARK    2  A    between atoms: O_2  and  C_3
REMARK    3  A    between atoms: C_6  and  C_7
REMARK    4  A    between atoms: N_9  and  C_10
REMARK    5  A    between atoms: C_20  and  O_21
REMARK    6  A    between atoms: O_21  and  C_22
REMARK                            x       y       z     vdW  Elec       q    Type
REMARK                         _______ _______ _______ _____ _____    ______ ____
ROOT
ATOM      1  C   UNL     1       2.002   8.654  18.306  0.00  0.00    +0.000 C 
ATOM      2  O   UNL     1       2.227   9.135  17.193  0.00  0.00    +0.000 OA
ATOM      3  N   UNL     1       1.192   9.328  19.246  0.00  0.00    +0.000 N 
ATOM      4  H   UNL     1       0.824   8.841  20.049  0.00  0.00    +0.000 HD
ENDROOT
BRANCH   3   5
ATOM      5  C   UNL     1       0.474  10.485  18.731  0.00  0.00    +0.000 C 
ATOM      6  C   UNL     1      -0.898  10.606  19.418  0.00  0.00    +0.000 C 
ATOM      7  C   UNL     1      -1.498  11.862  18.802  0.00  0.00    +0.000 C 
ATOM      8  C   UNL     1      -0.278  12.730  18.817  0.00  0.00    +0.000 A 
ATOM      9  C   UNL     1      -0.272  14.117  18.752  0.00  0.00    +0.000 A 
ATOM     10  C   UNL     1       0.951  14.757  18.800  0.00  0.00    +0.000 A 
ATOM     11  C   UNL     1       2.137  14.011  18.889  0.00  0.00    +0.000 A 
ATOM     12  C   UNL     1       2.126  12.599  18.906  0.00  0.00    +0.000 A 
ATOM     13  C   UNL     1       0.907  11.935  18.877  0.00  0.00    +0.000 A 
ENDBRANCH   3   5
BRANCH   1  17
ATOM     14  C   UNL     1       3.985   4.885  19.170  0.00  0.00    +0.000 A 
ATOM     15  C   UNL     1       4.302   5.631  18.029  0.00  0.00    +0.000 A 
ATOM     16  C   UNL     1       3.628   6.832  17.757  0.00  0.00    +0.000 A 
ATOM     17  C   UNL     1       2.609   7.313  18.599  0.00  0.00    +0.000 A 
ATOM     18  C   UNL     1       2.240   6.517  19.679  0.00  0.00    +0.000 A 
ATOM     19  C   UNL     1       2.906   5.305  19.967  0.00  0.00    +0.000 A 
BRANCH  14  21
ATOM     20  C   UNL     1       4.147   2.521  18.966  0.00  0.00    +0.000 C 
ATOM     21  O   UNL     1       4.669   3.742  19.491  0.00  0.00    +0.000 OA
ENDBRANCH  14  21
BRANCH  19  22
ATOM     22  O   UNL     1       2.368   4.699  21.073  0.00  0.00    +0.000 OA
ATOM     23  C   UNL     1       1.304   3.776  20.917  0.00  0.00    +0.000 C 
ENDBRANCH  19  22
ENDBRANCH   1  17
TORSDOF 4
ENDMDL
MODEL 6
REMARK VINA RESULT:      -6.9      3.241      8.353
REMARK  Name = 
REMARK  6 active torsions:
REMARK  status: ('A' for Active; 'I' for Inactive)
REMARK    1  A    between atoms: C_1  and  O_2
REMARK    2  A    between atoms: O_2  and  C_3
REMARK    3  A    between atoms: C_6  and  C_7
REMARK    4  A    between atoms: N_9  and  C_10
REMARK    5  A    between atoms: C_20  and  O_21
REMARK    6  A    between atoms: O_21  and  C_22
REMARK                            x       y       z     vdW  Elec       q    Type
REMARK                         _______ _______ _______ _____ _____    ______ ____
ROOT
ATOM      1  C   UNL     1       1.760   7.243  20.386  0.00  0.00    +0.000 C 
ATOM      2  O   UNL     1       2.731   7.335  19.631  0.00  0.00    +0.000 OA
ATOM      3  N   UNL     1       1.336   5.993  20.887  0.00  0.00    +0.000 N 
ATOM      4  H   UNL     1       0.703   5.942  21.671  0.00  0.00    +0.000 HD
ENDROOT
BRANCH   3   5
ATOM      5  C   UNL     1       2.248   4.884  20.642  0.00  0.00    +0.000 C 
ATOM      6  C   UNL     1       1.965   3.738  21.629  0.00  0.00    +0.000 C 
ATOM      7  C   UNL     1       2.963   2.662  21.225  0.00  0.00    +0.000 C 
ATOM      8  C   UNL     1       2.831   2.773  19.738  0.00  0.00    +0.000 A 
ATOM      9  C   UNL     1       3.187   1.795  18.819  0.00  0.00    +0.000 A 
ATOM     10  C   UNL     1       2.975   2.063  17.481  0.00  0.00    +0.000 A 
ATOM     11  C   UNL     1       2.438   3.298  17.082  0.00  0.00    +0.000 A 
ATOM     12  C   UNL     1       2.124   4.306  18.020  0.00  0.00    +0.000 A 
ATOM     13  C   UNL     1       2.312   4.053  19.371  0.00  0.00    +0.000 A 
ENDBRANCH   3   5
BRANCH   1  17
ATOM     14  C   UNL     1      -0.060  10.984  21.641  0.00  0.00    +0.000 A 
ATOM     15  C   UNL     1       0.074   9.906  22.524  0.00  0.00    +0.000 A 
ATOM     16  C   UNL     1       0.640   8.698  22.087  0.00  0.00    +0.000 A 
ATOM     17  C   UNL     1       1.070   8.523  20.759  0.00  0.00    +0.000 A 
ATOM     18  C   UNL     1       0.847   9.568  19.869  0.00  0.00    +0.000 A 
ATOM     19  C   UNL     1       0.276  10.790  20.291  0.00  0.00    +0.000 A 
BRANCH  14  21
ATOM     20  C   UNL     1      -1.534  12.156  23.095  0.00  0.00    +0.000 C 
ATOM     21  O   UNL     1      -0.553  12.193  22.058  0.00  0.00    +0.000 OA
ENDBRANCH  14  21
BRANCH  19  22
ATOM     22  O   UNL     1       0.155  11.664  19.241  0.00  0.00    +0.000 OA
ATOM     23  C   UNL     1      -1.095  11.802  18.588  0.00  0.00    +0.000 C 
ENDBRANCH  19  22
ENDBRANCH   1  17
TORSDOF 4
ENDMDL
MODEL 7
REMARK VINA RESULT:      -6.9      2.427      8.241
REMARK  Name = 
REMARK  6 active torsions:
REMARK  status: ('A' for Active; 'I' for Inactive)
REMARK    1  A    between atoms: C_1  and  O_2
REMARK    2  A    between atoms: O_2  and  C_3
REMARK    3  A    between atoms: C_6  and  C_7
REMARK    4  A    between atoms: N_9  and  C_10
REMARK    5  A    between atoms: C_20  and  O_21
REMARK    6  A    between atoms: O_21  and  C_22
REMARK                            x       y       z     vdW  Elec       q    Type
REMARK                         _______ _______ _______ _____ _____    ______ ____
ROOT
ATOM      1  C   UNL     1       1.862   8.168  19.535  0.00  0.00    +0.000 C 
ATOM      2  O   UNL     1       2.009   7.495  20.558  0.00  0.00    +0.000 OA
ATOM      3  N   UNL     1       2.448   7.779  18.310  0.00  0.00    +0.000 N 
ATOM      4  H   UNL     1       2.142   8.192  17.442  0.00  0.00    +0.000 HD
ENDROOT
BRANCH   3   5
ATOM      5  C   UNL     1       3.023   6.442  18.294  0.00  0.00    +0.000 C 
ATOM      6  C   UNL     1       1.943   5.404  17.943  0.00  0.00    +0.000 C 
ATOM      7  C   UNL     1       2.701   4.085  17.934  0.00  0.00    +0.000 C 
ATOM      8  C   UNL     1       3.939   4.536  17.224  0.00  0.00    +0.000 A 
ATOM      9  C   UNL     1       4.840   3.711  16.564  0.00  0.00    +0.000 A 
ATOM     10  C   UNL     1       5.921   4.306  15.944  0.00  0.00    +0.000 A 
ATOM     11  C   UNL     1       6.097   5.697  16.008  0.00  0.00    +0.000 A 
ATOM     12  C   UNL     1       5.203   6.525  16.721  0.00  0.00    +0.000 A 
ATOM     13  C   UNL     1       4.099   5.952  17.338  0.00  0.00    +0.000 A 
ENDBRANCH   3   5
BRANCH   1  17
ATOM     14  C   UNL     1      -0.782  11.608  19.777  0.00  0.00    +0.000 A 
ATOM     15  C   UNL     1      -0.463  11.018  18.549  0.00  0.00    +0.000 A 
ATOM     16  C   UNL     1       0.415   9.925  18.494  0.00  0.00    +0.000 A 
ATOM     17  C   UNL     1       1.014   9.401  19.653  0.00  0.00    +0.000 A 
ATOM     18  C   UNL     1       0.762  10.052  20.856  0.00  0.00    +0.000 A 
ATOM     19  C   UNL     1      -0.118  11.156  20.930  0.00  0.00    +0.000 A 
BRANCH  14  21
ATOM     20  C   UNL     1      -3.059  12.291  19.701  0.00  0.00    +0.000 C 
ATOM     21  O   UNL     1      -1.683  12.636  19.865  0.00  0.00    +0.000 OA
ENDBRANCH  14  21
BRANCH  19  22
ATOM     22  O   UNL     1      -0.206  11.628  22.214  0.00  0.00    +0.000 OA
ATOM     23  C   UNL     1      -1.184  11.096  23.090  0.00  0.00    +0.000 C 
ENDBRANCH  19  22
ENDBRANCH   1  17
TORSDOF 4
ENDMDL
MODEL 8
REMARK VINA RESULT:      -6.9      2.575      8.217
REMARK  Name = 
REMARK  6 active torsions:
REMARK  status: ('A' for Active; 'I' for Inactive)
REMARK    1  A    between atoms: C_1  and  O_2
REMARK    2  A    between atoms: O_2  and  C_3
REMARK    3  A    between atoms: C_6  and  C_7
REMARK    4  A    between atoms: N_9  and  C_10
REMARK    5  A    between atoms: C_20  and  O_21
REMARK    6  A    between atoms: O_21  and  C_22
REMARK                            x       y       z     vdW  Elec       q    Type
REMARK                         _______ _______ _______ _____ _____    ______ ____
ROOT
ATOM      1  C   UNL     1       1.865   7.435  20.233  0.00  0.00    +0.000 C 
ATOM      2  O   UNL     1       1.857   6.464  20.994  0.00  0.00    +0.000 OA
ATOM      3  N   UNL     1       2.587   7.411  19.020  0.00  0.00    +0.000 N 
ATOM      4  H   UNL     1       2.409   8.099  18.304  0.00  0.00    +0.000 HD
ENDROOT
BRANCH   3   5
ATOM      5  C   UNL     1       3.111   6.108  18.635  0.00  0.00    +0.000 C 
ATOM      6  C   UNL     1       2.025   5.293  17.911  0.00  0.00    +0.000 C 
ATOM      7  C   UNL     1       2.731   3.994  17.551  0.00  0.00    +0.000 C 
ATOM      8  C   UNL     1       4.040   4.562  17.099  0.00  0.00    +0.000 A 
ATOM      9  C   UNL     1       4.961   3.920  16.281  0.00  0.00    +0.000 A 
ATOM     10  C   UNL     1       6.112   4.608  15.947  0.00  0.00    +0.000 A 
ATOM     11  C   UNL     1       6.334   5.901  16.445  0.00  0.00    +0.000 A 
ATOM     12  C   UNL     1       5.415   6.529  17.315  0.00  0.00    +0.000 A 
ATOM     13  C   UNL     1       4.244   5.864  17.650  0.00  0.00    +0.000 A 
ENDBRANCH   3   5
BRANCH   1  17
ATOM     14  C   UNL     1      -0.305  10.939  21.611  0.00  0.00    +0.000 A 
ATOM     15  C   UNL     1      -0.028   9.869  22.469  0.00  0.00    +0.000 A 
ATOM     16  C   UNL     1       0.650   8.736  21.993  0.00  0.00    +0.000 A 
ATOM     17  C   UNL     1       1.054   8.628  20.651  0.00  0.00    +0.000 A 
ATOM     18  C   UNL     1       0.693   9.656  19.787  0.00  0.00    +0.000 A 
ATOM     19  C   UNL     1       0.009  10.803  20.248  0.00  0.00    +0.000 A 
BRANCH  14  21
ATOM     20  C   UNL     1      -1.976  11.908  22.998  0.00  0.00    +0.000 C 
ATOM     21  O   UNL     1      -0.910  12.082  22.064  0.00  0.00    +0.000 OA
ENDBRANCH  14  21
BRANCH  19  22
ATOM     22  O   UNL     1      -0.238  11.674  19.218  0.00  0.00    +0.000 OA
ATOM     23  C   UNL     1      -1.490  11.636  18.554  0.00  0.00    +0.000 C 
ENDBRANCH  19  22
ENDBRANCH   1  17
TORSDOF 4
ENDMDL
MODEL 9
REMARK VINA RESULT:      -6.8      2.190      3.302
REMARK  Name = 
REMARK  6 active torsions:
REMARK  status: ('A' for Active; 'I' for Inactive)
REMARK    1  A    between atoms: C_1  and  O_2
REMARK    2  A    between atoms: O_2  and  C_3
REMARK    3  A    between atoms: C_6  and  C_7
REMARK    4  A    between atoms: N_9  and  C_10
REMARK    5  A    between atoms: C_20  and  O_21
REMARK    6  A    between atoms: O_21  and  C_22
REMARK                            x       y       z     vdW  Elec       q    Type
REMARK                         _______ _______ _______ _____ _____    ______ ____
ROOT
ATOM      1  C   UNL     1       2.142   8.735  18.312  0.00  0.00    +0.000 C 
ATOM      2  O   UNL     1       2.404   9.707  17.600  0.00  0.00    +0.000 OA
ATOM      3  N   UNL     1       1.292   8.855  19.434  0.00  0.00    +0.000 N 
ATOM      4  H   UNL     1       0.899   8.035  19.869  0.00  0.00    +0.000 HD
ENDROOT
BRANCH   3   5
ATOM      5  C   UNL     1       0.583  10.123  19.543  0.00  0.00    +0.000 C 
ATOM      6  C   UNL     1      -0.532  10.199  18.485  0.00  0.00    +0.000 C 
ATOM      7  C   UNL     1      -1.187  11.546  18.751  0.00  0.00    +0.000 C 
ATOM      8  C   UNL     1      -1.213  11.498  20.247  0.00  0.00    +0.000 A 
ATOM      9  C   UNL     1      -2.042  12.253  21.066  0.00  0.00    +0.000 A 
ATOM     10  C   UNL     1      -1.943  12.062  22.431  0.00  0.00    +0.000 A 
ATOM     11  C   UNL     1      -1.015  11.146  22.952  0.00  0.00    +0.000 A 
ATOM     12  C   UNL     1      -0.142  10.417  22.115  0.00  0.00    +0.000 A 
ATOM     13  C   UNL     1      -0.235  10.580  20.740  0.00  0.00    +0.000 A 
ENDBRANCH   3   5
BRANCH   1  17
ATOM     14  C   UNL     1       4.102   4.991  17.301  0.00  0.00    +0.000 A 
ATOM     15  C   UNL     1       4.668   6.225  16.962  0.00  0.00    +0.000 A 
ATOM     16  C   UNL     1       4.002   7.421  17.275  0.00  0.00    +0.000 A 
ATOM     17  C   UNL     1       2.750   7.421  17.914  0.00  0.00    +0.000 A 
ATOM     18  C   UNL     1       2.156   6.189  18.164  0.00  0.00    +0.000 A 
ATOM     19  C   UNL     1       2.811   4.976  17.854  0.00  0.00    +0.000 A 
BRANCH  14  21
ATOM     20  C   UNL     1       5.682   3.810  15.972  0.00  0.00    +0.000 C 
ATOM     21  O   UNL     1       4.760   3.813  17.062  0.00  0.00    +0.000 OA
ENDBRANCH  14  21
BRANCH  19  22
ATOM     22  O   UNL     1       2.032   3.898  18.187  0.00  0.00    +0.000 OA
ATOM     23  C   UNL     1       1.403   3.856  19.457  0.00  0.00    +0.000 C 
ENDBRANCH  19  22
ENDBRANCH   1  17
TORSDOF 4
ENDMDL
