MODEL 1
REMARK VINA RESULT:      -8.1      0.000      0.000
REMARK  Name = 
REMARK  6 active torsions:
REMARK  status: ('A' for Active; 'I' for Inactive)
REMARK    1  A    between atoms: C_1  and  O_2
REMARK    2  A    between atoms: O_2  and  C_3
REMARK    3  A    between atoms: C_12  and  N_13
REMARK    4  A    between atoms: N_13  and  S_14
REMARK    5  A    between atoms: S_14  and  C_17
REMARK    6  A    between atoms: C_24  and  C_25
REMARK                            x       y       z     vdW  Elec       q    Type
REMARK                         _______ _______ _______ _____ _____    ______ ____
ROOT
ATOM      1  C   UNL     1       1.336  10.199  19.048  0.00  0.00    +0.000 A 
ATOM      2  C   UNL     1       0.484  10.981  19.853  0.00  0.00    +0.000 A 
ATOM      3  C   UNL     1      -0.127  10.455  20.978  0.00  0.00    +0.000 A 
ATOM      4  C   UNL     1       0.103   9.131  21.314  0.00  0.00    +0.000 A 
ATOM      5  C   UNL     1       0.984   8.354  20.554  0.00  0.00    +0.000 A 
ATOM      6  C   UNL     1       1.667   8.865  19.425  0.00  0.00    +0.000 A 
ATOM      7  C   UNL     1       2.556   7.931  18.679  0.00  0.00    +0.000 A 
ATOM      8  C   UNL     1       3.276   8.260  17.517  0.00  0.00    +0.000 A 
ATOM      9  C   UNL     1       3.914   7.289  16.735  0.00  0.00    +0.000 A 
ATOM     10  C   UNL     1       3.879   5.962  17.120  0.00  0.00    +0.000 A 
ATOM     11  C   UNL     1       3.330   5.629  18.351  0.00  0.00    +0.000 A 
ATOM     12  C   UNL     1       2.670   6.601  19.139  0.00  0.00    +0.000 A 
ATOM     13  C   UNL     1       2.168   6.279  20.542  0.00  0.00    +0.000 C 
ATOM     14  O   UNL     1       1.029   7.042  20.955  0.00  0.00    +0.000 OA
ENDROOT
BRANCH  13  15
ATOM     15  C   UNL     1       1.828   4.802  20.751  0.00  0.00    +0.000 A 
ATOM     16  C   UNL     1       2.530   4.041  21.704  0.00  0.00    +0.000 A 
ATOM     17  C   UNL     1       2.349   2.659  21.782  0.00  0.00    +0.000 A 
ATOM     18  C   UNL     1       1.451   2.022  20.927  0.00  0.00    +0.000 A 
ATOM     19  C   UNL     1       0.717   2.768  20.008  0.00  0.00    +0.000 A 
ATOM     20  C   UNL     1       0.903   4.149  19.919  0.00  0.00    +0.000 A 
ENDBRANCH  13  15
BRANCH   1  22
ATOM     21  C   UNL     1       2.421  12.031  17.976  0.00  0.00    +0.000 C 
ATOM     22  O   UNL     1       1.845  10.726  17.883  0.00  0.00    +0.000 OA
ENDBRANCH   1  22
BRANCH  10  23
ATOM     23  N   UNL     1       4.404   4.954  16.262  0.00  0.00    +0.000 N 
ATOM     24  H   UNL     1       4.174   3.998  16.532  0.00  0.00    +0.000 HD
BRANCH  23  25
ATOM     25  S   UNL     1       6.028   5.057  15.801  0.00  0.00    +0.000 S 
ATOM     26  O   UNL     1       6.530   3.707  15.718  0.00  0.00    +0.000 OA
ATOM     27  O   UNL     1       6.168   5.986  14.703  0.00  0.00    +0.000 OA
BRANCH  25  28
ATOM     28  C   UNL     1       6.940   5.800  17.145  0.00  0.00    +0.000 A 
ATOM     29  C   UNL     1       7.432   7.076  17.333  0.00  0.00    +0.000 A 
ATOM     30  C   UNL     1       8.116   7.215  18.576  0.00  0.00    +0.000 A 
ATOM     31  C   UNL     1       8.119   6.041  19.295  0.00  0.00    +0.000 A 
ATOM     32  S   UNL     1       7.307   4.780  18.471  0.00  0.00    +0.000 S 
ENDBRANCH  25  28
ENDBRANCH  23  25
ENDBRANCH  10  23
TORSDOF 5
ENDMDL
MODEL 2
REMARK VINA RESULT:      -7.5      1.212      1.288
REMARK  Name = 
REMARK  6 active torsions:
REMARK  status: ('A' for Active; 'I' for Inactive)
REMARK    1  A    between atoms: C_1  and  O_2
REMARK    2  A    between atoms: O_2  and  C_3
REMARK    3  A    between atoms: C_12  and  N_13
REMARK    4  A    between atoms: N_13  and  S_14
REMARK    5  A    between atoms: S_14  and  C_17
REMARK    6  A    between atoms: C_24  and  C_25
REMARK                            x       y       z     vdW  Elec       q    Type
REMARK                         _______ _______ _______ _____ _____    ______ ____
ROOT
ATOM      1  C   UNL     1       1.282   9.405  19.555  0.00  0.00    +0.000 A 
ATOM      2  C   UNL     1       0.381   9.779  20.571  0.00  0.00    +0.000 A 
ATOM      3  C   UNL     1      -0.023   8.880  21.542  0.00  0.00    +0.000 A 
ATOM      4  C   UNL     1       0.469   7.585  21.510  0.00  0.00    +0.000 A 
ATOM      5  C   UNL     1       1.402   7.210  20.536  0.00  0.00    +0.000 A 
ATOM      6  C   UNL     1       1.878   8.110  19.554  0.00  0.00    +0.000 A 
ATOM      7  C   UNL     1       2.849   7.585  18.554  0.00  0.00    +0.000 A 
ATOM      8  C   UNL     1       3.391   8.328  17.490  0.00  0.00    +0.000 A 
ATOM      9  C   UNL     1       4.119   7.727  16.456  0.00  0.00    +0.000 A 
ATOM     10  C   UNL     1       4.355   6.365  16.481  0.00  0.00    +0.000 A 
ATOM     11  C   UNL     1       3.988   5.635  17.603  0.00  0.00    +0.000 A 
ATOM     12  C   UNL     1       3.240   6.231  18.644  0.00  0.00    +0.000 A 
ATOM     13  C   UNL     1       2.931   5.476  19.933  0.00  0.00    +0.000 C 
ATOM     14  O   UNL     1       1.716   5.874  20.577  0.00  0.00    +0.000 OA
ENDROOT
BRANCH  13  15
ATOM     15  C   UNL     1       2.880   3.957  19.760  0.00  0.00    +0.000 A 
ATOM     16  C   UNL     1       4.057   3.193  19.857  0.00  0.00    +0.000 A 
ATOM     17  C   UNL     1       4.052   1.835  19.533  0.00  0.00    +0.000 A 
ATOM     18  C   UNL     1       2.869   1.218  19.129  0.00  0.00    +0.000 A 
ATOM     19  C   UNL     1       1.686   1.952  19.070  0.00  0.00    +0.000 A 
ATOM     20  C   UNL     1       1.690   3.313  19.383  0.00  0.00    +0.000 A 
ENDBRANCH  13  15
BRANCH   1  22
ATOM     21  C   UNL     1       1.439  11.682  18.865  0.00  0.00    +0.000 C 
ATOM     22  O   UNL     1       1.583  10.295  18.548  0.00  0.00    +0.000 OA
ENDBRANCH   1  22
BRANCH  10  23
ATOM     23  N   UNL     1       4.972   5.727  15.368  0.00  0.00    +0.000 N 
ATOM     24  H   UNL     1       4.382   5.055  14.876  0.00  0.00    +0.000 HD
BRANCH  23  25
ATOM     25  S   UNL     1       6.532   5.101  15.562  0.00  0.00    +0.000 S 
ATOM     26  O   UNL     1       6.390   3.696  15.862  0.00  0.00    +0.000 OA
ATOM     27  O   UNL     1       7.382   5.563  14.488  0.00  0.00    +0.000 OA
BRANCH  25  28
ATOM     28  C   UNL     1       7.236   5.814  17.039  0.00  0.00    +0.000 A 
ATOM     29  C   UNL     1       7.587   7.109  17.364  0.00  0.00    +0.000 A 
ATOM     30  C   UNL     1       8.130   7.211  18.677  0.00  0.00    +0.000 A 
ATOM     31  C   UNL     1       8.172   5.989  19.312  0.00  0.00    +0.000 A 
ATOM     32  S   UNL     1       7.565   4.730  18.325  0.00  0.00    +0.000 S 
ENDBRANCH  25  28
ENDBRANCH  23  25
ENDBRANCH  10  23
TORSDOF 5
ENDMDL
MODEL 3
REMARK VINA RESULT:      -7.4      1.800      2.517
REMARK  Name = 
REMARK  6 active torsions:
REMARK  status: ('A' for Active; 'I' for Inactive)
REMARK    1  A    between atoms: C_1  and  O_2
REMARK    2  A    between atoms: O_2  and  C_3
REMARK    3  A    between atoms: C_12  and  N_13
REMARK    4  A    between atoms: N_13  and  S_14
REMARK    5  A    between atoms: S_14  and  C_17
REMARK    6  A    between atoms: C_24  and  C_25
REMARK                            x       y       z     vdW  Elec       q    Type
REMARK                         _______ _______ _______ _____ _____    ______ ____
ROOT
ATOM      1  C   UNL     1       1.181  10.161  19.198  0.00  0.00    +0.000 A 
ATOM      2  C   UNL     1       0.294  10.916  19.991  0.00  0.00    +0.000 A 
ATOM      3  C   UNL     1      -0.329  10.366  21.098  0.00  0.00    +0.000 A 
ATOM      4  C   UNL     1      -0.075   9.046  21.428  0.00  0.00    +0.000 A 
ATOM      5  C   UNL     1       0.841   8.295  20.681  0.00  0.00    +0.000 A 
ATOM      6  C   UNL     1       1.535   8.832  19.571  0.00  0.00    +0.000 A 
ATOM      7  C   UNL     1       2.462   7.926  18.837  0.00  0.00    +0.000 A 
ATOM      8  C   UNL     1       3.199   8.282  17.694  0.00  0.00    +0.000 A 
ATOM      9  C   UNL     1       3.877   7.333  16.918  0.00  0.00    +0.000 A 
ATOM     10  C   UNL     1       3.864   6.002  17.292  0.00  0.00    +0.000 A 
ATOM     11  C   UNL     1       3.296   5.646  18.508  0.00  0.00    +0.000 A 
ATOM     12  C   UNL     1       2.598   6.595  19.289  0.00  0.00    +0.000 A 
ATOM     13  C   UNL     1       2.073   6.249  20.678  0.00  0.00    +0.000 C 
ATOM     14  O   UNL     1       0.907   6.981  21.072  0.00  0.00    +0.000 OA
ENDROOT
BRANCH  13  15
ATOM     15  C   UNL     1       1.763   4.763  20.867  0.00  0.00    +0.000 A 
ATOM     16  C   UNL     1       2.540   3.983  21.744  0.00  0.00    +0.000 A 
ATOM     17  C   UNL     1       2.378   2.597  21.795  0.00  0.00    +0.000 A 
ATOM     18  C   UNL     1       1.427   1.974  20.988  0.00  0.00    +0.000 A 
ATOM     19  C   UNL     1       0.621   2.738  20.147  0.00  0.00    +0.000 A 
ATOM     20  C   UNL     1       0.787   4.123  20.085  0.00  0.00    +0.000 A 
ENDBRANCH  13  15
BRANCH   1  22
ATOM     21  C   UNL     1       2.338  11.984  18.186  0.00  0.00    +0.000 C 
ATOM     22  O   UNL     1       1.703  10.710  18.049  0.00  0.00    +0.000 OA
ENDBRANCH   1  22
BRANCH  10  23
ATOM     23  N   UNL     1       4.431   5.014  16.437  0.00  0.00    +0.000 N 
ATOM     24  H   UNL     1       4.239   4.050  16.709  0.00  0.00    +0.000 HD
BRANCH  23  25
ATOM     25  S   UNL     1       6.051   5.180  15.980  0.00  0.00    +0.000 S 
ATOM     26  O   UNL     1       6.314   6.594  15.857  0.00  0.00    +0.000 OA
ATOM     27  O   UNL     1       6.881   4.325  16.797  0.00  0.00    +0.000 OA
BRANCH  25  28
ATOM     28  C   UNL     1       6.228   4.538  14.323  0.00  0.00    +0.000 A 
ATOM     29  C   UNL     1       5.425   3.714  13.561  0.00  0.00    +0.000 A 
ATOM     30  C   UNL     1       5.981   3.453  12.275  0.00  0.00    +0.000 A 
ATOM     31  C   UNL     1       7.189   4.091  12.099  0.00  0.00    +0.000 A 
ATOM     32  S   UNL     1       7.649   4.991  13.480  0.00  0.00    +0.000 S 
ENDBRANCH  25  28
ENDBRANCH  23  25
ENDBRANCH  10  23
TORSDOF 5
ENDMDL
MODEL 4
REMARK VINA RESULT:      -7.2      0.950      1.170
REMARK  Name = 
REMARK  6 active torsions:
REMARK  status: ('A' for Active; 'I' for Inactive)
REMARK    1  A    between atoms: C_1  and  O_2
REMARK    2  A    between atoms: O_2  and  C_3
REMARK    3  A    between atoms: C_12  and  N_13
REMARK    4  A    between atoms: N_13  and  S_14
REMARK    5  A    between atoms: S_14  and  C_17
REMARK    6  A    between atoms: C_24  and  C_25
REMARK                            x       y       z     vdW  Elec       q    Type
REMARK                         _______ _______ _______ _____ _____    ______ ____
ROOT
ATOM      1  C   UNL     1       0.864  10.331  19.728  0.00  0.00    +0.000 A 
ATOM      2  C   UNL     1      -0.013  10.967  20.628  0.00  0.00    +0.000 A 
ATOM      3  C   UNL     1      -0.560  10.286  21.703  0.00  0.00    +0.000 A 
ATOM      4  C   UNL     1      -0.237   8.953  21.891  0.00  0.00    +0.000 A 
ATOM      5  C   UNL     1       0.671   8.319  21.035  0.00  0.00    +0.000 A 
ATOM      6  C   UNL     1       1.289   8.989  19.954  0.00  0.00    +0.000 A 
ATOM      7  C   UNL     1       2.215   8.200  19.095  0.00  0.00    +0.000 A 
ATOM      8  C   UNL     1       2.882   8.696  17.960  0.00  0.00    +0.000 A 
ATOM      9  C   UNL     1       3.559   7.856  17.067  0.00  0.00    +0.000 A 
ATOM     10  C   UNL     1       3.618   6.496  17.310  0.00  0.00    +0.000 A 
ATOM     11  C   UNL     1       3.124   6.001  18.509  0.00  0.00    +0.000 A 
ATOM     12  C   UNL     1       2.426   6.839  19.409  0.00  0.00    +0.000 A 
ATOM     13  C   UNL     1       1.982   6.339  20.779  0.00  0.00    +0.000 C 
ATOM     14  O   UNL     1       0.809   6.978  21.293  0.00  0.00    +0.000 OA
ENDROOT
BRANCH  13  15
ATOM     15  C   UNL     1       1.743   4.829  20.836  0.00  0.00    +0.000 A 
ATOM     16  C   UNL     1       2.536   4.016  21.667  0.00  0.00    +0.000 A 
ATOM     17  C   UNL     1       2.441   2.625  21.598  0.00  0.00    +0.000 A 
ATOM     18  C   UNL     1       1.542   2.028  20.717  0.00  0.00    +0.000 A 
ATOM     19  C   UNL     1       0.719   2.821  19.919  0.00  0.00    +0.000 A 
ATOM     20  C   UNL     1       0.818   4.212  19.977  0.00  0.00    +0.000 A 
ENDBRANCH  13  15
BRANCH   1  22
ATOM     21  C   UNL     1       1.137  12.429  18.628  0.00  0.00    +0.000 C 
ATOM     22  O   UNL     1       1.308  11.009  18.615  0.00  0.00    +0.000 OA
ENDBRANCH   1  22
BRANCH  10  23
ATOM     23  N   UNL     1       4.183   5.621  16.339  0.00  0.00    +0.000 N 
ATOM     24  H   UNL     1       3.510   5.195  15.702  0.00  0.00    +0.000 HD
BRANCH  23  25
ATOM     25  S   UNL     1       5.310   4.470  16.853  0.00  0.00    +0.000 S 
ATOM     26  O   UNL     1       4.615   3.558  17.729  0.00  0.00    +0.000 OA
ATOM     27  O   UNL     1       6.078   3.997  15.723  0.00  0.00    +0.000 OA
BRANCH  25  28
ATOM     28  C   UNL     1       6.501   5.289  17.900  0.00  0.00    +0.000 A 
ATOM     29  C   UNL     1       6.953   5.016  19.176  0.00  0.00    +0.000 A 
ATOM     30  C   UNL     1       7.919   5.963  19.624  0.00  0.00    +0.000 A 
ATOM     31  C   UNL     1       8.173   6.926  18.673  0.00  0.00    +0.000 A 
ATOM     32  S   UNL     1       7.247   6.689  17.253  0.00  0.00    +0.000 S 
ENDBRANCH  25  28
ENDBRANCH  23  25
ENDBRANCH  10  23
TORSDOF 5
ENDMDL
MODEL 5
REMARK VINA RESULT:      -7.1      1.755      2.588
REMARK  Name = 
REMARK  6 active torsions:
REMARK  status: ('A' for Active; 'I' for Inactive)
REMARK    1  A    between atoms: C_1  and  O_2
REMARK    2  A    between atoms: O_2  and  C_3
REMARK    3  A    between atoms: C_12  and  N_13
REMARK    4  A    between atoms: N_13  and  S_14
REMARK    5  A    between atoms: S_14  and  C_17
REMARK    6  A    between atoms: C_24  and  C_25
REMARK                            x       y       z     vdW  Elec       q    Type
REMARK                         _______ _______ _______ _____ _____    ______ ____
ROOT
ATOM      1  C   UNL     1       1.384  10.070  18.918  0.00  0.00    +0.000 A 
ATOM      2  C   UNL     1       0.442  10.799  19.671  0.00  0.00    +0.000 A 
ATOM      3  C   UNL     1      -0.223  10.226  20.741  0.00  0.00    +0.000 A 
ATOM      4  C   UNL     1       0.043   8.908  21.074  0.00  0.00    +0.000 A 
ATOM      5  C   UNL     1       1.012   8.184  20.368  0.00  0.00    +0.000 A 
ATOM      6  C   UNL     1       1.749   8.746  19.299  0.00  0.00    +0.000 A 
ATOM      7  C   UNL     1       2.732   7.867  18.606  0.00  0.00    +0.000 A 
ATOM      8  C   UNL     1       3.517   8.249  17.504  0.00  0.00    +0.000 A 
ATOM      9  C   UNL     1       4.255   7.322  16.756  0.00  0.00    +0.000 A 
ATOM     10  C   UNL     1       4.253   5.987  17.119  0.00  0.00    +0.000 A 
ATOM     11  C   UNL     1       3.633   5.608  18.302  0.00  0.00    +0.000 A 
ATOM     12  C   UNL     1       2.875   6.535  19.054  0.00  0.00    +0.000 A 
ATOM     13  C   UNL     1       2.288   6.166  20.412  0.00  0.00    +0.000 C 
ATOM     14  O   UNL     1       1.088   6.869  20.752  0.00  0.00    +0.000 OA
ENDROOT
BRANCH  13  15
ATOM     15  C   UNL     1       2.003   4.672  20.574  0.00  0.00    +0.000 A 
ATOM     16  C   UNL     1       1.080   4.031  19.728  0.00  0.00    +0.000 A 
ATOM     17  C   UNL     1       0.686   2.714  19.974  0.00  0.00    +0.000 A 
ATOM     18  C   UNL     1       1.222   2.014  21.054  0.00  0.00    +0.000 A 
ATOM     19  C   UNL     1       2.170   2.622  21.875  0.00  0.00    +0.000 A 
ATOM     20  C   UNL     1       2.559   3.942  21.638  0.00  0.00    +0.000 A 
ENDBRANCH  13  15
BRANCH   1  22
ATOM     21  C   UNL     1       2.430  11.979  17.945  0.00  0.00    +0.000 C 
ATOM     22  O   UNL     1       1.951  10.640  17.800  0.00  0.00    +0.000 OA
ENDBRANCH   1  22
BRANCH  10  23
ATOM     23  N   UNL     1       4.884   5.020  16.287  0.00  0.00    +0.000 N 
ATOM     24  H   UNL     1       4.648   4.051  16.500  0.00  0.00    +0.000 HD
BRANCH  23  25
ATOM     25  S   UNL     1       6.545   5.167  15.999  0.00  0.00    +0.000 S 
ATOM     26  O   UNL     1       6.876   6.565  16.137  0.00  0.00    +0.000 OA
ATOM     27  O   UNL     1       7.261   4.144  16.727  0.00  0.00    +0.000 OA
BRANCH  25  28
ATOM     28  C   UNL     1       6.844   4.795  14.279  0.00  0.00    +0.000 A 
ATOM     29  C   UNL     1       7.827   5.206  13.402  0.00  0.00    +0.000 A 
ATOM     30  C   UNL     1       7.660   4.652  12.100  0.00  0.00    +0.000 A 
ATOM     31  C   UNL     1       6.556   3.832  12.029  0.00  0.00    +0.000 A 
ATOM     32  S   UNL     1       5.725   3.741  13.522  0.00  0.00    +0.000 S 
ENDBRANCH  25  28
ENDBRANCH  23  25
ENDBRANCH  10  23
TORSDOF 5
ENDMDL
MODEL 6
REMARK VINA RESULT:      -7.1      1.820      2.583
REMARK  Name = 
REMARK  6 active torsions:
REMARK  status: ('A' for Active; 'I' for Inactive)
REMARK    1  A    between atoms: C_1  and  O_2
REMARK    2  A    between atoms: O_2  and  C_3
REMARK    3  A    between atoms: C_12  and  N_13
REMARK    4  A    between atoms: N_13  and  S_14
REMARK    5  A    between atoms: S_14  and  C_17
REMARK    6  A    between atoms: C_24  and  C_25
REMARK                            x       y       z     vdW  Elec       q    Type
REMARK                         _______ _______ _______ _____ _____    ______ ____
ROOT
ATOM      1  C   UNL     1       0.133  10.873  20.739  0.00  0.00    +0.000 A 
ATOM      2  C   UNL     1      -0.719  11.237  21.801  0.00  0.00    +0.000 A 
ATOM      3  C   UNL     1      -1.081  10.327  22.779  0.00  0.00    +0.000 A 
ATOM      4  C   UNL     1      -0.596   9.032  22.708  0.00  0.00    +0.000 A 
ATOM      5  C   UNL     1       0.291   8.666  21.688  0.00  0.00    +0.000 A 
ATOM      6  C   UNL     1       0.724   9.576  20.696  0.00  0.00    +0.000 A 
ATOM      7  C   UNL     1       1.646   9.061  19.645  0.00  0.00    +0.000 A 
ATOM      8  C   UNL     1       2.141   9.815  18.567  0.00  0.00    +0.000 A 
ATOM      9  C   UNL     1       2.819   9.225  17.493  0.00  0.00    +0.000 A 
ATOM     10  C   UNL     1       3.051   7.862  17.490  0.00  0.00    +0.000 A 
ATOM     11  C   UNL     1       2.732   7.119  18.619  0.00  0.00    +0.000 A 
ATOM     12  C   UNL     1       2.035   7.704  19.701  0.00  0.00    +0.000 A 
ATOM     13  C   UNL     1       1.783   6.935  20.993  0.00  0.00    +0.000 C 
ATOM     14  O   UNL     1       0.601   7.329  21.698  0.00  0.00    +0.000 OA
ENDROOT
BRANCH  13  15
ATOM     15  C   UNL     1       1.719   5.418  20.804  0.00  0.00    +0.000 A 
ATOM     16  C   UNL     1       0.798   4.855  19.902  0.00  0.00    +0.000 A 
ATOM     17  C   UNL     1       0.613   3.472  19.847  0.00  0.00    +0.000 A 
ATOM     18  C   UNL     1       1.357   2.634  20.675  0.00  0.00    +0.000 A 
ATOM     19  C   UNL     1       2.303   3.175  21.543  0.00  0.00    +0.000 A 
ATOM     20  C   UNL     1       2.484   4.557  21.609  0.00  0.00    +0.000 A 
ENDBRANCH  13  15
BRANCH   1  22
ATOM     21  C   UNL     1      -0.650  12.710  19.437  0.00  0.00    +0.000 C 
ATOM     22  O   UNL     1       0.390  11.774  19.731  0.00  0.00    +0.000 OA
ENDBRANCH   1  22
BRANCH  10  23
ATOM     23  N   UNL     1       3.614   7.236  16.342  0.00  0.00    +0.000 N 
ATOM     24  H   UNL     1       2.953   6.704  15.776  0.00  0.00    +0.000 HD
BRANCH  23  25
ATOM     25  S   UNL     1       5.056   6.371  16.523  0.00  0.00    +0.000 S 
ATOM     26  O   UNL     1       5.487   5.985  15.201  0.00  0.00    +0.000 OA
ATOM     27  O   UNL     1       5.936   7.070  17.432  0.00  0.00    +0.000 OA
BRANCH  25  28
ATOM     28  C   UNL     1       4.680   4.832  17.347  0.00  0.00    +0.000 A 
ATOM     29  C   UNL     1       3.845   3.785  17.013  0.00  0.00    +0.000 A 
ATOM     30  C   UNL     1       3.855   2.749  17.992  0.00  0.00    +0.000 A 
ATOM     31  C   UNL     1       4.701   3.041  19.039  0.00  0.00    +0.000 A 
ATOM     32  S   UNL     1       5.471   4.556  18.841  0.00  0.00    +0.000 S 
ENDBRANCH  25  28
ENDBRANCH  23  25
ENDBRANCH  10  23
TORSDOF 5
ENDMDL
MODEL 7
REMARK VINA RESULT:      -6.8      5.043      8.414
REMARK  Name = 
REMARK  6 active torsions:
REMARK  status: ('A' for Active; 'I' for Inactive)
REMARK    1  A    between atoms: C_1  and  O_2
REMARK    2  A    between atoms: O_2  and  C_3
REMARK    3  A    between atoms: C_12  and  N_13
REMARK    4  A    between atoms: N_13  and  S_14
REMARK    5  A    between atoms: S_14  and  C_17
REMARK    6  A    between atoms: C_24  and  C_25
REMARK                            x       y       z     vdW  Elec       q    Type
REMARK                         _______ _______ _______ _____ _____    ______ ____
ROOT
ATOM      1  C   UNL     1      -4.548  11.317  17.217  0.00  0.00    +0.000 A 
ATOM      2  C   UNL     1      -5.874  11.576  16.815  0.00  0.00    +0.000 A 
ATOM      3  C   UNL     1      -6.727  12.337  17.595  0.00  0.00    +0.000 A 
ATOM      4  C   UNL     1      -6.265  12.851  18.796  0.00  0.00    +0.000 A 
ATOM      5  C   UNL     1      -4.937  12.644  19.187  0.00  0.00    +0.000 A 
ATOM      6  C   UNL     1      -4.019  11.913  18.398  0.00  0.00    +0.000 A 
ATOM      7  C   UNL     1      -2.640  11.736  18.934  0.00  0.00    +0.000 A 
ATOM      8  C   UNL     1      -1.617  11.008  18.302  0.00  0.00    +0.000 A 
ATOM      9  C   UNL     1      -0.418  10.688  18.952  0.00  0.00    +0.000 A 
ATOM     10  C   UNL     1      -0.199  11.125  20.246  0.00  0.00    +0.000 A 
ATOM     11  C   UNL     1      -1.111  11.992  20.832  0.00  0.00    +0.000 A 
ATOM     12  C   UNL     1      -2.329  12.308  20.188  0.00  0.00    +0.000 A 
ATOM     13  C   UNL     1      -3.285  13.348  20.762  0.00  0.00    +0.000 C 
ATOM     14  O   UNL     1      -4.663  13.130  20.441  0.00  0.00    +0.000 OA
ENDROOT
BRANCH  13  15
ATOM     15  C   UNL     1      -3.188  13.502  22.281  0.00  0.00    +0.000 A 
ATOM     16  C   UNL     1      -3.914  12.643  23.127  0.00  0.00    +0.000 A 
ATOM     17  C   UNL     1      -3.968  12.881  24.502  0.00  0.00    +0.000 A 
ATOM     18  C   UNL     1      -3.284  13.963  25.052  0.00  0.00    +0.000 A 
ATOM     19  C   UNL     1      -2.526  14.797  24.232  0.00  0.00    +0.000 A 
ATOM     20  C   UNL     1      -2.478  14.569  22.855  0.00  0.00    +0.000 A 
ENDBRANCH  13  15
BRANCH   1  22
ATOM     21  C   UNL     1      -3.676  10.762  15.068  0.00  0.00    +0.000 C 
ATOM     22  O   UNL     1      -3.761  10.473  16.466  0.00  0.00    +0.000 OA
ENDBRANCH   1  22
BRANCH  10  23
ATOM     23  N   UNL     1       0.953  10.689  20.961  0.00  0.00    +0.000 N 
ATOM     24  H   UNL     1       1.843  10.908  20.516  0.00  0.00    +0.000 HD
BRANCH  23  25
ATOM     25  S   UNL     1       0.975   9.108  21.564  0.00  0.00    +0.000 S 
ATOM     26  O   UNL     1       1.936   9.080  22.640  0.00  0.00    +0.000 OA
ATOM     27  O   UNL     1      -0.378   8.633  21.744  0.00  0.00    +0.000 OA
BRANCH  25  28
ATOM     28  C   UNL     1       1.667   8.046  20.307  0.00  0.00    +0.000 A 
ATOM     29  C   UNL     1       2.113   8.299  19.025  0.00  0.00    +0.000 A 
ATOM     30  C   UNL     1       2.584   7.123  18.372  0.00  0.00    +0.000 A 
ATOM     31  C   UNL     1       2.484   6.012  19.180  0.00  0.00    +0.000 A 
ATOM     32  S   UNL     1       1.820   6.388  20.712  0.00  0.00    +0.000 S 
ENDBRANCH  25  28
ENDBRANCH  23  25
ENDBRANCH  10  23
TORSDOF 5
ENDMDL
MODEL 8
REMARK VINA RESULT:      -6.7      1.746      2.681
REMARK  Name = 
REMARK  6 active torsions:
REMARK  status: ('A' for Active; 'I' for Inactive)
REMARK    1  A    between atoms: C_1  and  O_2
REMARK    2  A    between atoms: O_2  and  C_3
REMARK    3  A    between atoms: C_12  and  N_13
REMARK    4  A    between atoms: N_13  and  S_14
REMARK    5  A    between atoms: S_14  and  C_17
REMARK    6  A    between atoms: C_24  and  C_25
REMARK                            x       y       z     vdW  Elec       q    Type
REMARK                         _______ _______ _______ _____ _____    ______ ____
ROOT
ATOM      1  C   UNL     1       0.586  10.548  19.705  0.00  0.00    +0.000 A 
ATOM      2  C   UNL     1      -0.379  11.120  20.558  0.00  0.00    +0.000 A 
ATOM      3  C   UNL     1      -0.930  10.402  21.605  0.00  0.00    +0.000 A 
ATOM      4  C   UNL     1      -0.526   9.094  21.813  0.00  0.00    +0.000 A 
ATOM      5  C   UNL     1       0.467   8.526  21.006  0.00  0.00    +0.000 A 
ATOM      6  C   UNL     1       1.091   9.239  19.956  0.00  0.00    +0.000 A 
ATOM      7  C   UNL     1       2.113   8.517  19.147  0.00  0.00    +0.000 A 
ATOM      8  C   UNL     1       2.800   9.060  18.047  0.00  0.00    +0.000 A 
ATOM      9  C   UNL     1       3.579   8.270  17.192  0.00  0.00    +0.000 A 
ATOM     10  C   UNL     1       3.720   6.917  17.440  0.00  0.00    +0.000 A 
ATOM     11  C   UNL     1       3.202   6.388  18.614  0.00  0.00    +0.000 A 
ATOM     12  C   UNL     1       2.402   7.174  19.475  0.00  0.00    +0.000 A 
ATOM     13  C   UNL     1       1.925   6.643  20.823  0.00  0.00    +0.000 C 
ATOM     14  O   UNL     1       0.685   7.198  21.274  0.00  0.00    +0.000 OA
ENDROOT
BRANCH  13  15
ATOM     15  C   UNL     1       1.789   5.120  20.871  0.00  0.00    +0.000 A 
ATOM     16  C   UNL     1       0.748   4.480  20.173  0.00  0.00    +0.000 A 
ATOM     17  C   UNL     1       0.512   3.114  20.347  0.00  0.00    +0.000 A 
ATOM     18  C   UNL     1       1.322   2.368  21.201  0.00  0.00    +0.000 A 
ATOM     19  C   UNL     1       2.383   2.980  21.865  0.00  0.00    +0.000 A 
ATOM     20  C   UNL     1       2.616   4.347  21.702  0.00  0.00    +0.000 A 
ENDBRANCH  13  15
BRANCH   1  22
ATOM     21  C   UNL     1       1.647  12.521  18.888  0.00  0.00    +0.000 C 
ATOM     22  O   UNL     1       1.037  11.257  18.615  0.00  0.00    +0.000 OA
ENDBRANCH   1  22
BRANCH  10  23
ATOM     23  N   UNL     1       4.393   6.085  16.502  0.00  0.00    +0.000 N 
ATOM     24  H   UNL     1       3.802   5.706  15.763  0.00  0.00    +0.000 HD
BRANCH  23  25
ATOM     25  S   UNL     1       5.434   4.887  17.090  0.00  0.00    +0.000 S 
ATOM     26  O   UNL     1       6.166   4.371  15.959  0.00  0.00    +0.000 OA
ATOM     27  O   UNL     1       6.109   5.363  18.276  0.00  0.00    +0.000 OA
BRANCH  25  28
ATOM     28  C   UNL     1       4.438   3.516  17.652  0.00  0.00    +0.000 A 
ATOM     29  C   UNL     1       4.631   2.582  18.650  0.00  0.00    +0.000 A 
ATOM     30  C   UNL     1       3.555   1.651  18.737  0.00  0.00    +0.000 A 
ATOM     31  C   UNL     1       2.576   1.908  17.803  0.00  0.00    +0.000 A 
ATOM     32  S   UNL     1       2.959   3.261  16.827  0.00  0.00    +0.000 S 
ENDBRANCH  25  28
ENDBRANCH  23  25
ENDBRANCH  10  23
TORSDOF 5
ENDMDL
MODEL 9
REMARK VINA RESULT:      -6.7      7.587      8.889
REMARK  Name = 
REMARK  6 active torsions:
REMARK  status: ('A' for Active; 'I' for Inactive)
REMARK    1  A    between atoms: C_1  and  O_2
REMARK    2  A    between atoms: O_2  and  C_3
REMARK    3  A    between atoms: C_12  and  N_13
REMARK    4  A    between atoms: N_13  and  S_14
REMARK    5  A    between atoms: S_14  and  C_17
REMARK    6  A    between atoms: C_24  and  C_25
REMARK                            x       y       z     vdW  Elec       q    Type
REMARK                         _______ _______ _______ _____ _____    ______ ____
ROOT
ATOM      1  C   UNL     1       3.307  15.010  18.778  0.00  0.00    +0.000 A 
ATOM      2  C   UNL     1       1.956  14.622  18.879  0.00  0.00    +0.000 A 
ATOM      3  C   UNL     1       1.468  14.000  20.015  0.00  0.00    +0.000 A 
ATOM      4  C   UNL     1       2.329  13.753  21.071  0.00  0.00    +0.000 A 
ATOM      5  C   UNL     1       3.662  14.175  21.008  0.00  0.00    +0.000 A 
ATOM      6  C   UNL     1       4.190  14.856  19.886  0.00  0.00    +0.000 A 
ATOM      7  C   UNL     1       5.632  15.228  19.925  0.00  0.00    +0.000 A 
ATOM      8  C   UNL     1       6.326  15.871  18.884  0.00  0.00    +0.000 A 
ATOM      9  C   UNL     1       7.721  15.995  18.883  0.00  0.00    +0.000 A 
ATOM     10  C   UNL     1       8.456  15.508  19.948  0.00  0.00    +0.000 A 
ATOM     11  C   UNL     1       7.790  15.029  21.068  0.00  0.00    +0.000 A 
ATOM     12  C   UNL     1       6.383  14.887  21.071  0.00  0.00    +0.000 A 
ATOM     13  C   UNL     1       5.628  14.476  22.330  0.00  0.00    +0.000 C 
ATOM     14  O   UNL     1       4.407  13.769  22.087  0.00  0.00    +0.000 OA
ENDROOT
BRANCH  13  15
ATOM     15  C   UNL     1       6.460  13.632  23.298  0.00  0.00    +0.000 A 
ATOM     16  C   UNL     1       7.134  14.242  24.371  0.00  0.00    +0.000 A 
ATOM     17  C   UNL     1       8.029  13.512  25.155  0.00  0.00    +0.000 A 
ATOM     18  C   UNL     1       8.247  12.161  24.893  0.00  0.00    +0.000 A 
ATOM     19  C   UNL     1       7.554  11.532  23.860  0.00  0.00    +0.000 A 
ATOM     20  C   UNL     1       6.666  12.261  23.067  0.00  0.00    +0.000 A 
ENDBRANCH  13  15
BRANCH   1  22
ATOM     21  C   UNL     1       3.106  16.695  17.104  0.00  0.00    +0.000 C 
ATOM     22  O   UNL     1       3.779  15.534  17.596  0.00  0.00    +0.000 OA
ENDBRANCH   1  22
BRANCH  10  23
ATOM     23  N   UNL     1       9.879  15.504  19.892  0.00  0.00    +0.000 N 
ATOM     24  H   UNL     1      10.305  16.420  19.746  0.00  0.00    +0.000 HD
BRANCH  23  25
ATOM     25  S   UNL     1      10.643  14.344  18.926  0.00  0.00    +0.000 S 
ATOM     26  O   UNL     1      10.128  14.502  17.588  0.00  0.00    +0.000 OA
ATOM     27  O   UNL     1      12.063  14.341  19.196  0.00  0.00    +0.000 OA
BRANCH  25  28
ATOM     28  C   UNL     1      10.078  12.732  19.445  0.00  0.00    +0.000 A 
ATOM     29  C   UNL     1       9.814  12.202  20.692  0.00  0.00    +0.000 A 
ATOM     30  C   UNL     1       9.384  10.845  20.625  0.00  0.00    +0.000 A 
ATOM     31  C   UNL     1       9.332  10.386  19.327  0.00  0.00    +0.000 A 
ATOM     32  S   UNL     1       9.804  11.586  18.201  0.00  0.00    +0.000 S 
ENDBRANCH  25  28
ENDBRANCH  23  25
ENDBRANCH  10  23
TORSDOF 5
ENDMDL
