MODEL 1
REMARK VINA RESULT:      -7.3      0.000      0.000
REMARK  Name = 
REMARK  6 active torsions:
REMARK  status: ('A' for Active; 'I' for Inactive)
REMARK    1  A    between atoms: C_1  and  C_2
REMARK    2  A    between atoms: C_4  and  S_5
REMARK    3  A    between atoms: S_5  and  C_6
REMARK    4  A    between atoms: C_6  and  C_7
REMARK    5  A    between atoms: C_16  and  C_17
REMARK    6  A    between atoms: C_18  and  C_19
REMARK                            x       y       z     vdW  Elec       q    Type
REMARK                         _______ _______ _______ _____ _____    ______ ____
ROOT
ATOM      1  C   UNL     1       7.887   5.587  18.932  0.00  0.00    +0.000 C 
ATOM      2  C   UNL     1       6.436   5.266  18.737  0.00  0.00    +0.000 A 
ATOM      3  N   UNL     1       5.677   6.178  18.106  0.00  0.00    +0.000 NA
ATOM      4  C   UNL     1       4.361   5.915  17.927  0.00  0.00    +0.000 A 
ATOM      5  C   UNL     1       3.800   4.704  18.379  0.00  0.00    +0.000 A 
ATOM      6  C   UNL     1       2.485   4.068  18.324  0.00  0.00    +0.000 A 
ATOM      7  C   UNL     1       1.276   4.563  17.588  0.00  0.00    +0.000 C 
ATOM      8  C   UNL     1       2.459   2.890  19.063  0.00  0.00    +0.000 A 
ATOM      9  C   UNL     1       1.306   1.981  19.346  0.00  0.00    +0.000 C 
ATOM     10  S   UNL     1       3.993   2.484  19.690  0.00  0.00    +0.000 S 
ATOM     11  C   UNL     1       4.701   3.890  19.049  0.00  0.00    +0.000 A 
ATOM     12  N   UNL     1       6.009   4.111  19.249  0.00  0.00    +0.000 NA
ENDROOT
BRANCH   4  13
ATOM     13  S   UNL     1       3.342   7.203  17.267  0.00  0.00    +0.000 S 
BRANCH  13  14
ATOM     14  C   UNL     1       2.511   7.800  18.766  0.00  0.00    +0.000 C 
BRANCH  14  15
ATOM     15  C   UNL     1       1.738   9.099  18.570  0.00  0.00    +0.000 C 
ATOM     16  O   UNL     1       1.716   9.730  17.509  0.00  0.00    +0.000 OA
ATOM     17  N   UNL     1       0.981   9.518  19.666  0.00  0.00    +0.000 N 
ATOM     18  C   UNL     1       0.132  10.678  19.558  0.00  0.00    +0.000 C 
ATOM     19  C   UNL     1      -0.275  10.988  20.982  0.00  0.00    +0.000 C 
ATOM     20  C   UNL     1      -0.276   9.629  21.659  0.00  0.00    +0.000 C 
ATOM     21  C   UNL     1       0.743   8.843  20.873  0.00  0.00    +0.000 C 
ATOM     22  O   UNL     1       1.228   7.787  21.247  0.00  0.00    +0.000 OA
ENDBRANCH  14  15
ENDBRANCH  13  14
ENDBRANCH   4  13
TORSDOF 3
ENDMDL
MODEL 2
REMARK VINA RESULT:      -6.9      2.054      3.210
REMARK  Name = 
REMARK  6 active torsions:
REMARK  status: ('A' for Active; 'I' for Inactive)
REMARK    1  A    between atoms: C_1  and  C_2
REMARK    2  A    between atoms: C_4  and  S_5
REMARK    3  A    between atoms: S_5  and  C_6
REMARK    4  A    between atoms: C_6  and  C_7
REMARK    5  A    between atoms: C_16  and  C_17
REMARK    6  A    between atoms: C_18  and  C_19
REMARK                            x       y       z     vdW  Elec       q    Type
REMARK                         _______ _______ _______ _____ _____    ______ ____
ROOT
ATOM      1  C   UNL     1       1.160   3.748  20.837  0.00  0.00    +0.000 C 
ATOM      2  C   UNL     1       2.032   4.305  19.752  0.00  0.00    +0.000 A 
ATOM      3  N   UNL     1       1.982   5.630  19.533  0.00  0.00    +0.000 NA
ATOM      4  C   UNL     1       2.753   6.156  18.552  0.00  0.00    +0.000 A 
ATOM      5  C   UNL     1       3.602   5.333  17.785  0.00  0.00    +0.000 A 
ATOM      6  C   UNL     1       4.580   5.535  16.718  0.00  0.00    +0.000 A 
ATOM      7  C   UNL     1       5.062   6.847  16.176  0.00  0.00    +0.000 C 
ATOM      8  C   UNL     1       5.050   4.323  16.223  0.00  0.00    +0.000 A 
ATOM      9  C   UNL     1       5.984   4.070  15.083  0.00  0.00    +0.000 C 
ATOM     10  S   UNL     1       4.447   2.989  17.097  0.00  0.00    +0.000 S 
ATOM     11  C   UNL     1       3.506   3.986  18.102  0.00  0.00    +0.000 A 
ATOM     12  N   UNL     1       2.757   3.424  19.063  0.00  0.00    +0.000 NA
ENDROOT
BRANCH   4  13
ATOM     13  S   UNL     1       2.533   7.866  18.152  0.00  0.00    +0.000 S 
BRANCH  13  14
ATOM     14  C   UNL     1       1.777   8.491  19.679  0.00  0.00    +0.000 C 
BRANCH  14  15
ATOM     15  C   UNL     1       0.767   9.611  19.456  0.00  0.00    +0.000 C 
ATOM     16  O   UNL     1       0.404   9.995  18.340  0.00  0.00    +0.000 OA
ATOM     17  N   UNL     1       0.208  10.155  20.614  0.00  0.00    +0.000 N 
ATOM     18  C   UNL     1      -0.831  11.150  20.518  0.00  0.00    +0.000 C 
ATOM     19  C   UNL     1      -0.963  11.701  21.921  0.00  0.00    +0.000 C 
ATOM     20  C   UNL     1      -0.580  10.528  22.806  0.00  0.00    +0.000 C 
ATOM     21  C   UNL     1       0.361   9.727  21.942  0.00  0.00    +0.000 C 
ATOM     22  O   UNL     1       1.091   8.844  22.363  0.00  0.00    +0.000 OA
ENDBRANCH  14  15
ENDBRANCH  13  14
ENDBRANCH   4  13
TORSDOF 3
ENDMDL
MODEL 3
REMARK VINA RESULT:      -6.8      3.316      5.443
REMARK  Name = 
REMARK  6 active torsions:
REMARK  status: ('A' for Active; 'I' for Inactive)
REMARK    1  A    between atoms: C_1  and  C_2
REMARK    2  A    between atoms: C_4  and  S_5
REMARK    3  A    between atoms: S_5  and  C_6
REMARK    4  A    between atoms: C_6  and  C_7
REMARK    5  A    between atoms: C_16  and  C_17
REMARK    6  A    between atoms: C_18  and  C_19
REMARK                            x       y       z     vdW  Elec       q    Type
REMARK                         _______ _______ _______ _____ _____    ______ ____
ROOT
ATOM      1  C   UNL     1       2.956   8.533  17.757  0.00  0.00    +0.000 C 
ATOM      2  C   UNL     1       3.038   7.086  18.142  0.00  0.00    +0.000 A 
ATOM      3  N   UNL     1       3.575   6.236  17.251  0.00  0.00    +0.000 NA
ATOM      4  C   UNL     1       3.652   4.923  17.571  0.00  0.00    +0.000 A 
ATOM      5  C   UNL     1       3.192   4.458  18.819  0.00  0.00    +0.000 A 
ATOM      6  C   UNL     1       3.157   3.173  19.515  0.00  0.00    +0.000 A 
ATOM      7  C   UNL     1       3.773   1.885  19.059  0.00  0.00    +0.000 C 
ATOM      8  C   UNL     1       2.455   3.264  20.713  0.00  0.00    +0.000 A 
ATOM      9  C   UNL     1       2.105   2.181  21.683  0.00  0.00    +0.000 C 
ATOM     10  S   UNL     1       1.972   4.862  21.062  0.00  0.00    +0.000 S 
ATOM     11  C   UNL     1       2.626   5.449  19.607  0.00  0.00    +0.000 A 
ATOM     12  N   UNL     1       2.529   6.758  19.330  0.00  0.00    +0.000 NA
ENDROOT
BRANCH   4  13
ATOM     13  S   UNL     1       4.184   3.794  16.316  0.00  0.00    +0.000 S 
BRANCH  13  14
ATOM     14  C   UNL     1       5.960   4.160  16.240  0.00  0.00    +0.000 C 
BRANCH  14  15
ATOM     15  C   UNL     1       6.281   5.644  16.109  0.00  0.00    +0.000 C 
ATOM     16  O   UNL     1       5.876   6.355  15.185  0.00  0.00    +0.000 OA
ATOM     17  N   UNL     1       7.028   6.191  17.155  0.00  0.00    +0.000 N 
ATOM     18  C   UNL     1       7.303   7.606  17.185  0.00  0.00    +0.000 C 
ATOM     19  C   UNL     1       8.355   7.768  18.261  0.00  0.00    +0.000 C 
ATOM     20  C   UNL     1       8.052   6.641  19.232  0.00  0.00    +0.000 C 
ATOM     21  C   UNL     1       7.415   5.587  18.361  0.00  0.00    +0.000 C 
ATOM     22  O   UNL     1       7.254   4.426  18.701  0.00  0.00    +0.000 OA
ENDBRANCH  14  15
ENDBRANCH  13  14
ENDBRANCH   4  13
TORSDOF 3
ENDMDL
MODEL 4
REMARK VINA RESULT:      -6.6      4.177      6.989
REMARK  Name = 
REMARK  6 active torsions:
REMARK  status: ('A' for Active; 'I' for Inactive)
REMARK    1  A    between atoms: C_1  and  C_2
REMARK    2  A    between atoms: C_4  and  S_5
REMARK    3  A    between atoms: S_5  and  C_6
REMARK    4  A    between atoms: C_6  and  C_7
REMARK    5  A    between atoms: C_16  and  C_17
REMARK    6  A    between atoms: C_18  and  C_19
REMARK                            x       y       z     vdW  Elec       q    Type
REMARK                         _______ _______ _______ _____ _____    ______ ____
ROOT
ATOM      1  C   UNL     1       2.956   8.560  17.644  0.00  0.00    +0.000 C 
ATOM      2  C   UNL     1       3.145   7.199  18.242  0.00  0.00    +0.000 A 
ATOM      3  N   UNL     1       4.204   6.481  17.831  0.00  0.00    +0.000 NA
ATOM      4  C   UNL     1       4.390   5.244  18.349  0.00  0.00    +0.000 A 
ATOM      5  C   UNL     1       3.501   4.724  19.311  0.00  0.00    +0.000 A 
ATOM      6  C   UNL     1       3.407   3.501  20.105  0.00  0.00    +0.000 A 
ATOM      7  C   UNL     1       4.419   2.397  20.180  0.00  0.00    +0.000 C 
ATOM      8  C   UNL     1       2.219   3.454  20.828  0.00  0.00    +0.000 A 
ATOM      9  C   UNL     1       1.685   2.356  21.690  0.00  0.00    +0.000 C 
ATOM     10  S   UNL     1       1.309   4.888  20.671  0.00  0.00    +0.000 S 
ATOM     11  C   UNL     1       2.437   5.567  19.596  0.00  0.00    +0.000 A 
ATOM     12  N   UNL     1       2.213   6.796  19.107  0.00  0.00    +0.000 NA
ENDROOT
BRANCH   4  13
ATOM     13  S   UNL     1       5.676   4.242  17.659  0.00  0.00    +0.000 S 
BRANCH  13  14
ATOM     14  C   UNL     1       5.442   4.540  15.884  0.00  0.00    +0.000 C 
BRANCH  14  15
ATOM     15  C   UNL     1       6.621   5.233  15.212  0.00  0.00    +0.000 C 
ATOM     16  O   UNL     1       7.376   6.018  15.793  0.00  0.00    +0.000 OA
ATOM     17  N   UNL     1       6.849   4.875  13.881  0.00  0.00    +0.000 N 
ATOM     18  C   UNL     1       7.996   5.393  13.179  0.00  0.00    +0.000 C 
ATOM     19  C   UNL     1       7.746   5.042  11.729  0.00  0.00    +0.000 C 
ATOM     20  C   UNL     1       6.932   3.763  11.803  0.00  0.00    +0.000 C 
ATOM     21  C   UNL     1       6.214   3.879  13.124  0.00  0.00    +0.000 C 
ATOM     22  O   UNL     1       5.268   3.181  13.450  0.00  0.00    +0.000 OA
ENDBRANCH  14  15
ENDBRANCH  13  14
ENDBRANCH   4  13
TORSDOF 3
ENDMDL
MODEL 5
REMARK VINA RESULT:      -6.6      4.006      7.070
REMARK  Name = 
REMARK  6 active torsions:
REMARK  status: ('A' for Active; 'I' for Inactive)
REMARK    1  A    between atoms: C_1  and  C_2
REMARK    2  A    between atoms: C_4  and  S_5
REMARK    3  A    between atoms: S_5  and  C_6
REMARK    4  A    between atoms: C_6  and  C_7
REMARK    5  A    between atoms: C_16  and  C_17
REMARK    6  A    between atoms: C_18  and  C_19
REMARK                            x       y       z     vdW  Elec       q    Type
REMARK                         _______ _______ _______ _____ _____    ______ ____
ROOT
ATOM      1  C   UNL     1       4.306   2.207  19.929  0.00  0.00    +0.000 C 
ATOM      2  C   UNL     1       3.926   3.616  19.587  0.00  0.00    +0.000 A 
ATOM      3  N   UNL     1       4.599   4.218  18.593  0.00  0.00    +0.000 NA
ATOM      4  C   UNL     1       4.281   5.494  18.272  0.00  0.00    +0.000 A 
ATOM      5  C   UNL     1       3.253   6.174  18.957  0.00  0.00    +0.000 A 
ATOM      6  C   UNL     1       2.615   7.485  18.863  0.00  0.00    +0.000 A 
ATOM      7  C   UNL     1       2.855   8.530  17.815  0.00  0.00    +0.000 C 
ATOM      8  C   UNL     1       1.710   7.685  19.901  0.00  0.00    +0.000 A 
ATOM      9  C   UNL     1       0.914   8.906  20.234  0.00  0.00    +0.000 C 
ATOM     10  S   UNL     1       1.527   6.298  20.877  0.00  0.00    +0.000 S 
ATOM     11  C   UNL     1       2.686   5.433  19.984  0.00  0.00    +0.000 A 
ATOM     12  N   UNL     1       2.971   4.170  20.335  0.00  0.00    +0.000 NA
ENDROOT
BRANCH   4  13
ATOM     13  S   UNL     1       5.302   6.332  17.095  0.00  0.00    +0.000 S 
BRANCH  13  14
ATOM     14  C   UNL     1       6.300   4.959  16.452  0.00  0.00    +0.000 C 
BRANCH  14  15
ATOM     15  C   UNL     1       5.607   4.147  15.364  0.00  0.00    +0.000 C 
ATOM     16  O   UNL     1       4.538   3.551  15.529  0.00  0.00    +0.000 OA
ATOM     17  N   UNL     1       6.230   4.162  14.114  0.00  0.00    +0.000 N 
ATOM     18  C   UNL     1       5.610   3.511  12.988  0.00  0.00    +0.000 C 
ATOM     19  C   UNL     1       6.686   3.479  11.925  0.00  0.00    +0.000 C 
ATOM     20  C   UNL     1       7.516   4.716  12.216  0.00  0.00    +0.000 C 
ATOM     21  C   UNL     1       7.336   4.920  13.699  0.00  0.00    +0.000 C 
ATOM     22  O   UNL     1       8.036   5.655  14.377  0.00  0.00    +0.000 OA
ENDBRANCH  14  15
ENDBRANCH  13  14
ENDBRANCH   4  13
TORSDOF 3
ENDMDL
MODEL 6
REMARK VINA RESULT:      -6.5      4.162      7.122
REMARK  Name = 
REMARK  6 active torsions:
REMARK  status: ('A' for Active; 'I' for Inactive)
REMARK    1  A    between atoms: C_1  and  C_2
REMARK    2  A    between atoms: C_4  and  S_5
REMARK    3  A    between atoms: S_5  and  C_6
REMARK    4  A    between atoms: C_6  and  C_7
REMARK    5  A    between atoms: C_16  and  C_17
REMARK    6  A    between atoms: C_18  and  C_19
REMARK                            x       y       z     vdW  Elec       q    Type
REMARK                         _______ _______ _______ _____ _____    ______ ____
ROOT
ATOM      1  C   UNL     1       3.602   1.265  18.683  0.00  0.00    +0.000 C 
ATOM      2  C   UNL     1       3.362   2.744  18.720  0.00  0.00    +0.000 A 
ATOM      3  N   UNL     1       3.935   3.491  17.762  0.00  0.00    +0.000 NA
ATOM      4  C   UNL     1       3.741   4.831  17.779  0.00  0.00    +0.000 A 
ATOM      5  C   UNL     1       2.943   5.430  18.774  0.00  0.00    +0.000 A 
ATOM      6  C   UNL     1       2.479   6.782  19.078  0.00  0.00    +0.000 A 
ATOM      7  C   UNL     1       2.678   8.011  18.242  0.00  0.00    +0.000 C 
ATOM      8  C   UNL     1       1.796   6.825  20.289  0.00  0.00    +0.000 A 
ATOM      9  C   UNL     1       1.237   8.007  21.014  0.00  0.00    +0.000 C 
ATOM     10  S   UNL     1       1.593   5.276  20.974  0.00  0.00    +0.000 S 
ATOM     11  C   UNL     1       2.461   4.532  19.715  0.00  0.00    +0.000 A 
ATOM     12  N   UNL     1       2.628   3.201  19.736  0.00  0.00    +0.000 NA
ENDROOT
BRANCH   4  13
ATOM     13  S   UNL     1       4.654   5.815  16.626  0.00  0.00    +0.000 S 
BRANCH  13  14
ATOM     14  C   UNL     1       5.974   4.665  16.147  0.00  0.00    +0.000 C 
BRANCH  14  15
ATOM     15  C   UNL     1       7.033   5.282  15.241  0.00  0.00    +0.000 C 
ATOM     16  O   UNL     1       7.898   6.070  15.634  0.00  0.00    +0.000 OA
ATOM     17  N   UNL     1       7.015   4.846  13.914  0.00  0.00    +0.000 N 
ATOM     18  C   UNL     1       8.033   5.287  12.993  0.00  0.00    +0.000 C 
ATOM     19  C   UNL     1       7.524   4.869  11.632  0.00  0.00    +0.000 C 
ATOM     20  C   UNL     1       6.705   3.623  11.921  0.00  0.00    +0.000 C 
ATOM     21  C   UNL     1       6.234   3.833  13.338  0.00  0.00    +0.000 C 
ATOM     22  O   UNL     1       5.342   3.186  13.863  0.00  0.00    +0.000 OA
ENDBRANCH  14  15
ENDBRANCH  13  14
ENDBRANCH   4  13
TORSDOF 3
ENDMDL
MODEL 7
REMARK VINA RESULT:      -6.3      3.757      6.968
REMARK  Name = 
REMARK  6 active torsions:
REMARK  status: ('A' for Active; 'I' for Inactive)
REMARK    1  A    between atoms: C_1  and  C_2
REMARK    2  A    between atoms: C_4  and  S_5
REMARK    3  A    between atoms: S_5  and  C_6
REMARK    4  A    between atoms: C_6  and  C_7
REMARK    5  A    between atoms: C_16  and  C_17
REMARK    6  A    between atoms: C_18  and  C_19
REMARK                            x       y       z     vdW  Elec       q    Type
REMARK                         _______ _______ _______ _____ _____    ______ ____
ROOT
ATOM      1  C   UNL     1       3.310   2.928  20.480  0.00  0.00    +0.000 C 
ATOM      2  C   UNL     1       3.034   4.322  20.002  0.00  0.00    +0.000 A 
ATOM      3  N   UNL     1       3.652   4.728  18.880  0.00  0.00    +0.000 NA
ATOM      4  C   UNL     1       3.426   5.986  18.433  0.00  0.00    +0.000 A 
ATOM      5  C   UNL     1       2.550   6.848  19.121  0.00  0.00    +0.000 A 
ATOM      6  C   UNL     1       2.036   8.202  18.925  0.00  0.00    +0.000 A 
ATOM      7  C   UNL     1       2.262   9.086  17.735  0.00  0.00    +0.000 C 
ATOM      8  C   UNL     1       1.272   8.619  20.011  0.00  0.00    +0.000 A 
ATOM      9  C   UNL     1       0.639   9.950  20.261  0.00  0.00    +0.000 C 
ATOM     10  S   UNL     1       1.061   7.382  21.166  0.00  0.00    +0.000 S 
ATOM     11  C   UNL     1       2.027   6.298  20.282  0.00  0.00    +0.000 A 
ATOM     12  N   UNL     1       2.224   5.060  20.761  0.00  0.00    +0.000 NA
ENDROOT
BRANCH   4  13
ATOM     13  S   UNL     1       4.391   6.565  17.067  0.00  0.00    +0.000 S 
BRANCH  13  14
ATOM     14  C   UNL     1       5.626   5.243  16.920  0.00  0.00    +0.000 C 
BRANCH  14  15
ATOM     15  C   UNL     1       6.772   5.569  15.970  0.00  0.00    +0.000 C 
ATOM     16  O   UNL     1       7.753   6.249  16.286  0.00  0.00    +0.000 OA
ATOM     17  N   UNL     1       6.684   4.989  14.702  0.00  0.00    +0.000 N 
ATOM     18  C   UNL     1       7.761   5.148  13.757  0.00  0.00    +0.000 C 
ATOM     19  C   UNL     1       7.192   4.660  12.444  0.00  0.00    +0.000 C 
ATOM     20  C   UNL     1       6.181   3.606  12.859  0.00  0.00    +0.000 C 
ATOM     21  C   UNL     1       5.749   4.055  14.232  0.00  0.00    +0.000 C 
ATOM     22  O   UNL     1       4.763   3.627  14.812  0.00  0.00    +0.000 OA
ENDBRANCH  14  15
ENDBRANCH  13  14
ENDBRANCH   4  13
TORSDOF 3
ENDMDL
MODEL 8
REMARK VINA RESULT:      -6.3      3.579      6.973
REMARK  Name = 
REMARK  6 active torsions:
REMARK  status: ('A' for Active; 'I' for Inactive)
REMARK    1  A    between atoms: C_1  and  C_2
REMARK    2  A    between atoms: C_4  and  S_5
REMARK    3  A    between atoms: S_5  and  C_6
REMARK    4  A    between atoms: C_6  and  C_7
REMARK    5  A    between atoms: C_16  and  C_17
REMARK    6  A    between atoms: C_18  and  C_19
REMARK                            x       y       z     vdW  Elec       q    Type
REMARK                         _______ _______ _______ _____ _____    ______ ____
ROOT
ATOM      1  C   UNL     1       2.526   3.305  20.986  0.00  0.00    +0.000 C 
ATOM      2  C   UNL     1       2.426   4.693  20.429  0.00  0.00    +0.000 A 
ATOM      3  N   UNL     1       3.198   4.995  19.372  0.00  0.00    +0.000 NA
ATOM      4  C   UNL     1       3.133   6.245  18.856  0.00  0.00    +0.000 A 
ATOM      5  C   UNL     1       2.263   7.207  19.407  0.00  0.00    +0.000 A 
ATOM      6  C   UNL     1       1.893   8.588  19.103  0.00  0.00    +0.000 A 
ATOM      7  C   UNL     1       2.326   9.395  17.916  0.00  0.00    +0.000 C 
ATOM      8  C   UNL     1       1.052   9.114  20.078  0.00  0.00    +0.000 A 
ATOM      9  C   UNL     1       0.512  10.503  20.206  0.00  0.00    +0.000 C 
ATOM     10  S   UNL     1       0.607   7.954  21.246  0.00  0.00    +0.000 S 
ATOM     11  C   UNL     1       1.569   6.755  20.519  0.00  0.00    +0.000 A 
ATOM     12  N   UNL     1       1.603   5.529  21.062  0.00  0.00    +0.000 NA
ENDROOT
BRANCH   4  13
ATOM     13  S   UNL     1       4.291   6.680  17.590  0.00  0.00    +0.000 S 
BRANCH  13  14
ATOM     14  C   UNL     1       5.222   5.132  17.415  0.00  0.00    +0.000 C 
BRANCH  14  15
ATOM     15  C   UNL     1       4.815   4.300  16.204  0.00  0.00    +0.000 C 
ATOM     16  O   UNL     1       3.767   3.651  16.139  0.00  0.00    +0.000 OA
ATOM     17  N   UNL     1       5.687   4.361  15.114  0.00  0.00    +0.000 N 
ATOM     18  C   UNL     1       5.351   3.693  13.881  0.00  0.00    +0.000 C 
ATOM     19  C   UNL     1       6.627   3.726  13.070  0.00  0.00    +0.000 C 
ATOM     20  C   UNL     1       7.314   4.998  13.531  0.00  0.00    +0.000 C 
ATOM     21  C   UNL     1       6.815   5.176  14.943  0.00  0.00    +0.000 C 
ATOM     22  O   UNL     1       7.319   5.936  15.754  0.00  0.00    +0.000 OA
ENDBRANCH  14  15
ENDBRANCH  13  14
ENDBRANCH   4  13
TORSDOF 3
ENDMDL
MODEL 9
REMARK VINA RESULT:      -6.3      4.018      6.904
REMARK  Name = 
REMARK  6 active torsions:
REMARK  status: ('A' for Active; 'I' for Inactive)
REMARK    1  A    between atoms: C_1  and  C_2
REMARK    2  A    between atoms: C_4  and  S_5
REMARK    3  A    between atoms: S_5  and  C_6
REMARK    4  A    between atoms: C_6  and  C_7
REMARK    5  A    between atoms: C_16  and  C_17
REMARK    6  A    between atoms: C_18  and  C_19
REMARK                            x       y       z     vdW  Elec       q    Type
REMARK                         _______ _______ _______ _____ _____    ______ ____
ROOT
ATOM      1  C   UNL     1       2.897   8.617  17.624  0.00  0.00    +0.000 C 
ATOM      2  C   UNL     1       3.185   7.239  18.138  0.00  0.00    +0.000 A 
ATOM      3  N   UNL     1       4.434   6.768  17.988  0.00  0.00    +0.000 NA
ATOM      4  C   UNL     1       4.716   5.521  18.435  0.00  0.00    +0.000 A 
ATOM      5  C   UNL     1       3.725   4.738  19.058  0.00  0.00    +0.000 A 
ATOM      6  C   UNL     1       3.667   3.421  19.691  0.00  0.00    +0.000 A 
ATOM      7  C   UNL     1       4.819   2.501  19.959  0.00  0.00    +0.000 C 
ATOM      8  C   UNL     1       2.363   3.083  20.039  0.00  0.00    +0.000 A 
ATOM      9  C   UNL     1       1.846   1.806  20.621  0.00  0.00    +0.000 C 
ATOM     10  S   UNL     1       1.263   4.353  19.747  0.00  0.00    +0.000 S 
ATOM     11  C   UNL     1       2.479   5.347  19.097  0.00  0.00    +0.000 A 
ATOM     12  N   UNL     1       2.156   6.576  18.667  0.00  0.00    +0.000 NA
ENDROOT
BRANCH   4  13
ATOM     13  S   UNL     1       6.309   4.848  18.059  0.00  0.00    +0.000 S 
BRANCH  13  14
ATOM     14  C   UNL     1       6.470   5.278  16.303  0.00  0.00    +0.000 C 
BRANCH  14  15
ATOM     15  C   UNL     1       5.675   4.374  15.369  0.00  0.00    +0.000 C 
ATOM     16  O   UNL     1       4.601   3.848  15.674  0.00  0.00    +0.000 OA
ATOM     17  N   UNL     1       6.209   4.216  14.088  0.00  0.00    +0.000 N 
ATOM     18  C   UNL     1       5.488   3.464  13.091  0.00  0.00    +0.000 C 
ATOM     19  C   UNL     1       6.485   3.262  11.972  0.00  0.00    +0.000 C 
ATOM     20  C   UNL     1       7.376   4.488  12.057  0.00  0.00    +0.000 C 
ATOM     21  C   UNL     1       7.308   4.872  13.513  0.00  0.00    +0.000 C 
ATOM     22  O   UNL     1       8.079   5.651  14.051  0.00  0.00    +0.000 OA
ENDBRANCH  14  15
ENDBRANCH  13  14
ENDBRANCH   4  13
TORSDOF 3
ENDMDL
