MODEL 1
REMARK VINA RESULT:      -7.7      0.000      0.000
REMARK  Name = 
REMARK  10 active torsions:
REMARK  status: ('A' for Active; 'I' for Inactive)
REMARK    1  A    between atoms: C_1  and  C_2
REMARK    2  A    between atoms: C_2  and  C_3
REMARK    3  A    between atoms: C_3  and  C_4
REMARK    4  A    between atoms: C_4  and  C_5
REMARK    5  A    between atoms: C_5  and  C_6
REMARK    6  A    between atoms: C_6  and  C_7
REMARK    7  A    between atoms: C_7  and  C_8
REMARK    8  A    between atoms: C_13  and  C_14
REMARK    9  A    between atoms: C_20  and  C_21
REMARK   10  A    between atoms: C_21  and  C_23
REMARK                            x       y       z     vdW  Elec       q    Type
REMARK                         _______ _______ _______ _____ _____    ______ ____
ROOT
ATOM      1  C   UNL     1       2.902   6.374  19.048  0.00  0.00    +0.000 A 
ATOM      2  N   UNL     1       2.739   7.141  18.015  0.00  0.00    +0.000 NA
ATOM      3  C   UNL     1       2.128   8.377  18.137  0.00  0.00    +0.000 A 
ATOM      4  O   UNL     1       2.052   9.121  17.171  0.00  0.00    +0.000 OA
ATOM      5  C   UNL     1       1.597   8.706  19.468  0.00  0.00    +0.000 A 
ATOM      6  C   UNL     1       0.867   9.821  20.020  0.00  0.00    +0.000 A 
ATOM      7  C   UNL     1       0.655   9.545  21.394  0.00  0.00    +0.000 A 
ATOM      8  N   UNL     1       1.288   8.327  21.643  0.00  0.00    +0.000 N 
ATOM      9  C   UNL     1       1.811   7.831  20.496  0.00  0.00    +0.000 A 
ATOM     10  N   UNL     1       2.471   6.672  20.333  0.00  0.00    +0.000 N 
ATOM     11  H   UNL     1       1.336   7.885  22.551  0.00  0.00    +0.000 HD
ATOM     12  H   UNL     1       2.645   6.004  21.075  0.00  0.00    +0.000 HD
ENDROOT
BRANCH   6  13
ATOM     13  C   UNL     1       0.407  11.006  19.298  0.00  0.00    +0.000 A 
ATOM     14  C   UNL     1       1.258  12.104  19.109  0.00  0.00    +0.000 A 
ATOM     15  C   UNL     1       0.804  13.293  18.545  0.00  0.00    +0.000 A 
ATOM     16  C   UNL     1      -0.495  13.370  18.064  0.00  0.00    +0.000 A 
ATOM     17  C   UNL     1      -1.352  12.290  18.203  0.00  0.00    +0.000 A 
ATOM     18  C   UNL     1      -0.908  11.134  18.845  0.00  0.00    +0.000 A 
ENDBRANCH   6  13
BRANCH   7  19
ATOM     19  C   UNL     1      -0.026  10.294  22.461  0.00  0.00    +0.000 C 
ATOM     20  O   UNL     1      -0.192   9.913  23.622  0.00  0.00    +0.000 OA
BRANCH  19  21
ATOM     21  C   UNL     1      -0.688  11.588  22.135  0.00  0.00    +0.000 A 
ATOM     22  C   UNL     1      -2.056  11.643  21.862  0.00  0.00    +0.000 A 
ATOM     23  C   UNL     1      -2.688  12.877  21.741  0.00  0.00    +0.000 A 
ATOM     24  C   UNL     1      -1.942  14.055  21.820  0.00  0.00    +0.000 A 
ATOM     25  C   UNL     1      -0.559  14.003  21.987  0.00  0.00    +0.000 A 
ATOM     26  C   UNL     1       0.071  12.769  22.145  0.00  0.00    +0.000 A 
ENDBRANCH  19  21
ENDBRANCH   7  19
BRANCH   1  27
ATOM     27  C   UNL     1       3.611   5.062  18.780  0.00  0.00    +0.000 C 
BRANCH  27  28
ATOM     28  C   UNL     1       2.875   4.208  17.757  0.00  0.00    +0.000 C 
BRANCH  28  29
ATOM     29  C   UNL     1       3.208   2.719  17.885  0.00  0.00    +0.000 C 
BRANCH  29  30
ATOM     30  C   UNL     1       2.395   2.074  19.005  0.00  0.00    +0.000 C 
BRANCH  30  31
ATOM     31  C   UNL     1       0.988   2.666  19.074  0.00  0.00    +0.000 C 
BRANCH  31  33
ATOM     32  C   UNL     1       1.635   2.752  21.503  0.00  0.00    +0.000 C 
ATOM     33  C   UNL     1       0.738   3.334  20.424  0.00  0.00    +0.000 C 
ENDBRANCH  31  33
ENDBRANCH  30  31
ENDBRANCH  29  30
ENDBRANCH  28  29
ENDBRANCH  27  28
ENDBRANCH   1  27
TORSDOF 9
ENDMDL
MODEL 2
REMARK VINA RESULT:      -7.6      2.446      4.660
REMARK  Name = 
REMARK  10 active torsions:
REMARK  status: ('A' for Active; 'I' for Inactive)
REMARK    1  A    between atoms: C_1  and  C_2
REMARK    2  A    between atoms: C_2  and  C_3
REMARK    3  A    between atoms: C_3  and  C_4
REMARK    4  A    between atoms: C_4  and  C_5
REMARK    5  A    between atoms: C_5  and  C_6
REMARK    6  A    between atoms: C_6  and  C_7
REMARK    7  A    between atoms: C_7  and  C_8
REMARK    8  A    between atoms: C_13  and  C_14
REMARK    9  A    between atoms: C_20  and  C_21
REMARK   10  A    between atoms: C_21  and  C_23
REMARK                            x       y       z     vdW  Elec       q    Type
REMARK                         _______ _______ _______ _____ _____    ______ ____
ROOT
ATOM      1  C   UNL     1       3.606   4.862  18.066  0.00  0.00    +0.000 A 
ATOM      2  N   UNL     1       3.135   4.637  19.253  0.00  0.00    +0.000 NA
ATOM      3  C   UNL     1       2.446   5.621  19.942  0.00  0.00    +0.000 A 
ATOM      4  O   UNL     1       1.941   5.371  21.025  0.00  0.00    +0.000 OA
ATOM      5  C   UNL     1       2.379   6.938  19.290  0.00  0.00    +0.000 A 
ATOM      6  C   UNL     1       1.827   8.221  19.653  0.00  0.00    +0.000 A 
ATOM      7  C   UNL     1       2.079   9.106  18.576  0.00  0.00    +0.000 A 
ATOM      8  N   UNL     1       2.715   8.345  17.595  0.00  0.00    +0.000 N 
ATOM      9  C   UNL     1       2.911   7.081  18.040  0.00  0.00    +0.000 A 
ATOM     10  N   UNL     1       3.512   6.070  17.390  0.00  0.00    +0.000 N 
ATOM     11  H   UNL     1       2.990   8.699  16.689  0.00  0.00    +0.000 HD
ATOM     12  H   UNL     1       3.916   6.146  16.464  0.00  0.00    +0.000 HD
ENDROOT
BRANCH   6  13
ATOM     13  C   UNL     1       1.155   8.558  20.907  0.00  0.00    +0.000 A 
ATOM     14  C   UNL     1      -0.231   8.394  21.042  0.00  0.00    +0.000 A 
ATOM     15  C   UNL     1      -0.913   8.832  22.174  0.00  0.00    +0.000 A 
ATOM     16  C   UNL     1      -0.199   9.355  23.243  0.00  0.00    +0.000 A 
ATOM     17  C   UNL     1       1.176   9.498  23.155  0.00  0.00    +0.000 A 
ATOM     18  C   UNL     1       1.836   9.132  21.982  0.00  0.00    +0.000 A 
ENDBRANCH   6  13
BRANCH   7  19
ATOM     19  C   UNL     1       1.767  10.529  18.369  0.00  0.00    +0.000 C 
ATOM     20  O   UNL     1       2.532  11.379  17.908  0.00  0.00    +0.000 OA
BRANCH  19  21
ATOM     21  C   UNL     1       0.460  11.064  18.842  0.00  0.00    +0.000 A 
ATOM     22  C   UNL     1      -0.738  10.638  18.265  0.00  0.00    +0.000 A 
ATOM     23  C   UNL     1      -1.951  11.009  18.839  0.00  0.00    +0.000 A 
ATOM     24  C   UNL     1      -1.970  11.862  19.944  0.00  0.00    +0.000 A 
ATOM     25  C   UNL     1      -0.780  12.374  20.459  0.00  0.00    +0.000 A 
ATOM     26  C   UNL     1       0.437  11.976  19.909  0.00  0.00    +0.000 A 
ENDBRANCH  19  21
ENDBRANCH   7  19
BRANCH   1  27
ATOM     27  C   UNL     1       4.313   3.690  17.414  0.00  0.00    +0.000 C 
BRANCH  27  28
ATOM     28  C   UNL     1       5.209   4.125  16.263  0.00  0.00    +0.000 C 
BRANCH  28  29
ATOM     29  C   UNL     1       6.677   4.256  16.677  0.00  0.00    +0.000 C 
BRANCH  29  30
ATOM     30  C   UNL     1       7.023   5.706  17.008  0.00  0.00    +0.000 C 
BRANCH  30  31
ATOM     31  C   UNL     1       7.688   5.813  18.380  0.00  0.00    +0.000 C 
BRANCH  31  33
ATOM     32  C   UNL     1       7.724   8.189  17.555  0.00  0.00    +0.000 C 
ATOM     33  C   UNL     1       8.192   7.232  18.638  0.00  0.00    +0.000 C 
ENDBRANCH  31  33
ENDBRANCH  30  31
ENDBRANCH  29  30
ENDBRANCH  28  29
ENDBRANCH  27  28
ENDBRANCH   1  27
TORSDOF 9
ENDMDL
MODEL 3
REMARK VINA RESULT:      -7.6      3.461      9.765
REMARK  Name = 
REMARK  10 active torsions:
REMARK  status: ('A' for Active; 'I' for Inactive)
REMARK    1  A    between atoms: C_1  and  C_2
REMARK    2  A    between atoms: C_2  and  C_3
REMARK    3  A    between atoms: C_3  and  C_4
REMARK    4  A    between atoms: C_4  and  C_5
REMARK    5  A    between atoms: C_5  and  C_6
REMARK    6  A    between atoms: C_6  and  C_7
REMARK    7  A    between atoms: C_7  and  C_8
REMARK    8  A    between atoms: C_13  and  C_14
REMARK    9  A    between atoms: C_20  and  C_21
REMARK   10  A    between atoms: C_21  and  C_23
REMARK                            x       y       z     vdW  Elec       q    Type
REMARK                         _______ _______ _______ _____ _____    ______ ____
ROOT
ATOM      1  C   UNL     1       2.206   8.536  18.257  0.00  0.00    +0.000 A 
ATOM      2  N   UNL     1       1.688   7.545  18.915  0.00  0.00    +0.000 NA
ATOM      3  C   UNL     1       2.310   6.309  18.945  0.00  0.00    +0.000 A 
ATOM      4  O   UNL     1       1.852   5.409  19.632  0.00  0.00    +0.000 OA
ATOM      5  C   UNL     1       3.515   6.174  18.114  0.00  0.00    +0.000 A 
ATOM      6  C   UNL     1       4.423   5.092  17.813  0.00  0.00    +0.000 A 
ATOM      7  C   UNL     1       5.413   5.606  16.940  0.00  0.00    +0.000 A 
ATOM      8  N   UNL     1       5.117   6.960  16.778  0.00  0.00    +0.000 N 
ATOM      9  C   UNL     1       3.983   7.272  17.450  0.00  0.00    +0.000 A 
ATOM     10  N   UNL     1       3.373   8.468  17.510  0.00  0.00    +0.000 N 
ATOM     11  H   UNL     1       5.674   7.603  16.231  0.00  0.00    +0.000 HD
ATOM     12  H   UNL     1       3.696   9.299  17.030  0.00  0.00    +0.000 HD
ENDROOT
BRANCH   6  13
ATOM     13  C   UNL     1       4.329   3.715  18.295  0.00  0.00    +0.000 A 
ATOM     14  C   UNL     1       3.780   2.710  17.486  0.00  0.00    +0.000 A 
ATOM     15  C   UNL     1       3.557   1.423  17.969  0.00  0.00    +0.000 A 
ATOM     16  C   UNL     1       3.975   1.091  19.249  0.00  0.00    +0.000 A 
ATOM     17  C   UNL     1       4.553   2.052  20.062  0.00  0.00    +0.000 A 
ATOM     18  C   UNL     1       4.695   3.358  19.595  0.00  0.00    +0.000 A 
ENDBRANCH   6  13
BRANCH   7  19
ATOM     19  C   UNL     1       6.581   4.987  16.293  0.00  0.00    +0.000 C 
ATOM     20  O   UNL     1       7.661   4.739  16.833  0.00  0.00    +0.000 OA
BRANCH  19  21
ATOM     21  C   UNL     1       6.544   4.715  14.830  0.00  0.00    +0.000 A 
ATOM     22  C   UNL     1       7.520   5.242  13.980  0.00  0.00    +0.000 A 
ATOM     23  C   UNL     1       7.575   4.830  12.652  0.00  0.00    +0.000 A 
ATOM     24  C   UNL     1       6.614   3.949  12.153  0.00  0.00    +0.000 A 
ATOM     25  C   UNL     1       5.577   3.502  12.970  0.00  0.00    +0.000 A 
ATOM     26  C   UNL     1       5.540   3.885  14.310  0.00  0.00    +0.000 A 
ENDBRANCH  19  21
ENDBRANCH   7  19
BRANCH   1  27
ATOM     27  C   UNL     1       1.437   9.840  18.333  0.00  0.00    +0.000 C 
BRANCH  27  28
ATOM     28  C   UNL     1       0.600   9.943  19.601  0.00  0.00    +0.000 C 
BRANCH  28  29
ATOM     29  C   UNL     1      -0.826  10.428  19.326  0.00  0.00    +0.000 C 
BRANCH  29  30
ATOM     30  C   UNL     1      -0.982  10.864  17.871  0.00  0.00    +0.000 C 
BRANCH  30  31
ATOM     31  C   UNL     1      -2.044  10.028  17.158  0.00  0.00    +0.000 C 
BRANCH  31  33
ATOM     32  C   UNL     1      -3.098  10.016  14.874  0.00  0.00    +0.000 C 
ATOM     33  C   UNL     1      -2.774  10.853  16.100  0.00  0.00    +0.000 C 
ENDBRANCH  31  33
ENDBRANCH  30  31
ENDBRANCH  29  30
ENDBRANCH  28  29
ENDBRANCH  27  28
ENDBRANCH   1  27
TORSDOF 9
ENDMDL
MODEL 4
REMARK VINA RESULT:      -7.6      2.810      4.967
REMARK  Name = 
REMARK  10 active torsions:
REMARK  status: ('A' for Active; 'I' for Inactive)
REMARK    1  A    between atoms: C_1  and  C_2
REMARK    2  A    between atoms: C_2  and  C_3
REMARK    3  A    between atoms: C_3  and  C_4
REMARK    4  A    between atoms: C_4  and  C_5
REMARK    5  A    between atoms: C_5  and  C_6
REMARK    6  A    between atoms: C_6  and  C_7
REMARK    7  A    between atoms: C_7  and  C_8
REMARK    8  A    between atoms: C_13  and  C_14
REMARK    9  A    between atoms: C_20  and  C_21
REMARK   10  A    between atoms: C_21  and  C_23
REMARK                            x       y       z     vdW  Elec       q    Type
REMARK                         _______ _______ _______ _____ _____    ______ ____
ROOT
ATOM      1  C   UNL     1       3.871   4.911  18.110  0.00  0.00    +0.000 A 
ATOM      2  N   UNL     1       3.412   4.678  19.301  0.00  0.00    +0.000 NA
ATOM      3  C   UNL     1       2.653   5.625  19.968  0.00  0.00    +0.000 A 
ATOM      4  O   UNL     1       2.163   5.362  21.055  0.00  0.00    +0.000 OA
ATOM      5  C   UNL     1       2.496   6.920  19.290  0.00  0.00    +0.000 A 
ATOM      6  C   UNL     1       1.855   8.168  19.625  0.00  0.00    +0.000 A 
ATOM      7  C   UNL     1       2.047   9.047  18.530  0.00  0.00    +0.000 A 
ATOM      8  N   UNL     1       2.739   8.313  17.566  0.00  0.00    +0.000 N 
ATOM      9  C   UNL     1       3.022   7.075  18.038  0.00  0.00    +0.000 A 
ATOM     10  N   UNL     1       3.694   6.096  17.410  0.00  0.00    +0.000 N 
ATOM     11  H   UNL     1       2.992   8.667  16.654  0.00  0.00    +0.000 HD
ATOM     12  H   UNL     1       4.095   6.181  16.483  0.00  0.00    +0.000 HD
ENDROOT
BRANCH   6  13
ATOM     13  C   UNL     1       1.156   8.483  20.870  0.00  0.00    +0.000 A 
ATOM     14  C   UNL     1      -0.228   8.289  20.982  0.00  0.00    +0.000 A 
ATOM     15  C   UNL     1      -0.937   8.704  22.106  0.00  0.00    +0.000 A 
ATOM     16  C   UNL     1      -0.251   9.235  23.189  0.00  0.00    +0.000 A 
ATOM     17  C   UNL     1       1.122   9.408  23.124  0.00  0.00    +0.000 A 
ATOM     18  C   UNL     1       1.808   9.064  21.960  0.00  0.00    +0.000 A 
ENDBRANCH   6  13
BRANCH   7  19
ATOM     19  C   UNL     1       1.637  10.440  18.294  0.00  0.00    +0.000 C 
ATOM     20  O   UNL     1       2.386  11.377  18.005  0.00  0.00    +0.000 OA
BRANCH  19  21
ATOM     21  C   UNL     1       0.217  10.829  18.516  0.00  0.00    +0.000 A 
ATOM     22  C   UNL     1      -0.817  10.170  17.847  0.00  0.00    +0.000 A 
ATOM     23  C   UNL     1      -2.140  10.422  18.202  0.00  0.00    +0.000 A 
ATOM     24  C   UNL     1      -2.433  11.381  19.172  0.00  0.00    +0.000 A 
ATOM     25  C   UNL     1      -1.408  12.117  19.767  0.00  0.00    +0.000 A 
ATOM     26  C   UNL     1      -0.082  11.841  19.440  0.00  0.00    +0.000 A 
ENDBRANCH  19  21
ENDBRANCH   7  19
BRANCH   1  27
ATOM     27  C   UNL     1       4.660   3.779  17.484  0.00  0.00    +0.000 C 
BRANCH  27  28
ATOM     28  C   UNL     1       5.756   4.285  16.556  0.00  0.00    +0.000 C 
BRANCH  28  29
ATOM     29  C   UNL     1       5.844   3.478  15.257  0.00  0.00    +0.000 C 
BRANCH  29  30
ATOM     30  C   UNL     1       5.571   4.366  14.045  0.00  0.00    +0.000 C 
BRANCH  30  31
ATOM     31  C   UNL     1       6.331   3.869  12.817  0.00  0.00    +0.000 C 
BRANCH  31  33
ATOM     32  C   UNL     1       4.366   3.326  11.343  0.00  0.00    +0.000 C 
ATOM     33  C   UNL     1       5.557   2.764  12.101  0.00  0.00    +0.000 C 
ENDBRANCH  31  33
ENDBRANCH  30  31
ENDBRANCH  29  30
ENDBRANCH  28  29
ENDBRANCH  27  28
ENDBRANCH   1  27
TORSDOF 9
ENDMDL
MODEL 5
REMARK VINA RESULT:      -7.5      0.523      1.071
REMARK  Name = 
REMARK  10 active torsions:
REMARK  status: ('A' for Active; 'I' for Inactive)
REMARK    1  A    between atoms: C_1  and  C_2
REMARK    2  A    between atoms: C_2  and  C_3
REMARK    3  A    between atoms: C_3  and  C_4
REMARK    4  A    between atoms: C_4  and  C_5
REMARK    5  A    between atoms: C_5  and  C_6
REMARK    6  A    between atoms: C_6  and  C_7
REMARK    7  A    between atoms: C_7  and  C_8
REMARK    8  A    between atoms: C_13  and  C_14
REMARK    9  A    between atoms: C_20  and  C_21
REMARK   10  A    between atoms: C_21  and  C_23
REMARK                            x       y       z     vdW  Elec       q    Type
REMARK                         _______ _______ _______ _____ _____    ______ ____
ROOT
ATOM      1  C   UNL     1       2.922   6.509  19.212  0.00  0.00    +0.000 A 
ATOM      2  N   UNL     1       2.824   7.273  18.168  0.00  0.00    +0.000 NA
ATOM      3  C   UNL     1       2.158   8.484  18.235  0.00  0.00    +0.000 A 
ATOM      4  O   UNL     1       2.141   9.228  17.266  0.00  0.00    +0.000 OA
ATOM      5  C   UNL     1       1.497   8.788  19.512  0.00  0.00    +0.000 A 
ATOM      6  C   UNL     1       0.677   9.872  19.996  0.00  0.00    +0.000 A 
ATOM      7  C   UNL     1       0.352   9.584  21.345  0.00  0.00    +0.000 A 
ATOM      8  N   UNL     1       1.006   8.389  21.650  0.00  0.00    +0.000 N 
ATOM      9  C   UNL     1       1.650   7.918  20.555  0.00  0.00    +0.000 A 
ATOM     10  N   UNL     1       2.366   6.786  20.453  0.00  0.00    +0.000 N 
ATOM     11  H   UNL     1       0.989   7.947  22.559  0.00  0.00    +0.000 HD
ATOM     12  H   UNL     1       2.497   6.123  21.207  0.00  0.00    +0.000 HD
ENDROOT
BRANCH   6  13
ATOM     13  C   UNL     1       0.238  11.041  19.236  0.00  0.00    +0.000 A 
ATOM     14  C   UNL     1       1.090  12.142  19.063  0.00  0.00    +0.000 A 
ATOM     15  C   UNL     1       0.651  13.318  18.459  0.00  0.00    +0.000 A 
ATOM     16  C   UNL     1      -0.627  13.377  17.925  0.00  0.00    +0.000 A 
ATOM     17  C   UNL     1      -1.482  12.293  18.048  0.00  0.00    +0.000 A 
ATOM     18  C   UNL     1      -1.058  11.152  18.728  0.00  0.00    +0.000 A 
ENDBRANCH   6  13
BRANCH   7  19
ATOM     19  C   UNL     1      -0.451  10.302  22.346  0.00  0.00    +0.000 C 
ATOM     20  O   UNL     1      -0.961   9.810  23.356  0.00  0.00    +0.000 OA
BRANCH  19  21
ATOM     21  C   UNL     1      -0.801  11.730  22.111  0.00  0.00    +0.000 A 
ATOM     22  C   UNL     1       0.171  12.729  22.206  0.00  0.00    +0.000 A 
ATOM     23  C   UNL     1      -0.132  14.028  21.806  0.00  0.00    +0.000 A 
ATOM     24  C   UNL     1      -1.423  14.345  21.380  0.00  0.00    +0.000 A 
ATOM     25  C   UNL     1      -2.424  13.375  21.384  0.00  0.00    +0.000 A 
ATOM     26  C   UNL     1      -2.115  12.066  21.749  0.00  0.00    +0.000 A 
ENDBRANCH  19  21
ENDBRANCH   7  19
BRANCH   1  27
ATOM     27  C   UNL     1       3.703   5.226  19.009  0.00  0.00    +0.000 C 
BRANCH  27  28
ATOM     28  C   UNL     1       3.227   4.449  17.789  0.00  0.00    +0.000 C 
BRANCH  28  29
ATOM     29  C   UNL     1       1.762   4.017  17.902  0.00  0.00    +0.000 C 
BRANCH  29  30
ATOM     30  C   UNL     1       1.607   2.874  18.902  0.00  0.00    +0.000 C 
BRANCH  30  31
ATOM     31  C   UNL     1       0.701   3.278  20.063  0.00  0.00    +0.000 C 
BRANCH  31  33
ATOM     32  C   UNL     1       2.784   2.545  21.267  0.00  0.00    +0.000 C 
ATOM     33  C   UNL     1       1.473   3.304  21.381  0.00  0.00    +0.000 C 
ENDBRANCH  31  33
ENDBRANCH  30  31
ENDBRANCH  29  30
ENDBRANCH  28  29
ENDBRANCH  27  28
ENDBRANCH   1  27
TORSDOF 9
ENDMDL
MODEL 6
REMARK VINA RESULT:      -7.5      2.359      8.285
REMARK  Name = 
REMARK  10 active torsions:
REMARK  status: ('A' for Active; 'I' for Inactive)
REMARK    1  A    between atoms: C_1  and  C_2
REMARK    2  A    between atoms: C_2  and  C_3
REMARK    3  A    between atoms: C_3  and  C_4
REMARK    4  A    between atoms: C_4  and  C_5
REMARK    5  A    between atoms: C_5  and  C_6
REMARK    6  A    between atoms: C_6  and  C_7
REMARK    7  A    between atoms: C_7  and  C_8
REMARK    8  A    between atoms: C_13  and  C_14
REMARK    9  A    between atoms: C_20  and  C_21
REMARK   10  A    between atoms: C_21  and  C_23
REMARK                            x       y       z     vdW  Elec       q    Type
REMARK                         _______ _______ _______ _____ _____    ______ ____
ROOT
ATOM      1  C   UNL     1       1.132   9.838  19.359  0.00  0.00    +0.000 A 
ATOM      2  N   UNL     1       1.950   9.735  18.357  0.00  0.00    +0.000 NA
ATOM      3  C   UNL     1       2.610   8.547  18.097  0.00  0.00    +0.000 A 
ATOM      4  O   UNL     1       3.316   8.442  17.106  0.00  0.00    +0.000 OA
ATOM      5  C   UNL     1       2.404   7.468  19.074  0.00  0.00    +0.000 A 
ATOM      6  C   UNL     1       2.914   6.126  19.225  0.00  0.00    +0.000 A 
ATOM      7  C   UNL     1       2.314   5.576  20.385  0.00  0.00    +0.000 A 
ATOM      8  N   UNL     1       1.443   6.554  20.866  0.00  0.00    +0.000 N 
ATOM      9  C   UNL     1       1.528   7.670  20.103  0.00  0.00    +0.000 A 
ATOM     10  N   UNL     1       0.862   8.825  20.269  0.00  0.00    +0.000 N 
ATOM     11  H   UNL     1       0.844   6.436  21.672  0.00  0.00    +0.000 HD
ATOM     12  H   UNL     1       0.207   9.005  21.021  0.00  0.00    +0.000 HD
ENDROOT
BRANCH   6  13
ATOM     13  C   UNL     1       3.888   5.461  18.360  0.00  0.00    +0.000 A 
ATOM     14  C   UNL     1       5.260   5.530  18.642  0.00  0.00    +0.000 A 
ATOM     15  C   UNL     1       6.213   5.021  17.765  0.00  0.00    +0.000 A 
ATOM     16  C   UNL     1       5.803   4.339  16.629  0.00  0.00    +0.000 A 
ATOM     17  C   UNL     1       4.453   4.222  16.339  0.00  0.00    +0.000 A 
ATOM     18  C   UNL     1       3.511   4.809  17.184  0.00  0.00    +0.000 A 
ENDBRANCH   6  13
BRANCH   7  19
ATOM     19  C   UNL     1       2.447   4.268  21.043  0.00  0.00    +0.000 C 
ATOM     20  O   UNL     1       2.347   4.051  22.253  0.00  0.00    +0.000 OA
BRANCH  19  21
ATOM     21  C   UNL     1       2.843   3.082  20.234  0.00  0.00    +0.000 A 
ATOM     22  C   UNL     1       1.956   2.515  19.315  0.00  0.00    +0.000 A 
ATOM     23  C   UNL     1       2.404   1.528  18.442  0.00  0.00    +0.000 A 
ATOM     24  C   UNL     1       3.714   1.056  18.533  0.00  0.00    +0.000 A 
ATOM     25  C   UNL     1       4.572   1.544  19.518  0.00  0.00    +0.000 A 
ATOM     26  C   UNL     1       4.137   2.558  20.370  0.00  0.00    +0.000 A 
ENDBRANCH  19  21
ENDBRANCH   7  19
BRANCH   1  27
ATOM     27  C   UNL     1       0.454  11.185  19.511  0.00  0.00    +0.000 C 
BRANCH  27  28
ATOM     28  C   UNL     1      -0.614  11.415  18.451  0.00  0.00    +0.000 C 
BRANCH  28  29
ATOM     29  C   UNL     1      -1.974  10.837  18.851  0.00  0.00    +0.000 C 
BRANCH  29  30
ATOM     30  C   UNL     1      -2.508   9.901  17.769  0.00  0.00    +0.000 C 
BRANCH  30  31
ATOM     31  C   UNL     1      -2.382  10.534  16.384  0.00  0.00    +0.000 C 
BRANCH  31  33
ATOM     32  C   UNL     1      -3.005  10.015  14.003  0.00  0.00    +0.000 C 
ATOM     33  C   UNL     1      -3.478  10.031  15.447  0.00  0.00    +0.000 C 
ENDBRANCH  31  33
ENDBRANCH  30  31
ENDBRANCH  29  30
ENDBRANCH  28  29
ENDBRANCH  27  28
ENDBRANCH   1  27
TORSDOF 9
ENDMDL
MODEL 7
REMARK VINA RESULT:      -7.4      1.693      3.002
REMARK  Name = 
REMARK  10 active torsions:
REMARK  status: ('A' for Active; 'I' for Inactive)
REMARK    1  A    between atoms: C_1  and  C_2
REMARK    2  A    between atoms: C_2  and  C_3
REMARK    3  A    between atoms: C_3  and  C_4
REMARK    4  A    between atoms: C_4  and  C_5
REMARK    5  A    between atoms: C_5  and  C_6
REMARK    6  A    between atoms: C_6  and  C_7
REMARK    7  A    between atoms: C_7  and  C_8
REMARK    8  A    between atoms: C_13  and  C_14
REMARK    9  A    between atoms: C_20  and  C_21
REMARK   10  A    between atoms: C_21  and  C_23
REMARK                            x       y       z     vdW  Elec       q    Type
REMARK                         _______ _______ _______ _____ _____    ______ ____
ROOT
ATOM      1  C   UNL     1       2.801   6.474  19.001  0.00  0.00    +0.000 A 
ATOM      2  N   UNL     1       2.623   7.281  18.001  0.00  0.00    +0.000 NA
ATOM      3  C   UNL     1       2.035   8.521  18.184  0.00  0.00    +0.000 A 
ATOM      4  O   UNL     1       1.944   9.300  17.249  0.00  0.00    +0.000 OA
ATOM      5  C   UNL     1       1.545   8.808  19.540  0.00  0.00    +0.000 A 
ATOM      6  C   UNL     1       0.847   9.913  20.153  0.00  0.00    +0.000 A 
ATOM      7  C   UNL     1       0.667   9.590  21.521  0.00  0.00    +0.000 A 
ATOM      8  N   UNL     1       1.287   8.354  21.708  0.00  0.00    +0.000 N 
ATOM      9  C   UNL     1       1.772   7.894  20.530  0.00  0.00    +0.000 A 
ATOM     10  N   UNL     1       2.409   6.731  20.307  0.00  0.00    +0.000 N 
ATOM     11  H   UNL     1       1.353   7.879  22.598  0.00  0.00    +0.000 HD
ATOM     12  H   UNL     1       2.592   6.034  21.020  0.00  0.00    +0.000 HD
ENDROOT
BRANCH   6  13
ATOM     13  C   UNL     1       0.386  11.130  19.487  0.00  0.00    +0.000 A 
ATOM     14  C   UNL     1      -0.903  11.202  18.940  0.00  0.00    +0.000 A 
ATOM     15  C   UNL     1      -1.318  12.297  18.186  0.00  0.00    +0.000 A 
ATOM     16  C   UNL     1      -0.477  13.392  18.051  0.00  0.00    +0.000 A 
ATOM     17  C   UNL     1       0.791  13.367  18.609  0.00  0.00    +0.000 A 
ATOM     18  C   UNL     1       1.223  12.231  19.291  0.00  0.00    +0.000 A 
ENDBRANCH   6  13
BRANCH   7  19
ATOM     19  C   UNL     1       0.026  10.309  22.632  0.00  0.00    +0.000 C 
ATOM     20  O   UNL     1      -0.018   9.936  23.807  0.00  0.00    +0.000 OA
BRANCH  19  21
ATOM     21  C   UNL     1      -0.744  11.552  22.349  0.00  0.00    +0.000 A 
ATOM     22  C   UNL     1      -2.123  11.503  22.129  0.00  0.00    +0.000 A 
ATOM     23  C   UNL     1      -2.851  12.687  22.048  0.00  0.00    +0.000 A 
ATOM     24  C   UNL     1      -2.196  13.917  22.114  0.00  0.00    +0.000 A 
ATOM     25  C   UNL     1      -0.807  13.970  22.228  0.00  0.00    +0.000 A 
ATOM     26  C   UNL     1      -0.079  12.787  22.346  0.00  0.00    +0.000 A 
ENDBRANCH  19  21
ENDBRANCH   7  19
BRANCH   1  27
ATOM     27  C   UNL     1       3.482   5.163  18.666  0.00  0.00    +0.000 C 
BRANCH  27  28
ATOM     28  C   UNL     1       4.445   5.297  17.493  0.00  0.00    +0.000 C 
BRANCH  28  29
ATOM     29  C   UNL     1       5.839   4.751  17.812  0.00  0.00    +0.000 C 
BRANCH  29  30
ATOM     30  C   UNL     1       6.406   5.406  19.070  0.00  0.00    +0.000 C 
BRANCH  30  31
ATOM     31  C   UNL     1       7.679   6.191  18.755  0.00  0.00    +0.000 C 
BRANCH  31  33
ATOM     32  C   UNL     1       8.104   8.501  17.855  0.00  0.00    +0.000 C 
ATOM     33  C   UNL     1       7.459   7.152  17.588  0.00  0.00    +0.000 C 
ENDBRANCH  31  33
ENDBRANCH  30  31
ENDBRANCH  29  30
ENDBRANCH  28  29
ENDBRANCH  27  28
ENDBRANCH   1  27
TORSDOF 9
ENDMDL
MODEL 8
REMARK VINA RESULT:      -7.4      0.760      1.031
REMARK  Name = 
REMARK  10 active torsions:
REMARK  status: ('A' for Active; 'I' for Inactive)
REMARK    1  A    between atoms: C_1  and  C_2
REMARK    2  A    between atoms: C_2  and  C_3
REMARK    3  A    between atoms: C_3  and  C_4
REMARK    4  A    between atoms: C_4  and  C_5
REMARK    5  A    between atoms: C_5  and  C_6
REMARK    6  A    between atoms: C_6  and  C_7
REMARK    7  A    between atoms: C_7  and  C_8
REMARK    8  A    between atoms: C_13  and  C_14
REMARK    9  A    between atoms: C_20  and  C_21
REMARK   10  A    between atoms: C_21  and  C_23
REMARK                            x       y       z     vdW  Elec       q    Type
REMARK                         _______ _______ _______ _____ _____    ______ ____
ROOT
ATOM      1  C   UNL     1       2.613   6.704  18.884  0.00  0.00    +0.000 A 
ATOM      2  N   UNL     1       2.599   7.588  17.934  0.00  0.00    +0.000 NA
ATOM      3  C   UNL     1       2.102   8.861  18.156  0.00  0.00    +0.000 A 
ATOM      4  O   UNL     1       2.167   9.705  17.276  0.00  0.00    +0.000 OA
ATOM      5  C   UNL     1       1.511   9.101  19.480  0.00  0.00    +0.000 A 
ATOM      6  C   UNL     1       0.853  10.222  20.108  0.00  0.00    +0.000 A 
ATOM      7  C   UNL     1       0.518   9.827  21.427  0.00  0.00    +0.000 A 
ATOM      8  N   UNL     1       1.011   8.530  21.577  0.00  0.00    +0.000 N 
ATOM      9  C   UNL     1       1.566   8.107  20.416  0.00  0.00    +0.000 A 
ATOM     10  N   UNL     1       2.121   6.909  20.166  0.00  0.00    +0.000 N 
ATOM     11  H   UNL     1       0.952   7.993  22.431  0.00  0.00    +0.000 HD
ATOM     12  H   UNL     1       2.177   6.153  20.838  0.00  0.00    +0.000 HD
ENDROOT
BRANCH   6  13
ATOM     13  C   UNL     1       0.561  11.517  19.496  0.00  0.00    +0.000 A 
ATOM     14  C   UNL     1       1.400  12.618  19.719  0.00  0.00    +0.000 A 
ATOM     15  C   UNL     1       1.074  13.891  19.259  0.00  0.00    +0.000 A 
ATOM     16  C   UNL     1      -0.057  14.066  18.475  0.00  0.00    +0.000 A 
ATOM     17  C   UNL     1      -0.889  12.991  18.207  0.00  0.00    +0.000 A 
ATOM     18  C   UNL     1      -0.594  11.738  18.743  0.00  0.00    +0.000 A 
ENDBRANCH   6  13
BRANCH   7  19
ATOM     19  C   UNL     1      -0.164  10.526  22.528  0.00  0.00    +0.000 C 
ATOM     20  O   UNL     1      -0.213  10.154  23.703  0.00  0.00    +0.000 OA
BRANCH  19  21
ATOM     21  C   UNL     1      -0.972  11.741  22.229  0.00  0.00    +0.000 A 
ATOM     22  C   UNL     1      -2.246  11.632  21.668  0.00  0.00    +0.000 A 
ATOM     23  C   UNL     1      -3.055  12.760  21.566  0.00  0.00    +0.000 A 
ATOM     24  C   UNL     1      -2.567  14.008  21.958  0.00  0.00    +0.000 A 
ATOM     25  C   UNL     1      -1.258  14.138  22.422  0.00  0.00    +0.000 A 
ATOM     26  C   UNL     1      -0.459  13.005  22.558  0.00  0.00    +0.000 A 
ENDBRANCH  19  21
ENDBRANCH   7  19
BRANCH   1  27
ATOM     27  C   UNL     1       3.211   5.361  18.515  0.00  0.00    +0.000 C 
BRANCH  27  28
ATOM     28  C   UNL     1       4.098   4.802  19.619  0.00  0.00    +0.000 C 
BRANCH  28  29
ATOM     29  C   UNL     1       4.491   3.343  19.375  0.00  0.00    +0.000 C 
BRANCH  29  30
ATOM     30  C   UNL     1       3.414   2.394  19.896  0.00  0.00    +0.000 C 
BRANCH  30  31
ATOM     31  C   UNL     1       2.886   2.854  21.254  0.00  0.00    +0.000 C 
BRANCH  31  33
ATOM     32  C   UNL     1       0.701   3.411  20.140  0.00  0.00    +0.000 C 
ATOM     33  C   UNL     1       1.365   2.731  21.325  0.00  0.00    +0.000 C 
ENDBRANCH  31  33
ENDBRANCH  30  31
ENDBRANCH  29  30
ENDBRANCH  28  29
ENDBRANCH  27  28
ENDBRANCH   1  27
TORSDOF 9
ENDMDL
MODEL 9
REMARK VINA RESULT:      -7.4      0.853      1.421
REMARK  Name = 
REMARK  10 active torsions:
REMARK  status: ('A' for Active; 'I' for Inactive)
REMARK    1  A    between atoms: C_1  and  C_2
REMARK    2  A    between atoms: C_2  and  C_3
REMARK    3  A    between atoms: C_3  and  C_4
REMARK    4  A    between atoms: C_4  and  C_5
REMARK    5  A    between atoms: C_5  and  C_6
REMARK    6  A    between atoms: C_6  and  C_7
REMARK    7  A    between atoms: C_7  and  C_8
REMARK    8  A    between atoms: C_13  and  C_14
REMARK    9  A    between atoms: C_20  and  C_21
REMARK   10  A    between atoms: C_21  and  C_23
REMARK                            x       y       z     vdW  Elec       q    Type
REMARK                         _______ _______ _______ _____ _____    ______ ____
ROOT
ATOM      1  C   UNL     1       2.548   6.742  19.115  0.00  0.00    +0.000 A 
ATOM      2  N   UNL     1       2.570   7.598  18.140  0.00  0.00    +0.000 NA
ATOM      3  C   UNL     1       2.084   8.882  18.311  0.00  0.00    +0.000 A 
ATOM      4  O   UNL     1       2.182   9.700  17.409  0.00  0.00    +0.000 OA
ATOM      5  C   UNL     1       1.462   9.169  19.612  0.00  0.00    +0.000 A 
ATOM      6  C   UNL     1       0.802  10.315  20.190  0.00  0.00    +0.000 A 
ATOM      7  C   UNL     1       0.428   9.963  21.510  0.00  0.00    +0.000 A 
ATOM      8  N   UNL     1       0.901   8.666  21.710  0.00  0.00    +0.000 N 
ATOM      9  C   UNL     1       1.480   8.201  20.577  0.00  0.00    +0.000 A 
ATOM     10  N   UNL     1       2.026   6.990  20.377  0.00  0.00    +0.000 N 
ATOM     11  H   UNL     1       0.812   8.155  22.578  0.00  0.00    +0.000 HD
ATOM     12  H   UNL     1       2.055   6.254  21.072  0.00  0.00    +0.000 HD
ENDROOT
BRANCH   6  13
ATOM     13  C   UNL     1       0.543  11.595  19.532  0.00  0.00    +0.000 A 
ATOM     14  C   UNL     1       1.339  12.716  19.810  0.00  0.00    +0.000 A 
ATOM     15  C   UNL     1       1.032  13.975  19.302  0.00  0.00    +0.000 A 
ATOM     16  C   UNL     1      -0.028  14.116  18.418  0.00  0.00    +0.000 A 
ATOM     17  C   UNL     1      -0.813  13.021  18.095  0.00  0.00    +0.000 A 
ATOM     18  C   UNL     1      -0.545  11.782  18.677  0.00  0.00    +0.000 A 
ENDBRANCH   6  13
BRANCH   7  19
ATOM     19  C   UNL     1      -0.273  10.703  22.571  0.00  0.00    +0.000 C 
ATOM     20  O   UNL     1      -0.333  10.381  23.760  0.00  0.00    +0.000 OA
BRANCH  19  21
ATOM     21  C   UNL     1      -1.088  11.896  22.212  0.00  0.00    +0.000 A 
ATOM     22  C   UNL     1      -0.639  13.185  22.512  0.00  0.00    +0.000 A 
ATOM     23  C   UNL     1      -1.322  14.288  22.009  0.00  0.00    +0.000 A 
ATOM     24  C   UNL     1      -2.491  14.109  21.267  0.00  0.00    +0.000 A 
ATOM     25  C   UNL     1      -3.000  12.828  21.054  0.00  0.00    +0.000 A 
ATOM     26  C   UNL     1      -2.299  11.720  21.526  0.00  0.00    +0.000 A 
ENDBRANCH  19  21
ENDBRANCH   7  19
BRANCH   1  27
ATOM     27  C   UNL     1       3.138   5.382  18.800  0.00  0.00    +0.000 C 
BRANCH  27  28
ATOM     28  C   UNL     1       3.890   5.372  17.476  0.00  0.00    +0.000 C 
BRANCH  28  29
ATOM     29  C   UNL     1       3.981   3.973  16.862  0.00  0.00    +0.000 C 
BRANCH  29  30
ATOM     30  C   UNL     1       2.725   3.161  17.169  0.00  0.00    +0.000 C 
BRANCH  30  31
ATOM     31  C   UNL     1       3.046   1.971  18.072  0.00  0.00    +0.000 C 
BRANCH  31  33
ATOM     32  C   UNL     1       0.752   2.638  18.858  0.00  0.00    +0.000 C 
ATOM     33  C   UNL     1       1.982   1.798  19.154  0.00  0.00    +0.000 C 
ENDBRANCH  31  33
ENDBRANCH  30  31
ENDBRANCH  29  30
ENDBRANCH  28  29
ENDBRANCH  27  28
ENDBRANCH   1  27
TORSDOF 9
ENDMDL
