MODEL 1
REMARK VINA RESULT:      -8.6      0.000      0.000
REMARK  Name = 
REMARK  6 active torsions:
REMARK  status: ('A' for Active; 'I' for Inactive)
REMARK    1  A    between atoms: C_1  and  C_2
REMARK    2  A    between atoms: C_8  and  S_9
REMARK    3  A    between atoms: S_9  and  N_12
REMARK    4  A    between atoms: C_15  and  C_16
REMARK    5  A    between atoms: N_18  and  C_19
REMARK    6  A    between atoms: C_30  and  C_31
REMARK                            x       y       z     vdW  Elec       q    Type
REMARK                         _______ _______ _______ _____ _____    ______ ____
ROOT
ATOM      1  S   UNL     1       0.583   9.036  21.174  0.00  0.00    +0.000 S 
ATOM      2  O   UNL     1      -0.595   8.277  21.531  0.00  0.00    +0.000 OA
ATOM      3  O   UNL     1       1.460   9.574  22.197  0.00  0.00    +0.000 OA
ENDROOT
BRANCH   1  11
ATOM      4  C   UNL     1       5.159   4.229  16.048  0.00  0.00    +0.000 C 
ATOM      5  C   UNL     1       4.595   5.479  16.679  0.00  0.00    +0.000 C 
ATOM      6  O   UNL     1       4.751   6.553  16.095  0.00  0.00    +0.000 OA
ATOM      7  N   UNL     1       3.900   5.318  17.868  0.00  0.00    +0.000 N 
ATOM      8  C   UNL     1       3.185   6.357  18.521  0.00  0.00    +0.000 A 
ATOM      9  C   UNL     1       2.947   7.666  18.117  0.00  0.00    +0.000 A 
ATOM     10  C   UNL     1       2.147   8.496  18.927  0.00  0.00    +0.000 A 
ATOM     11  C   UNL     1       1.585   7.998  20.115  0.00  0.00    +0.000 A 
ATOM     12  C   UNL     1       1.875   6.704  20.541  0.00  0.00    +0.000 A 
ATOM     13  C   UNL     1       2.673   5.902  19.731  0.00  0.00    +0.000 A 
ATOM     14  C   UNL     1       3.090   4.503  20.024  0.00  0.00    +0.000 C 
ATOM     15  C   UNL     1       3.876   4.112  18.752  0.00  0.00    +0.000 C 
ATOM     16  C   UNL     1       3.235   2.866  18.141  0.00  0.00    +0.000 C 
ENDBRANCH   1  11
BRANCH   1  17
ATOM     17  N   UNL     1       0.089  10.338  20.160  0.00  0.00    +0.000 NA
ATOM     18  C   UNL     1      -1.062  10.031  19.279  0.00  0.00    +0.000 C 
ATOM     19  C   UNL     1      -1.322  11.162  18.289  0.00  0.00    +0.000 C 
ATOM     20  C   UNL     1      -1.512  12.503  19.000  0.00  0.00    +0.000 C 
ATOM     21  C   UNL     1      -0.253  12.790  19.823  0.00  0.00    +0.000 C 
ATOM     22  C   UNL     1       0.058  11.670  20.820  0.00  0.00    +0.000 C 
BRANCH  20  23
ATOM     23  C   UNL     1      -2.766  12.545  19.876  0.00  0.00    +0.000 C 
ATOM     24  O   UNL     1      -2.719  12.670  21.095  0.00  0.00    +0.000 OA
ATOM     25  N   UNL     1      -3.960  12.456  19.195  0.00  0.00    +0.000 N 
ATOM     26  H   UNL     1      -3.959  12.397  18.185  0.00  0.00    +0.000 HD
BRANCH  25  27
ATOM     27  C   UNL     1      -5.236  12.429  19.909  0.00  0.00    +0.000 C 
ATOM     28  C   UNL     1      -5.963  13.772  19.791  0.00  0.00    +0.000 C 
ATOM     29  C   UNL     1      -6.536  14.011  18.396  0.00  0.00    +0.000 C 
ATOM     30  C   UNL     1      -7.427  12.855  17.949  0.00  0.00    +0.000 C 
ATOM     31  C   UNL     1      -6.705  11.514  18.037  0.00  0.00    +0.000 C 
ATOM     32  C   UNL     1      -6.130  11.274  19.433  0.00  0.00    +0.000 C 
ENDBRANCH  25  27
ENDBRANCH  20  23
ENDBRANCH   1  17
TORSDOF 4
ENDMDL
MODEL 2
REMARK VINA RESULT:      -8.2      1.772      2.536
REMARK  Name = 
REMARK  6 active torsions:
REMARK  status: ('A' for Active; 'I' for Inactive)
REMARK    1  A    between atoms: C_1  and  C_2
REMARK    2  A    between atoms: C_8  and  S_9
REMARK    3  A    between atoms: S_9  and  N_12
REMARK    4  A    between atoms: C_15  and  C_16
REMARK    5  A    between atoms: N_18  and  C_19
REMARK    6  A    between atoms: C_30  and  C_31
REMARK                            x       y       z     vdW  Elec       q    Type
REMARK                         _______ _______ _______ _____ _____    ______ ____
ROOT
ATOM      1  S   UNL     1       0.606   8.990  21.279  0.00  0.00    +0.000 S 
ATOM      2  O   UNL     1      -0.613   8.255  21.539  0.00  0.00    +0.000 OA
ATOM      3  O   UNL     1       1.466   9.413  22.367  0.00  0.00    +0.000 OA
ENDROOT
BRANCH   1  11
ATOM      4  C   UNL     1       5.159   4.385  15.951  0.00  0.00    +0.000 C 
ATOM      5  C   UNL     1       4.599   5.609  16.634  0.00  0.00    +0.000 C 
ATOM      6  O   UNL     1       4.756   6.706  16.094  0.00  0.00    +0.000 OA
ATOM      7  N   UNL     1       3.905   5.402  17.817  0.00  0.00    +0.000 N 
ATOM      8  C   UNL     1       3.195   6.414  18.513  0.00  0.00    +0.000 A 
ATOM      9  C   UNL     1       2.960   7.739  18.164  0.00  0.00    +0.000 A 
ATOM     10  C   UNL     1       2.163   8.538  19.009  0.00  0.00    +0.000 A 
ATOM     11  C   UNL     1       1.603   7.993  20.177  0.00  0.00    +0.000 A 
ATOM     12  C   UNL     1       1.890   6.682  20.548  0.00  0.00    +0.000 A 
ATOM     13  C   UNL     1       2.684   5.912  19.705  0.00  0.00    +0.000 A 
ATOM     14  C   UNL     1       3.099   4.501  19.940  0.00  0.00    +0.000 C 
ATOM     15  C   UNL     1       3.881   4.160  18.651  0.00  0.00    +0.000 C 
ATOM     16  C   UNL     1       3.236   2.941  17.991  0.00  0.00    +0.000 C 
ENDBRANCH   1  11
BRANCH   1  17
ATOM     17  N   UNL     1       0.198  10.383  20.352  0.00  0.00    +0.000 NA
ATOM     18  C   UNL     1      -0.801  10.143  19.285  0.00  0.00    +0.000 C 
ATOM     19  C   UNL     1      -0.973  11.372  18.396  0.00  0.00    +0.000 C 
ATOM     20  C   UNL     1      -1.324  12.616  19.214  0.00  0.00    +0.000 C 
ATOM     21  C   UNL     1      -0.209  12.845  20.238  0.00  0.00    +0.000 C 
ATOM     22  C   UNL     1       0.011  11.629  21.141  0.00  0.00    +0.000 C 
BRANCH  20  23
ATOM     23  C   UNL     1      -2.690  12.518  19.898  0.00  0.00    +0.000 C 
ATOM     24  O   UNL     1      -3.656  11.974  19.373  0.00  0.00    +0.000 OA
ATOM     25  N   UNL     1      -2.756  13.067  21.159  0.00  0.00    +0.000 N 
ATOM     26  H   UNL     1      -1.926  13.470  21.575  0.00  0.00    +0.000 HD
BRANCH  25  27
ATOM     27  C   UNL     1      -4.012  13.093  21.907  0.00  0.00    +0.000 C 
ATOM     28  C   UNL     1      -3.794  12.687  23.368  0.00  0.00    +0.000 C 
ATOM     29  C   UNL     1      -3.075  13.765  24.176  0.00  0.00    +0.000 C 
ATOM     30  C   UNL     1      -3.783  15.113  24.073  0.00  0.00    +0.000 C 
ATOM     31  C   UNL     1      -3.984  15.539  22.623  0.00  0.00    +0.000 C 
ATOM     32  C   UNL     1      -4.703  14.462  21.811  0.00  0.00    +0.000 C 
ENDBRANCH  25  27
ENDBRANCH  20  23
ENDBRANCH   1  17
TORSDOF 4
ENDMDL
MODEL 3
REMARK VINA RESULT:      -8.2      0.958      1.158
REMARK  Name = 
REMARK  6 active torsions:
REMARK  status: ('A' for Active; 'I' for Inactive)
REMARK    1  A    between atoms: C_1  and  C_2
REMARK    2  A    between atoms: C_8  and  S_9
REMARK    3  A    between atoms: S_9  and  N_12
REMARK    4  A    between atoms: C_15  and  C_16
REMARK    5  A    between atoms: N_18  and  C_19
REMARK    6  A    between atoms: C_30  and  C_31
REMARK                            x       y       z     vdW  Elec       q    Type
REMARK                         _______ _______ _______ _____ _____    ______ ____
ROOT
ATOM      1  S   UNL     1       0.670   9.063  21.119  0.00  0.00    +0.000 S 
ATOM      2  O   UNL     1      -0.554   8.354  21.419  0.00  0.00    +0.000 OA
ATOM      3  O   UNL     1       1.539   9.530  22.182  0.00  0.00    +0.000 OA
ENDROOT
BRANCH   1  11
ATOM      4  C   UNL     1       5.158   4.154  16.011  0.00  0.00    +0.000 C 
ATOM      5  C   UNL     1       4.609   5.416  16.631  0.00  0.00    +0.000 C 
ATOM      6  O   UNL     1       4.765   6.481  16.030  0.00  0.00    +0.000 OA
ATOM      7  N   UNL     1       3.926   5.277  17.829  0.00  0.00    +0.000 N 
ATOM      8  C   UNL     1       3.225   6.329  18.476  0.00  0.00    +0.000 A 
ATOM      9  C   UNL     1       2.991   7.634  18.056  0.00  0.00    +0.000 A 
ATOM     10  C   UNL     1       2.205   8.481  18.863  0.00  0.00    +0.000 A 
ATOM     11  C   UNL     1       1.654   8.003  20.064  0.00  0.00    +0.000 A 
ATOM     12  C   UNL     1       1.940   6.713  20.504  0.00  0.00    +0.000 A 
ATOM     13  C   UNL     1       2.723   5.895  19.697  0.00  0.00    +0.000 A 
ATOM     14  C   UNL     1       3.135   4.497  20.006  0.00  0.00    +0.000 C 
ATOM     15  C   UNL     1       3.904   4.083  18.731  0.00  0.00    +0.000 C 
ATOM     16  C   UNL     1       3.248   2.832  18.144  0.00  0.00    +0.000 C 
ENDBRANCH   1  11
BRANCH   1  17
ATOM     17  N   UNL     1       0.273  10.413  20.126  0.00  0.00    +0.000 NA
ATOM     18  C   UNL     1      -1.127  10.431  19.641  0.00  0.00    +0.000 C 
ATOM     19  C   UNL     1      -1.351  11.549  18.627  0.00  0.00    +0.000 C 
ATOM     20  C   UNL     1      -0.941  12.912  19.189  0.00  0.00    +0.000 C 
ATOM     21  C   UNL     1       0.534  12.839  19.592  0.00  0.00    +0.000 C 
ATOM     22  C   UNL     1       0.809  11.717  20.596  0.00  0.00    +0.000 C 
BRANCH  20  23
ATOM     23  C   UNL     1      -1.813  13.362  20.364  0.00  0.00    +0.000 C 
ATOM     24  O   UNL     1      -1.361  13.558  21.488  0.00  0.00    +0.000 OA
ATOM     25  N   UNL     1      -3.144  13.554  20.067  0.00  0.00    +0.000 N 
ATOM     26  H   UNL     1      -3.471  13.422  19.118  0.00  0.00    +0.000 HD
BRANCH  25  27
ATOM     27  C   UNL     1      -4.102  13.932  21.105  0.00  0.00    +0.000 C 
ATOM     28  C   UNL     1      -5.082  14.992  20.593  0.00  0.00    +0.000 C 
ATOM     29  C   UNL     1      -6.096  14.427  19.602  0.00  0.00    +0.000 C 
ATOM     30  C   UNL     1      -6.833  13.220  20.177  0.00  0.00    +0.000 C 
ATOM     31  C   UNL     1      -5.868  12.146  20.667  0.00  0.00    +0.000 C 
ATOM     32  C   UNL     1      -4.851  12.710  21.659  0.00  0.00    +0.000 C 
ENDBRANCH  25  27
ENDBRANCH  20  23
ENDBRANCH   1  17
TORSDOF 4
ENDMDL
MODEL 4
REMARK VINA RESULT:      -8.2      1.193      1.423
REMARK  Name = 
REMARK  6 active torsions:
REMARK  status: ('A' for Active; 'I' for Inactive)
REMARK    1  A    between atoms: C_1  and  C_2
REMARK    2  A    between atoms: C_8  and  S_9
REMARK    3  A    between atoms: S_9  and  N_12
REMARK    4  A    between atoms: C_15  and  C_16
REMARK    5  A    between atoms: N_18  and  C_19
REMARK    6  A    between atoms: C_30  and  C_31
REMARK                            x       y       z     vdW  Elec       q    Type
REMARK                         _______ _______ _______ _____ _____    ______ ____
ROOT
ATOM      1  S   UNL     1       0.418   9.591  20.624  0.00  0.00    +0.000 S 
ATOM      2  O   UNL     1      -0.587   8.783  21.280  0.00  0.00    +0.000 OA
ATOM      3  O   UNL     1       1.273  10.479  21.388  0.00  0.00    +0.000 OA
ENDROOT
BRANCH   1  11
ATOM      4  C   UNL     1       5.326   4.414  16.216  0.00  0.00    +0.000 C 
ATOM      5  C   UNL     1       4.712   5.706  16.697  0.00  0.00    +0.000 C 
ATOM      6  O   UNL     1       4.882   6.723  16.022  0.00  0.00    +0.000 OA
ATOM      7  N   UNL     1       3.957   5.644  17.858  0.00  0.00    +0.000 N 
ATOM      8  C   UNL     1       3.194   6.725  18.373  0.00  0.00    +0.000 A 
ATOM      9  C   UNL     1       2.959   7.985  17.836  0.00  0.00    +0.000 A 
ATOM     10  C   UNL     1       2.105   8.872  18.521  0.00  0.00    +0.000 A 
ATOM     11  C   UNL     1       1.489   8.477  19.721  0.00  0.00    +0.000 A 
ATOM     12  C   UNL     1       1.775   7.234  20.281  0.00  0.00    +0.000 A 
ATOM     13  C   UNL     1       2.625   6.376  19.593  0.00  0.00    +0.000 A 
ATOM     14  C   UNL     1       3.047   5.019  20.038  0.00  0.00    +0.000 C 
ATOM     15  C   UNL     1       3.904   4.525  18.850  0.00  0.00    +0.000 C 
ATOM     16  C   UNL     1       3.315   3.215  18.328  0.00  0.00    +0.000 C 
ENDBRANCH   1  11
BRANCH   1  17
ATOM     17  N   UNL     1      -0.363  10.523  19.405  0.00  0.00    +0.000 NA
ATOM     18  C   UNL     1      -0.903   9.732  18.274  0.00  0.00    +0.000 C 
ATOM     19  C   UNL     1      -1.413  10.636  17.156  0.00  0.00    +0.000 C 
ATOM     20  C   UNL     1      -2.443  11.644  17.669  0.00  0.00    +0.000 C 
ATOM     21  C   UNL     1      -1.789  12.476  18.776  0.00  0.00    +0.000 C 
ATOM     22  C   UNL     1      -1.245  11.607  19.912  0.00  0.00    +0.000 C 
BRANCH  20  23
ATOM     23  C   UNL     1      -3.732  10.983  18.163  0.00  0.00    +0.000 C 
ATOM     24  O   UNL     1      -3.958   9.785  18.026  0.00  0.00    +0.000 OA
ATOM     25  N   UNL     1      -4.618  11.826  18.797  0.00  0.00    +0.000 N 
ATOM     26  H   UNL     1      -4.377  12.801  18.929  0.00  0.00    +0.000 HD
BRANCH  25  27
ATOM     27  C   UNL     1      -5.913  11.342  19.272  0.00  0.00    +0.000 C 
ATOM     28  C   UNL     1      -6.298  12.005  20.598  0.00  0.00    +0.000 C 
ATOM     29  C   UNL     1      -6.698  13.469  20.430  0.00  0.00    +0.000 C 
ATOM     30  C   UNL     1      -7.798  13.635  19.385  0.00  0.00    +0.000 C 
ATOM     31  C   UNL     1      -7.416  13.000  18.052  0.00  0.00    +0.000 C 
ATOM     32  C   UNL     1      -7.014  11.535  18.218  0.00  0.00    +0.000 C 
ENDBRANCH  25  27
ENDBRANCH  20  23
ENDBRANCH   1  17
TORSDOF 4
ENDMDL
MODEL 5
REMARK VINA RESULT:      -8.2      1.485      2.180
REMARK  Name = 
REMARK  6 active torsions:
REMARK  status: ('A' for Active; 'I' for Inactive)
REMARK    1  A    between atoms: C_1  and  C_2
REMARK    2  A    between atoms: C_8  and  S_9
REMARK    3  A    between atoms: S_9  and  N_12
REMARK    4  A    between atoms: C_15  and  C_16
REMARK    5  A    between atoms: N_18  and  C_19
REMARK    6  A    between atoms: C_30  and  C_31
REMARK                            x       y       z     vdW  Elec       q    Type
REMARK                         _______ _______ _______ _____ _____    ______ ____
ROOT
ATOM      1  S   UNL     1       0.535   9.584  20.256  0.00  0.00    +0.000 S 
ATOM      2  O   UNL     1      -0.403   8.751  20.976  0.00  0.00    +0.000 OA
ATOM      3  O   UNL     1       1.352  10.559  20.953  0.00  0.00    +0.000 OA
ENDROOT
BRANCH   1  11
ATOM      4  C   UNL     1       5.650   4.503  15.971  0.00  0.00    +0.000 C 
ATOM      5  C   UNL     1       4.976   5.780  16.414  0.00  0.00    +0.000 C 
ATOM      6  O   UNL     1       5.088   6.779  15.702  0.00  0.00    +0.000 OA
ATOM      7  N   UNL     1       4.238   5.722  17.587  0.00  0.00    +0.000 N 
ATOM      8  C   UNL     1       3.427   6.782  18.072  0.00  0.00    +0.000 A 
ATOM      9  C   UNL     1       3.123   8.009  17.494  0.00  0.00    +0.000 A 
ATOM     10  C   UNL     1       2.233   8.876  18.159  0.00  0.00    +0.000 A 
ATOM     11  C   UNL     1       1.651   8.494  19.379  0.00  0.00    +0.000 A 
ATOM     12  C   UNL     1       2.005   7.288  19.979  0.00  0.00    +0.000 A 
ATOM     13  C   UNL     1       2.891   6.449  19.311  0.00  0.00    +0.000 A 
ATOM     14  C   UNL     1       3.385   5.132  19.799  0.00  0.00    +0.000 C 
ATOM     15  C   UNL     1       4.253   4.639  18.618  0.00  0.00    +0.000 C 
ATOM     16  C   UNL     1       3.725   3.283  18.150  0.00  0.00    +0.000 C 
ENDBRANCH   1  11
BRANCH   1  17
ATOM     17  N   UNL     1      -0.329  10.407  19.015  0.00  0.00    +0.000 NA
ATOM     18  C   UNL     1      -1.406   9.611  18.381  0.00  0.00    +0.000 C 
ATOM     19  C   UNL     1      -2.001  10.336  17.177  0.00  0.00    +0.000 C 
ATOM     20  C   UNL     1      -2.491  11.737  17.547  0.00  0.00    +0.000 C 
ATOM     21  C   UNL     1      -1.308  12.523  18.117  0.00  0.00    +0.000 C 
ATOM     22  C   UNL     1      -0.668  11.823  19.318  0.00  0.00    +0.000 C 
BRANCH  20  23
ATOM     23  C   UNL     1      -3.667  11.721  18.526  0.00  0.00    +0.000 C 
ATOM     24  O   UNL     1      -4.546  10.865  18.493  0.00  0.00    +0.000 OA
ATOM     25  N   UNL     1      -3.660  12.725  19.468  0.00  0.00    +0.000 N 
ATOM     26  H   UNL     1      -2.896  13.388  19.489  0.00  0.00    +0.000 HD
BRANCH  25  27
ATOM     27  C   UNL     1      -4.750  12.863  20.432  0.00  0.00    +0.000 C 
ATOM     28  C   UNL     1      -4.242  12.701  21.868  0.00  0.00    +0.000 C 
ATOM     29  C   UNL     1      -3.422  13.899  22.342  0.00  0.00    +0.000 C 
ATOM     30  C   UNL     1      -4.188  15.208  22.168  0.00  0.00    +0.000 C 
ATOM     31  C   UNL     1      -4.678  15.394  20.736  0.00  0.00    +0.000 C 
ATOM     32  C   UNL     1      -5.498  14.195  20.259  0.00  0.00    +0.000 C 
ENDBRANCH  25  27
ENDBRANCH  20  23
ENDBRANCH   1  17
TORSDOF 4
ENDMDL
MODEL 6
REMARK VINA RESULT:      -8.1      1.699      2.182
REMARK  Name = 
REMARK  6 active torsions:
REMARK  status: ('A' for Active; 'I' for Inactive)
REMARK    1  A    between atoms: C_1  and  C_2
REMARK    2  A    between atoms: C_8  and  S_9
REMARK    3  A    between atoms: S_9  and  N_12
REMARK    4  A    between atoms: C_15  and  C_16
REMARK    5  A    between atoms: N_18  and  C_19
REMARK    6  A    between atoms: C_30  and  C_31
REMARK                            x       y       z     vdW  Elec       q    Type
REMARK                         _______ _______ _______ _____ _____    ______ ____
ROOT
ATOM      1  S   UNL     1       0.558   9.515  21.095  0.00  0.00    +0.000 S 
ATOM      2  O   UNL     1      -0.736   8.998  21.482  0.00  0.00    +0.000 OA
ATOM      3  O   UNL     1       1.472  10.049  22.086  0.00  0.00    +0.000 OA
ENDROOT
BRANCH   1  11
ATOM      4  C   UNL     1       4.493   3.413  16.898  0.00  0.00    +0.000 C 
ATOM      5  C   UNL     1       4.105   4.809  17.324  0.00  0.00    +0.000 C 
ATOM      6  O   UNL     1       4.431   5.753  16.602  0.00  0.00    +0.000 OA
ATOM      7  N   UNL     1       3.366   4.923  18.491  0.00  0.00    +0.000 N 
ATOM      8  C   UNL     1       2.797   6.136  18.961  0.00  0.00    +0.000 A 
ATOM      9  C   UNL     1       2.765   7.393  18.368  0.00  0.00    +0.000 A 
ATOM     10  C   UNL     1       2.077   8.438  19.017  0.00  0.00    +0.000 A 
ATOM     11  C   UNL     1       1.420   8.202  20.237  0.00  0.00    +0.000 A 
ATOM     12  C   UNL     1       1.506   6.955  20.852  0.00  0.00    +0.000 A 
ATOM     13  C   UNL     1       2.195   5.939  20.198  0.00  0.00    +0.000 A 
ATOM     14  C   UNL     1       2.395   4.552  20.703  0.00  0.00    +0.000 C 
ATOM     15  C   UNL     1       3.144   3.873  19.533  0.00  0.00    +0.000 C 
ATOM     16  C   UNL     1       2.341   2.655  19.075  0.00  0.00    +0.000 C 
ENDBRANCH   1  11
BRANCH   1  17
ATOM     17  N   UNL     1       0.309  10.725  19.895  0.00  0.00    +0.000 NA
ATOM     18  C   UNL     1      -1.113  11.016  19.598  0.00  0.00    +0.000 C 
ATOM     19  C   UNL     1      -1.252  11.957  18.405  0.00  0.00    +0.000 C 
ATOM     20  C   UNL     1      -0.453  13.246  18.607  0.00  0.00    +0.000 C 
ATOM     21  C   UNL     1       1.015  12.870  18.827  0.00  0.00    +0.000 C 
ATOM     22  C   UNL     1       1.200  11.910  20.004  0.00  0.00    +0.000 C 
BRANCH  20  23
ATOM     23  C   UNL     1      -0.982  14.104  19.759  0.00  0.00    +0.000 C 
ATOM     24  O   UNL     1      -0.280  14.913  20.359  0.00  0.00    +0.000 OA
ATOM     25  N   UNL     1      -2.313  13.922  20.064  0.00  0.00    +0.000 N 
ATOM     26  H   UNL     1      -2.869  13.276  19.518  0.00  0.00    +0.000 HD
BRANCH  25  27
ATOM     27  C   UNL     1      -2.937  14.636  21.176  0.00  0.00    +0.000 C 
ATOM     28  C   UNL     1      -4.399  14.972  20.867  0.00  0.00    +0.000 C 
ATOM     29  C   UNL     1      -5.305  13.744  20.903  0.00  0.00    +0.000 C 
ATOM     30  C   UNL     1      -5.176  12.988  22.223  0.00  0.00    +0.000 C 
ATOM     31  C   UNL     1      -3.727  12.626  22.530  0.00  0.00    +0.000 C 
ATOM     32  C   UNL     1      -2.817  13.853  22.493  0.00  0.00    +0.000 C 
ENDBRANCH  25  27
ENDBRANCH  20  23
ENDBRANCH   1  17
TORSDOF 4
ENDMDL
MODEL 7
REMARK VINA RESULT:      -8.1      1.007      1.808
REMARK  Name = 
REMARK  6 active torsions:
REMARK  status: ('A' for Active; 'I' for Inactive)
REMARK    1  A    between atoms: C_1  and  C_2
REMARK    2  A    between atoms: C_8  and  S_9
REMARK    3  A    between atoms: S_9  and  N_12
REMARK    4  A    between atoms: C_15  and  C_16
REMARK    5  A    between atoms: N_18  and  C_19
REMARK    6  A    between atoms: C_30  and  C_31
REMARK                            x       y       z     vdW  Elec       q    Type
REMARK                         _______ _______ _______ _____ _____    ______ ____
ROOT
ATOM      1  S   UNL     1       0.412   8.983  21.625  0.00  0.00    +0.000 S 
ATOM      2  O   UNL     1      -0.820   8.310  21.976  0.00  0.00    +0.000 OA
ATOM      3  O   UNL     1       1.305   9.482  22.653  0.00  0.00    +0.000 OA
ENDROOT
BRANCH   1  11
ATOM      4  C   UNL     1       4.943   3.638  17.018  0.00  0.00    +0.000 C 
ATOM      5  C   UNL     1       3.893   4.125  17.987  0.00  0.00    +0.000 C 
ATOM      6  O   UNL     1       3.339   3.300  18.716  0.00  0.00    +0.000 OA
ATOM      7  N   UNL     1       3.653   5.491  18.012  0.00  0.00    +0.000 N 
ATOM      8  C   UNL     1       2.808   6.135  18.954  0.00  0.00    +0.000 A 
ATOM      9  C   UNL     1       2.137   5.612  20.054  0.00  0.00    +0.000 A 
ATOM     10  C   UNL     1       1.399   6.481  20.881  0.00  0.00    +0.000 A 
ATOM     11  C   UNL     1       1.360   7.859  20.604  0.00  0.00    +0.000 A 
ATOM     12  C   UNL     1       1.987   8.365  19.469  0.00  0.00    +0.000 A 
ATOM     13  C   UNL     1       2.705   7.490  18.661  0.00  0.00    +0.000 A 
ATOM     14  C   UNL     1       3.431   7.848  17.412  0.00  0.00    +0.000 C 
ATOM     15  C   UNL     1       4.094   6.511  17.011  0.00  0.00    +0.000 C 
ATOM     16  C   UNL     1       5.605   6.719  16.911  0.00  0.00    +0.000 C 
ENDBRANCH   1  11
BRANCH   1  17
ATOM     17  N   UNL     1       0.022  10.293  20.578  0.00  0.00    +0.000 NA
ATOM     18  C   UNL     1      -1.078  10.015  19.625  0.00  0.00    +0.000 C 
ATOM     19  C   UNL     1      -1.242  11.149  18.617  0.00  0.00    +0.000 C 
ATOM     20  C   UNL     1      -1.437  12.498  19.310  0.00  0.00    +0.000 C 
ATOM     21  C   UNL     1      -0.226  12.752  20.213  0.00  0.00    +0.000 C 
ATOM     22  C   UNL     1      -0.013  11.629  21.230  0.00  0.00    +0.000 C 
BRANCH  20  23
ATOM     23  C   UNL     1      -2.744  12.580  20.103  0.00  0.00    +0.000 C 
ATOM     24  O   UNL     1      -2.772  12.700  21.324  0.00  0.00    +0.000 OA
ATOM     25  N   UNL     1      -3.893  12.533  19.346  0.00  0.00    +0.000 N 
ATOM     26  H   UNL     1      -3.829  12.476  18.338  0.00  0.00    +0.000 HD
BRANCH  25  27
ATOM     27  C   UNL     1      -5.213  12.547  19.976  0.00  0.00    +0.000 C 
ATOM     28  C   UNL     1      -5.979  13.826  19.623  0.00  0.00    +0.000 C 
ATOM     29  C   UNL     1      -6.464  13.841  18.176  0.00  0.00    +0.000 C 
ATOM     30  C   UNL     1      -7.280  12.595  17.842  0.00  0.00    +0.000 C 
ATOM     31  C   UNL     1      -6.517  11.314  18.165  0.00  0.00    +0.000 C 
ATOM     32  C   UNL     1      -6.030  11.297  19.614  0.00  0.00    +0.000 C 
ENDBRANCH  25  27
ENDBRANCH  20  23
ENDBRANCH   1  17
TORSDOF 4
ENDMDL
MODEL 8
REMARK VINA RESULT:      -7.8      2.029      3.092
REMARK  Name = 
REMARK  6 active torsions:
REMARK  status: ('A' for Active; 'I' for Inactive)
REMARK    1  A    between atoms: C_1  and  C_2
REMARK    2  A    between atoms: C_8  and  S_9
REMARK    3  A    between atoms: S_9  and  N_12
REMARK    4  A    between atoms: C_15  and  C_16
REMARK    5  A    between atoms: N_18  and  C_19
REMARK    6  A    between atoms: C_30  and  C_31
REMARK                            x       y       z     vdW  Elec       q    Type
REMARK                         _______ _______ _______ _____ _____    ______ ____
ROOT
ATOM      1  S   UNL     1       0.492   8.848  21.622  0.00  0.00    +0.000 S 
ATOM      2  O   UNL     1      -0.773   8.205  21.905  0.00  0.00    +0.000 OA
ATOM      3  O   UNL     1       1.369   9.270  22.697  0.00  0.00    +0.000 OA
ENDROOT
BRANCH   1  11
ATOM      4  C   UNL     1       4.988   3.555  16.922  0.00  0.00    +0.000 C 
ATOM      5  C   UNL     1       3.938   4.032  17.896  0.00  0.00    +0.000 C 
ATOM      6  O   UNL     1       3.374   3.197  18.605  0.00  0.00    +0.000 OA
ATOM      7  N   UNL     1       3.712   5.399  17.949  0.00  0.00    +0.000 N 
ATOM      8  C   UNL     1       2.871   6.032  18.902  0.00  0.00    +0.000 A 
ATOM      9  C   UNL     1       2.190   5.493  19.987  0.00  0.00    +0.000 A 
ATOM     10  C   UNL     1       1.456   6.353  20.830  0.00  0.00    +0.000 A 
ATOM     11  C   UNL     1       1.432   7.736  20.582  0.00  0.00    +0.000 A 
ATOM     12  C   UNL     1       2.070   8.260  19.460  0.00  0.00    +0.000 A 
ATOM     13  C   UNL     1       2.782   7.394  18.637  0.00  0.00    +0.000 A 
ATOM     14  C   UNL     1       3.517   7.772  17.398  0.00  0.00    +0.000 C 
ATOM     15  C   UNL     1       4.168   6.436  16.972  0.00  0.00    +0.000 C 
ATOM     16  C   UNL     1       5.682   6.630  16.883  0.00  0.00    +0.000 C 
ENDBRANCH   1  11
BRANCH   1  17
ATOM     17  N   UNL     1       0.180  10.215  20.622  0.00  0.00    +0.000 NA
ATOM     18  C   UNL     1      -0.775   9.966  19.518  0.00  0.00    +0.000 C 
ATOM     19  C   UNL     1      -0.860  11.163  18.574  0.00  0.00    +0.000 C 
ATOM     20  C   UNL     1      -1.203  12.451  19.324  0.00  0.00    +0.000 C 
ATOM     21  C   UNL     1      -0.131  12.683  20.392  0.00  0.00    +0.000 C 
ATOM     22  C   UNL     1       0.002  11.498  21.352  0.00  0.00    +0.000 C 
BRANCH  20  23
ATOM     23  C   UNL     1      -2.603  12.429  19.943  0.00  0.00    +0.000 C 
ATOM     24  O   UNL     1      -3.591  12.032  19.333  0.00  0.00    +0.000 OA
ATOM     25  N   UNL     1      -2.675  12.866  21.247  0.00  0.00    +0.000 N 
ATOM     26  H   UNL     1      -1.831  13.146  21.730  0.00  0.00    +0.000 HD
BRANCH  25  27
ATOM     27  C   UNL     1      -3.957  12.950  21.945  0.00  0.00    +0.000 C 
ATOM     28  C   UNL     1      -3.796  12.634  23.435  0.00  0.00    +0.000 C 
ATOM     29  C   UNL     1      -3.094  13.753  24.201  0.00  0.00    +0.000 C 
ATOM     30  C   UNL     1      -3.783  15.098  23.990  0.00  0.00    +0.000 C 
ATOM     31  C   UNL     1      -3.927  15.436  22.509  0.00  0.00    +0.000 C 
ATOM     32  C   UNL     1      -4.628  14.317  21.740  0.00  0.00    +0.000 C 
ENDBRANCH  25  27
ENDBRANCH  20  23
ENDBRANCH   1  17
TORSDOF 4
ENDMDL
MODEL 9
REMARK VINA RESULT:      -7.8      2.291      2.878
REMARK  Name = 
REMARK  6 active torsions:
REMARK  status: ('A' for Active; 'I' for Inactive)
REMARK    1  A    between atoms: C_1  and  C_2
REMARK    2  A    between atoms: C_8  and  S_9
REMARK    3  A    between atoms: S_9  and  N_12
REMARK    4  A    between atoms: C_15  and  C_16
REMARK    5  A    between atoms: N_18  and  C_19
REMARK    6  A    between atoms: C_30  and  C_31
REMARK                            x       y       z     vdW  Elec       q    Type
REMARK                         _______ _______ _______ _____ _____    ______ ____
ROOT
ATOM      1  S   UNL     1       0.592   9.794  20.536  0.00  0.00    +0.000 S 
ATOM      2  O   UNL     1      -0.712   9.194  20.718  0.00  0.00    +0.000 OA
ATOM      3  O   UNL     1       1.372  10.239  21.675  0.00  0.00    +0.000 OA
ENDROOT
BRANCH   1  11
ATOM      4  C   UNL     1       5.192   4.321  16.152  0.00  0.00    +0.000 C 
ATOM      5  C   UNL     1       4.643   5.649  16.617  0.00  0.00    +0.000 C 
ATOM      6  O   UNL     1       4.847   6.644  15.920  0.00  0.00    +0.000 OA
ATOM      7  N   UNL     1       3.907   5.642  17.792  0.00  0.00    +0.000 N 
ATOM      8  C   UNL     1       3.201   6.765  18.297  0.00  0.00    +0.000 A 
ATOM      9  C   UNL     1       3.012   8.025  17.739  0.00  0.00    +0.000 A 
ATOM     10  C   UNL     1       2.210   8.961  18.421  0.00  0.00    +0.000 A 
ATOM     11  C   UNL     1       1.598   8.616  19.638  0.00  0.00    +0.000 A 
ATOM     12  C   UNL     1       1.838   7.374  20.218  0.00  0.00    +0.000 A 
ATOM     13  C   UNL     1       2.638   6.465  19.533  0.00  0.00    +0.000 A 
ATOM     14  C   UNL     1       3.008   5.100  19.998  0.00  0.00    +0.000 C 
ATOM     15  C   UNL     1       3.822   4.546  18.807  0.00  0.00    +0.000 C 
ATOM     16  C   UNL     1       3.167   3.253  18.320  0.00  0.00    +0.000 C 
ENDBRANCH   1  11
BRANCH   1  17
ATOM     17  N   UNL     1       0.418  11.125  19.458  0.00  0.00    +0.000 NA
ATOM     18  C   UNL     1      -0.984  11.499  19.161  0.00  0.00    +0.000 C 
ATOM     19  C   UNL     1      -1.058  12.559  18.066  0.00  0.00    +0.000 C 
ATOM     20  C   UNL     1      -0.219  13.790  18.413  0.00  0.00    +0.000 C 
ATOM     21  C   UNL     1       1.229  13.337  18.626  0.00  0.00    +0.000 C 
ATOM     22  C   UNL     1       1.349  12.258  19.705  0.00  0.00    +0.000 C 
BRANCH  20  23
ATOM     23  C   UNL     1      -0.745  14.549  19.634  0.00  0.00    +0.000 C 
ATOM     24  O   UNL     1      -0.673  15.770  19.736  0.00  0.00    +0.000 OA
ATOM     25  N   UNL     1      -1.328  13.766  20.605  0.00  0.00    +0.000 N 
ATOM     26  H   UNL     1      -1.406  12.767  20.465  0.00  0.00    +0.000 HD
BRANCH  25  27
ATOM     27  C   UNL     1      -1.825  14.353  21.849  0.00  0.00    +0.000 C 
ATOM     28  C   UNL     1      -3.353  14.272  21.926  0.00  0.00    +0.000 C 
ATOM     29  C   UNL     1      -3.855  12.852  22.176  0.00  0.00    +0.000 C 
ATOM     30  C   UNL     1      -3.203  12.234  23.410  0.00  0.00    +0.000 C 
ATOM     31  C   UNL     1      -1.680  12.286  23.334  0.00  0.00    +0.000 C 
ATOM     32  C   UNL     1      -1.175  13.706  23.082  0.00  0.00    +0.000 C 
ENDBRANCH  25  27
ENDBRANCH  20  23
ENDBRANCH   1  17
TORSDOF 4
ENDMDL
