MODEL 1
REMARK VINA RESULT:      -7.9      0.000      0.000
REMARK  Name = 
REMARK  8 active torsions:
REMARK  status: ('A' for Active; 'I' for Inactive)
REMARK    1  A    between atoms: C_1  and  C_2
REMARK    2  A    between atoms: C_6  and  C_7
REMARK    3  A    between atoms: C_7  and  C_8
REMARK    4  A    between atoms: C_8  and  C_9
REMARK    5  A    between atoms: C_9  and  C_10
REMARK    6  A    between atoms: C_10  and  N_11
REMARK    7  A    between atoms: N_27  and  N_28
REMARK    8  A    between atoms: C_32  and  C_33
REMARK                            x       y       z     vdW  Elec       q    Type
REMARK                         _______ _______ _______ _____ _____    ______ ____
ROOT
ATOM      1  C   UNL     1       2.223  10.941  18.185  0.00  0.00    +0.000 C 
ENDROOT
BRANCH   1   2
ATOM      2  C   UNL     1       1.956   9.501  17.898  0.00  0.00    +0.000 C 
BRANCH   2   3
ATOM      3  C   UNL     1       3.095   8.643  17.410  0.00  0.00    +0.000 C 
BRANCH   3   9
ATOM      4  C   UNL     1       1.999   2.330  21.687  0.00  0.00    +0.000 C 
ATOM      5  C   UNL     1       2.269   3.520  20.792  0.00  0.00    +0.000 A 
ATOM      6  S   UNL     1       1.579   5.099  20.938  0.00  0.00    +0.000 S 
ATOM      7  C   UNL     1       2.414   5.703  19.536  0.00  0.00    +0.000 A 
ATOM      8  N   UNL     1       2.370   6.988  19.052  0.00  0.00    +0.000 NA
ATOM      9  C   UNL     1       3.121   7.222  17.991  0.00  0.00    +0.000 A 
ATOM     10  N   UNL     1       3.897   6.241  17.328  0.00  0.00    +0.000 N 
ATOM     11  C   UNL     1       3.952   4.958  17.809  0.00  0.00    +0.000 A 
ATOM     12  O   UNL     1       4.730   4.137  17.332  0.00  0.00    +0.000 OA
ATOM     13  C   UNL     1       3.164   4.692  18.983  0.00  0.00    +0.000 A 
ATOM     14  C   UNL     1       3.131   3.469  19.715  0.00  0.00    +0.000 A 
ATOM     15  C   UNL     1       3.931   2.260  19.363  0.00  0.00    +0.000 C 
BRANCH  10  16
ATOM     16  N   UNL     1       5.059   6.425  16.463  0.00  0.00    +0.000 N 
ATOM     17  H   UNL     1       5.961   6.086  16.767  0.00  0.00    +0.000 HD
ATOM     18  H   UNL     1       5.174   7.451  16.350  0.00  0.00    +0.000 HD
ENDBRANCH  10  16
ENDBRANCH   3   9
ENDBRANCH   2   3
ENDBRANCH   1   2
BRANCH   1  19
ATOM     19  C   UNL     1       0.952  11.517  18.818  0.00  0.00    +0.000 C 
BRANCH  19  20
ATOM     20  N   UNL     1       0.238  10.564  19.669  0.00  0.00    +0.000 NA
ATOM     21  C   UNL     1       0.273  10.905  21.119  0.00  0.00    +0.000 C 
ATOM     22  C   UNL     1      -0.462  12.228  21.475  0.00  0.00    +0.000 C 
ATOM     23  N   UNL     1      -1.853  12.099  20.998  0.00  0.00    +0.000 N 
ATOM     24  C   UNL     1      -2.972  12.395  21.768  0.00  0.00    +0.000 A 
ATOM     25  C   UNL     1      -2.846  12.210  23.127  0.00  0.00    +0.000 A 
ATOM     26  C   UNL     1      -3.920  12.519  23.928  0.00  0.00    +0.000 A 
ATOM     27  C   UNL     1      -5.111  13.018  23.411  0.00  0.00    +0.000 A 
ATOM     28  C   UNL     1      -6.098  13.284  24.332  0.00  0.00    +0.000 A 
ATOM     29  C   UNL     1      -7.392  13.571  23.853  0.00  0.00    +0.000 A 
ATOM     30  C   UNL     1      -7.859  14.115  22.666  0.00  0.00    +0.000 A 
ATOM     31  C   UNL     1      -6.729  13.848  21.816  0.00  0.00    +0.000 A 
ATOM     32  C   UNL     1      -5.306  13.252  22.061  0.00  0.00    +0.000 A 
ATOM     33  N   UNL     1      -4.173  12.899  21.237  0.00  0.00    +0.000 NA
ATOM     34  C   UNL     1      -1.971  11.836  19.566  0.00  0.00    +0.000 C 
ATOM     35  C   UNL     1      -1.190  10.534  19.239  0.00  0.00    +0.000 C 
ENDBRANCH  19  20
ENDBRANCH   1  19
TORSDOF 6
ENDMDL
MODEL 2
REMARK VINA RESULT:      -7.6      7.797      9.572
REMARK  Name = 
REMARK  8 active torsions:
REMARK  status: ('A' for Active; 'I' for Inactive)
REMARK    1  A    between atoms: C_1  and  C_2
REMARK    2  A    between atoms: C_6  and  C_7
REMARK    3  A    between atoms: C_7  and  C_8
REMARK    4  A    between atoms: C_8  and  C_9
REMARK    5  A    between atoms: C_9  and  C_10
REMARK    6  A    between atoms: C_10  and  N_11
REMARK    7  A    between atoms: N_27  and  N_28
REMARK    8  A    between atoms: C_32  and  C_33
REMARK                            x       y       z     vdW  Elec       q    Type
REMARK                         _______ _______ _______ _____ _____    ______ ____
ROOT
ATOM      1  C   UNL     1       8.679   9.310  18.563  0.00  0.00    +0.000 C 
ENDROOT
BRANCH   1   2
ATOM      2  C   UNL     1       7.540   8.744  17.781  0.00  0.00    +0.000 C 
BRANCH   2   3
ATOM      3  C   UNL     1       7.719   7.400  17.123  0.00  0.00    +0.000 C 
BRANCH   3   9
ATOM      4  C   UNL     1       1.224   3.901  19.337  0.00  0.00    +0.000 C 
ATOM      5  C   UNL     1       2.510   4.523  18.838  0.00  0.00    +0.000 A 
ATOM      6  S   UNL     1       3.233   5.989  19.400  0.00  0.00    +0.000 S 
ATOM      7  C   UNL     1       4.555   5.886  18.274  0.00  0.00    +0.000 A 
ATOM      8  N   UNL     1       5.615   6.756  18.180  0.00  0.00    +0.000 NA
ATOM      9  C   UNL     1       6.522   6.450  17.269  0.00  0.00    +0.000 A 
ATOM     10  N   UNL     1       6.432   5.345  16.390  0.00  0.00    +0.000 N 
ATOM     11  C   UNL     1       5.381   4.469  16.482  0.00  0.00    +0.000 A 
ATOM     12  O   UNL     1       5.363   3.431  15.827  0.00  0.00    +0.000 OA
ATOM     13  C   UNL     1       4.399   4.768  17.490  0.00  0.00    +0.000 A 
ATOM     14  C   UNL     1       3.274   3.961  17.835  0.00  0.00    +0.000 A 
ATOM     15  C   UNL     1       2.948   2.658  17.188  0.00  0.00    +0.000 C 
BRANCH  10  16
ATOM     16  N   UNL     1       7.502   4.657  15.672  0.00  0.00    +0.000 N 
ATOM     17  H   UNL     1       7.295   4.200  14.795  0.00  0.00    +0.000 HD
ATOM     18  H   UNL     1       7.834   3.903  16.305  0.00  0.00    +0.000 HD
ENDBRANCH  10  16
ENDBRANCH   3   9
ENDBRANCH   2   3
ENDBRANCH   1   2
BRANCH   1  19
ATOM     19  C   UNL     1       8.918  10.731  18.044  0.00  0.00    +0.000 C 
BRANCH  19  20
ATOM     20  N   UNL     1      10.084  11.385  18.639  0.00  0.00    +0.000 NA
ATOM     21  C   UNL     1       9.986  12.871  18.686  0.00  0.00    +0.000 C 
ATOM     22  C   UNL     1       8.849  13.399  19.605  0.00  0.00    +0.000 C 
ATOM     23  N   UNL     1       9.079  12.845  20.953  0.00  0.00    +0.000 N 
ATOM     24  C   UNL     1       9.066  13.600  22.120  0.00  0.00    +0.000 A 
ATOM     25  C   UNL     1       9.454  14.916  22.002  0.00  0.00    +0.000 A 
ATOM     26  C   UNL     1       9.426  15.705  23.128  0.00  0.00    +0.000 A 
ATOM     27  C   UNL     1       9.011  15.221  24.363  0.00  0.00    +0.000 A 
ATOM     28  C   UNL     1       9.033  16.126  25.399  0.00  0.00    +0.000 A 
ATOM     29  C   UNL     1       8.845  15.640  26.709  0.00  0.00    +0.000 A 
ATOM     30  C   UNL     1       8.179  14.536  27.218  0.00  0.00    +0.000 A 
ATOM     31  C   UNL     1       8.150  13.707  26.042  0.00  0.00    +0.000 A 
ATOM     32  C   UNL     1       8.585  13.919  24.557  0.00  0.00    +0.000 A 
ATOM     33  N   UNL     1       8.645  13.102  23.366  0.00  0.00    +0.000 NA
ATOM     34  C   UNL     1       9.115  11.385  20.999  0.00  0.00    +0.000 C 
ATOM     35  C   UNL     1      10.232  10.890  20.039  0.00  0.00    +0.000 C 
ENDBRANCH  19  20
ENDBRANCH   1  19
TORSDOF 6
ENDMDL
MODEL 3
REMARK VINA RESULT:      -7.2      4.012     10.227
REMARK  Name = 
REMARK  8 active torsions:
REMARK  status: ('A' for Active; 'I' for Inactive)
REMARK    1  A    between atoms: C_1  and  C_2
REMARK    2  A    between atoms: C_6  and  C_7
REMARK    3  A    between atoms: C_7  and  C_8
REMARK    4  A    between atoms: C_8  and  C_9
REMARK    5  A    between atoms: C_9  and  C_10
REMARK    6  A    between atoms: C_10  and  N_11
REMARK    7  A    between atoms: N_27  and  N_28
REMARK    8  A    between atoms: C_32  and  C_33
REMARK                            x       y       z     vdW  Elec       q    Type
REMARK                         _______ _______ _______ _____ _____    ______ ____
ROOT
ATOM      1  C   UNL     1      -2.128  12.239  22.922  0.00  0.00    +0.000 C 
ENDROOT
BRANCH   1   2
ATOM      2  C   UNL     1      -1.406  13.528  23.137  0.00  0.00    +0.000 C 
BRANCH   2   3
ATOM      3  C   UNL     1      -1.660  14.661  22.176  0.00  0.00    +0.000 C 
BRANCH   3   9
ATOM      4  C   UNL     1       5.216  15.194  18.742  0.00  0.00    +0.000 C 
ATOM      5  C   UNL     1       3.828  15.132  19.344  0.00  0.00    +0.000 A 
ATOM      6  S   UNL     1       3.381  14.367  20.828  0.00  0.00    +0.000 S 
ATOM      7  C   UNL     1       1.699  14.777  20.649  0.00  0.00    +0.000 A 
ATOM      8  N   UNL     1       0.694  14.506  21.545  0.00  0.00    +0.000 NA
ATOM      9  C   UNL     1      -0.504  14.951  21.208  0.00  0.00    +0.000 A 
ATOM     10  N   UNL     1      -0.796  15.621  19.996  0.00  0.00    +0.000 N 
ATOM     11  C   UNL     1       0.203  15.902  19.100  0.00  0.00    +0.000 A 
ATOM     12  O   UNL     1      -0.008  16.607  18.117  0.00  0.00    +0.000 OA
ATOM     13  C   UNL     1       1.520  15.452  19.465  0.00  0.00    +0.000 A 
ATOM     14  C   UNL     1       2.725  15.705  18.745  0.00  0.00    +0.000 A 
ATOM     15  C   UNL     1       2.796  16.494  17.482  0.00  0.00    +0.000 C 
BRANCH  10  16
ATOM     16  N   UNL     1      -1.909  16.516  19.691  0.00  0.00    +0.000 N 
ATOM     17  H   UNL     1      -2.336  17.048  20.437  0.00  0.00    +0.000 HD
ATOM     18  H   UNL     1      -2.667  15.913  19.314  0.00  0.00    +0.000 HD
ENDBRANCH  10  16
ENDBRANCH   3   9
ENDBRANCH   2   3
ENDBRANCH   1   2
BRANCH   1  19
ATOM     19  C   UNL     1      -1.271  11.397  21.972  0.00  0.00    +0.000 C 
BRANCH  19  20
ATOM     20  N   UNL     1      -0.130  10.755  22.624  0.00  0.00    +0.000 NA
ATOM     21  C   UNL     1      -0.301   9.291  22.840  0.00  0.00    +0.000 C 
ATOM     22  C   UNL     1      -0.393   8.466  21.526  0.00  0.00    +0.000 C 
ATOM     23  N   UNL     1       0.829   8.743  20.746  0.00  0.00    +0.000 N 
ATOM     24  C   UNL     1       1.630   7.760  20.175  0.00  0.00    +0.000 A 
ATOM     25  C   UNL     1       1.664   6.545  20.825  0.00  0.00    +0.000 A 
ATOM     26  C   UNL     1       2.421   5.537  20.276  0.00  0.00    +0.000 A 
ATOM     27  C   UNL     1       3.133   5.702  19.093  0.00  0.00    +0.000 A 
ATOM     28  C   UNL     1       3.844   4.606  18.664  0.00  0.00    +0.000 A 
ATOM     29  C   UNL     1       4.759   4.781  17.606  0.00  0.00    +0.000 A 
ATOM     30  C   UNL     1       4.819   5.677  16.551  0.00  0.00    +0.000 A 
ATOM     31  C   UNL     1       3.992   6.730  17.079  0.00  0.00    +0.000 A 
ATOM     32  C   UNL     1       3.130   6.884  18.372  0.00  0.00    +0.000 A 
ATOM     33  N   UNL     1       2.347   7.936  18.979  0.00  0.00    +0.000 NA
ATOM     34  C   UNL     1       1.028  10.155  20.431  0.00  0.00    +0.000 C 
ATOM     35  C   UNL     1       1.072  10.955  21.762  0.00  0.00    +0.000 C 
ENDBRANCH  19  20
ENDBRANCH   1  19
TORSDOF 6
ENDMDL
MODEL 4
REMARK VINA RESULT:      -7.1      1.911      3.136
REMARK  Name = 
REMARK  8 active torsions:
REMARK  status: ('A' for Active; 'I' for Inactive)
REMARK    1  A    between atoms: C_1  and  C_2
REMARK    2  A    between atoms: C_6  and  C_7
REMARK    3  A    between atoms: C_7  and  C_8
REMARK    4  A    between atoms: C_8  and  C_9
REMARK    5  A    between atoms: C_9  and  C_10
REMARK    6  A    between atoms: C_10  and  N_11
REMARK    7  A    between atoms: N_27  and  N_28
REMARK    8  A    between atoms: C_32  and  C_33
REMARK                            x       y       z     vdW  Elec       q    Type
REMARK                         _______ _______ _______ _____ _____    ______ ____
ROOT
ATOM      1  C   UNL     1       1.403  10.289  19.003  0.00  0.00    +0.000 C 
ENDROOT
BRANCH   1   2
ATOM      2  C   UNL     1       0.991   8.866  19.186  0.00  0.00    +0.000 C 
BRANCH   2   3
ATOM      3  C   UNL     1       1.885   7.959  19.992  0.00  0.00    +0.000 C 
BRANCH   3   9
ATOM      4  C   UNL     1       6.110   4.255  14.722  0.00  0.00    +0.000 C 
ATOM      5  C   UNL     1       5.268   4.902  15.800  0.00  0.00    +0.000 A 
ATOM      6  S   UNL     1       4.923   6.588  15.968  0.00  0.00    +0.000 S 
ATOM      7  C   UNL     1       3.984   6.354  17.414  0.00  0.00    +0.000 A 
ATOM      8  N   UNL     1       3.318   7.327  18.119  0.00  0.00    +0.000 NA
ATOM      9  C   UNL     1       2.637   6.903  19.168  0.00  0.00    +0.000 A 
ATOM     10  N   UNL     1       2.603   5.559  19.610  0.00  0.00    +0.000 N 
ATOM     11  C   UNL     1       3.259   4.581  18.908  0.00  0.00    +0.000 A 
ATOM     12  O   UNL     1       3.121   3.396  19.195  0.00  0.00    +0.000 OA
ATOM     13  C   UNL     1       3.982   5.020  17.743  0.00  0.00    +0.000 A 
ATOM     14  C   UNL     1       4.659   4.182  16.809  0.00  0.00    +0.000 A 
ATOM     15  C   UNL     1       4.716   2.695  16.904  0.00  0.00    +0.000 C 
BRANCH  10  16
ATOM     16  N   UNL     1       1.601   4.893  20.438  0.00  0.00    +0.000 N 
ATOM     17  H   UNL     1       1.751   4.821  21.435  0.00  0.00    +0.000 HD
ATOM     18  H   UNL     1       1.550   3.913  20.096  0.00  0.00    +0.000 HD
ENDBRANCH  10  16
ENDBRANCH   3   9
ENDBRANCH   2   3
ENDBRANCH   1   2
BRANCH   1  19
ATOM     19  C   UNL     1       1.130  11.010  20.327  0.00  0.00    +0.000 C 
BRANCH  19  20
ATOM     20  N   UNL     1       0.638  12.377  20.160  0.00  0.00    +0.000 NA
ATOM     21  C   UNL     1      -0.471  12.504  19.173  0.00  0.00    +0.000 C 
ATOM     22  C   UNL     1      -1.775  11.769  19.590  0.00  0.00    +0.000 C 
ATOM     23  N   UNL     1      -2.179  12.302  20.906  0.00  0.00    +0.000 N 
ATOM     24  C   UNL     1      -3.465  12.733  21.211  0.00  0.00    +0.000 A 
ATOM     25  C   UNL     1      -4.201  13.249  20.167  0.00  0.00    +0.000 A 
ATOM     26  C   UNL     1      -5.489  13.660  20.422  0.00  0.00    +0.000 A 
ATOM     27  C   UNL     1      -6.065  13.559  21.683  0.00  0.00    +0.000 A 
ATOM     28  C   UNL     1      -7.361  14.007  21.787  0.00  0.00    +0.000 A 
ATOM     29  C   UNL     1      -7.915  14.143  23.076  0.00  0.00    +0.000 A 
ATOM     30  C   UNL     1      -7.662  13.507  24.282  0.00  0.00    +0.000 A 
ATOM     31  C   UNL     1      -6.331  13.023  24.027  0.00  0.00    +0.000 A 
ATOM     32  C   UNL     1      -5.397  13.032  22.775  0.00  0.00    +0.000 A 
ATOM     33  N   UNL     1      -4.039  12.628  22.490  0.00  0.00    +0.000 NA
ATOM     34  C   UNL     1      -1.168  12.147  21.948  0.00  0.00    +0.000 C 
ATOM     35  C   UNL     1       0.134  12.856  21.480  0.00  0.00    +0.000 C 
ENDBRANCH  19  20
ENDBRANCH   1  19
TORSDOF 6
ENDMDL
MODEL 5
REMARK VINA RESULT:      -7.1      1.219      1.504
REMARK  Name = 
REMARK  8 active torsions:
REMARK  status: ('A' for Active; 'I' for Inactive)
REMARK    1  A    between atoms: C_1  and  C_2
REMARK    2  A    between atoms: C_6  and  C_7
REMARK    3  A    between atoms: C_7  and  C_8
REMARK    4  A    between atoms: C_8  and  C_9
REMARK    5  A    between atoms: C_9  and  C_10
REMARK    6  A    between atoms: C_10  and  N_11
REMARK    7  A    between atoms: N_27  and  N_28
REMARK    8  A    between atoms: C_32  and  C_33
REMARK                            x       y       z     vdW  Elec       q    Type
REMARK                         _______ _______ _______ _____ _____    ______ ____
ROOT
ATOM      1  C   UNL     1       0.949  10.043  19.162  0.00  0.00    +0.000 C 
ENDROOT
BRANCH   1   2
ATOM      2  C   UNL     1       1.295   9.415  17.853  0.00  0.00    +0.000 C 
BRANCH   2   3
ATOM      3  C   UNL     1       2.688   8.872  17.663  0.00  0.00    +0.000 C 
BRANCH   3   9
ATOM      4  C   UNL     1       2.427   2.256  21.600  0.00  0.00    +0.000 C 
ATOM      5  C   UNL     1       2.536   3.515  20.768  0.00  0.00    +0.000 A 
ATOM      6  S   UNL     1       1.684   4.998  21.022  0.00  0.00    +0.000 S 
ATOM      7  C   UNL     1       2.401   5.765  19.635  0.00  0.00    +0.000 A 
ATOM      8  N   UNL     1       2.202   7.061  19.227  0.00  0.00    +0.000 NA
ATOM      9  C   UNL     1       2.888   7.434  18.161  0.00  0.00    +0.000 A 
ATOM     10  N   UNL     1       3.743   6.581  17.422  0.00  0.00    +0.000 N 
ATOM     11  C   UNL     1       3.953   5.288  17.828  0.00  0.00    +0.000 A 
ATOM     12  O   UNL     1       4.799   4.585  17.284  0.00  0.00    +0.000 OA
ATOM     13  C   UNL     1       3.238   4.874  19.005  0.00  0.00    +0.000 A 
ATOM     14  C   UNL     1       3.363   3.617  19.667  0.00  0.00    +0.000 A 
ATOM     15  C   UNL     1       4.277   2.525  19.225  0.00  0.00    +0.000 C 
BRANCH  10  16
ATOM     16  N   UNL     1       4.850   6.938  16.538  0.00  0.00    +0.000 N 
ATOM     17  H   UNL     1       5.082   6.330  15.766  0.00  0.00    +0.000 HD
ATOM     18  H   UNL     1       5.699   6.961  17.136  0.00  0.00    +0.000 HD
ENDBRANCH  10  16
ENDBRANCH   3   9
ENDBRANCH   2   3
ENDBRANCH   1   2
BRANCH   1  19
ATOM     19  C   UNL     1       0.980  11.561  18.955  0.00  0.00    +0.000 C 
BRANCH  19  20
ATOM     20  N   UNL     1       1.037  12.322  20.203  0.00  0.00    +0.000 NA
ATOM     21  C   UNL     1       0.537  13.720  20.083  0.00  0.00    +0.000 C 
ATOM     22  C   UNL     1      -0.977  13.821  19.744  0.00  0.00    +0.000 C 
ATOM     23  N   UNL     1      -1.712  13.088  20.793  0.00  0.00    +0.000 N 
ATOM     24  C   UNL     1      -2.813  13.596  21.474  0.00  0.00    +0.000 A 
ATOM     25  C   UNL     1      -2.854  14.963  21.638  0.00  0.00    +0.000 A 
ATOM     26  C   UNL     1      -3.941  15.508  22.280  0.00  0.00    +0.000 A 
ATOM     27  C   UNL     1      -4.992  14.728  22.752  0.00  0.00    +0.000 A 
ATOM     28  C   UNL     1      -6.012  15.411  23.372  0.00  0.00    +0.000 A 
ATOM     29  C   UNL     1      -6.984  14.664  24.067  0.00  0.00    +0.000 A 
ATOM     30  C   UNL     1      -7.462  13.371  23.920  0.00  0.00    +0.000 A 
ATOM     31  C   UNL     1      -6.359  12.785  23.204  0.00  0.00    +0.000 A 
ATOM     32  C   UNL     1      -5.033  13.353  22.605  0.00  0.00    +0.000 A 
ATOM     33  N   UNL     1      -3.871  12.800  21.948  0.00  0.00    +0.000 NA
ATOM     34  C   UNL     1      -1.326  11.685  20.922  0.00  0.00    +0.000 C 
ATOM     35  C   UNL     1       0.198  11.620  21.217  0.00  0.00    +0.000 C 
ENDBRANCH  19  20
ENDBRANCH   1  19
TORSDOF 6
ENDMDL
MODEL 6
REMARK VINA RESULT:      -7.1      2.365      3.027
REMARK  Name = 
REMARK  8 active torsions:
REMARK  status: ('A' for Active; 'I' for Inactive)
REMARK    1  A    between atoms: C_1  and  C_2
REMARK    2  A    between atoms: C_6  and  C_7
REMARK    3  A    between atoms: C_7  and  C_8
REMARK    4  A    between atoms: C_8  and  C_9
REMARK    5  A    between atoms: C_9  and  C_10
REMARK    6  A    between atoms: C_10  and  N_11
REMARK    7  A    between atoms: N_27  and  N_28
REMARK    8  A    between atoms: C_32  and  C_33
REMARK                            x       y       z     vdW  Elec       q    Type
REMARK                         _______ _______ _______ _____ _____    ______ ____
ROOT
ATOM      1  C   UNL     1       2.148  10.125  18.182  0.00  0.00    +0.000 C 
ENDROOT
BRANCH   1   2
ATOM      2  C   UNL     1       2.099   8.767  17.564  0.00  0.00    +0.000 C 
BRANCH   2   3
ATOM      3  C   UNL     1       3.388   8.004  17.404  0.00  0.00    +0.000 C 
BRANCH   3   9
ATOM      4  C   UNL     1       1.847   1.892  21.832  0.00  0.00    +0.000 C 
ATOM      5  C   UNL     1       2.229   3.052  20.939  0.00  0.00    +0.000 A 
ATOM      6  S   UNL     1       1.270   4.449  20.594  0.00  0.00    +0.000 S 
ATOM      7  C   UNL     1       2.464   5.129  19.526  0.00  0.00    +0.000 A 
ATOM      8  N   UNL     1       2.386   6.339  18.882  0.00  0.00    +0.000 NA
ATOM      9  C   UNL     1       3.437   6.663  18.150  0.00  0.00    +0.000 A 
ATOM     10  N   UNL     1       4.569   5.834  17.966  0.00  0.00    +0.000 N 
ATOM     11  C   UNL     1       4.658   4.627  18.612  0.00  0.00    +0.000 A 
ATOM     12  O   UNL     1       5.692   3.966  18.577  0.00  0.00    +0.000 OA
ATOM     13  C   UNL     1       3.535   4.272  19.439  0.00  0.00    +0.000 A 
ATOM     14  C   UNL     1       3.437   3.120  20.274  0.00  0.00    +0.000 A 
ATOM     15  C   UNL     1       4.510   2.095  20.417  0.00  0.00    +0.000 C 
BRANCH  10  16
ATOM     16  N   UNL     1       5.924   6.210  17.573  0.00  0.00    +0.000 N 
ATOM     17  H   UNL     1       6.056   6.907  16.853  0.00  0.00    +0.000 HD
ATOM     18  H   UNL     1       6.367   5.346  17.204  0.00  0.00    +0.000 HD
ENDBRANCH  10  16
ENDBRANCH   3   9
ENDBRANCH   2   3
ENDBRANCH   1   2
BRANCH   1  19
ATOM     19  C   UNL     1       1.332  10.059  19.478  0.00  0.00    +0.000 C 
BRANCH  19  20
ATOM     20  N   UNL     1       0.004  10.661  19.365  0.00  0.00    +0.000 NA
ATOM     21  C   UNL     1      -0.900  10.350  20.507  0.00  0.00    +0.000 C 
ATOM     22  C   UNL     1      -0.425  10.936  21.866  0.00  0.00    +0.000 C 
ATOM     23  N   UNL     1      -0.283  12.395  21.689  0.00  0.00    +0.000 N 
ATOM     24  C   UNL     1      -0.811  13.341  22.560  0.00  0.00    +0.000 A 
ATOM     25  C   UNL     1      -1.964  12.985  23.225  0.00  0.00    +0.000 A 
ATOM     26  C   UNL     1      -2.502  13.881  24.118  0.00  0.00    +0.000 A 
ATOM     27  C   UNL     1      -1.916  15.116  24.375  0.00  0.00    +0.000 A 
ATOM     28  C   UNL     1      -2.565  15.907  25.294  0.00  0.00    +0.000 A 
ATOM     29  C   UNL     1      -2.152  17.248  25.424  0.00  0.00    +0.000 A 
ATOM     30  C   UNL     1      -0.944  17.889  25.197  0.00  0.00    +0.000 A 
ATOM     31  C   UNL     1      -0.335  16.944  24.298  0.00  0.00    +0.000 A 
ATOM     32  C   UNL     1      -0.747  15.535  23.764  0.00  0.00    +0.000 A 
ATOM     33  N   UNL     1      -0.212  14.588  22.814  0.00  0.00    +0.000 NA
ATOM     34  C   UNL     1       0.647  12.780  20.631  0.00  0.00    +0.000 C 
ATOM     35  C   UNL     1       0.166  12.142  19.298  0.00  0.00    +0.000 C 
ENDBRANCH  19  20
ENDBRANCH   1  19
TORSDOF 6
ENDMDL
MODEL 7
REMARK VINA RESULT:      -7.0      2.581      3.961
REMARK  Name = 
REMARK  8 active torsions:
REMARK  status: ('A' for Active; 'I' for Inactive)
REMARK    1  A    between atoms: C_1  and  C_2
REMARK    2  A    between atoms: C_6  and  C_7
REMARK    3  A    between atoms: C_7  and  C_8
REMARK    4  A    between atoms: C_8  and  C_9
REMARK    5  A    between atoms: C_9  and  C_10
REMARK    6  A    between atoms: C_10  and  N_11
REMARK    7  A    between atoms: N_27  and  N_28
REMARK    8  A    between atoms: C_32  and  C_33
REMARK                            x       y       z     vdW  Elec       q    Type
REMARK                         _______ _______ _______ _____ _____    ______ ____
ROOT
ATOM      1  C   UNL     1       0.469   9.279  21.190  0.00  0.00    +0.000 C 
ENDROOT
BRANCH   1   2
ATOM      2  C   UNL     1       1.543   8.262  20.985  0.00  0.00    +0.000 C 
BRANCH   2   3
ATOM      3  C   UNL     1       1.154   6.807  20.939  0.00  0.00    +0.000 C 
BRANCH   3   9
ATOM      4  C   UNL     1       5.941   4.295  15.452  0.00  0.00    +0.000 C 
ATOM      5  C   UNL     1       4.984   4.701  16.552  0.00  0.00    +0.000 A 
ATOM      6  S   UNL     1       4.610   6.313  17.052  0.00  0.00    +0.000 S 
ATOM      7  C   UNL     1       3.526   5.780  18.304  0.00  0.00    +0.000 A 
ATOM      8  N   UNL     1       2.782   6.584  19.133  0.00  0.00    +0.000 NA
ATOM      9  C   UNL     1       1.997   5.949  19.986  0.00  0.00    +0.000 A 
ATOM     10  N   UNL     1       1.928   4.541  20.113  0.00  0.00    +0.000 N 
ATOM     11  C   UNL     1       2.663   3.732  19.284  0.00  0.00    +0.000 A 
ATOM     12  O   UNL     1       2.505   2.515  19.286  0.00  0.00    +0.000 OA
ATOM     13  C   UNL     1       3.500   4.406  18.328  0.00  0.00    +0.000 A 
ATOM     14  C   UNL     1       4.280   3.786  17.307  0.00  0.00    +0.000 A 
ATOM     15  C   UNL     1       4.339   2.314  17.076  0.00  0.00    +0.000 C 
BRANCH  10  16
ATOM     16  N   UNL     1       0.850   3.723  20.664  0.00  0.00    +0.000 N 
ATOM     17  H   UNL     1      -0.085   3.826  20.298  0.00  0.00    +0.000 HD
ATOM     18  H   UNL     1       0.783   3.977  21.670  0.00  0.00    +0.000 HD
ENDBRANCH  10  16
ENDBRANCH   3   9
ENDBRANCH   2   3
ENDBRANCH   1   2
BRANCH   1  19
ATOM     19  C   UNL     1       1.131  10.658  21.094  0.00  0.00    +0.000 C 
BRANCH  19  20
ATOM     20  N   UNL     1       0.909  11.327  19.812  0.00  0.00    +0.000 NA
ATOM     21  C   UNL     1       0.129  10.518  18.835  0.00  0.00    +0.000 C 
ATOM     22  C   UNL     1      -1.334  10.232  19.277  0.00  0.00    +0.000 C 
ATOM     23  N   UNL     1      -1.983  11.536  19.517  0.00  0.00    +0.000 N 
ATOM     24  C   UNL     1      -3.225  11.895  19.006  0.00  0.00    +0.000 A 
ATOM     25  C   UNL     1      -3.578  11.328  17.801  0.00  0.00    +0.000 A 
ATOM     26  C   UNL     1      -4.811  11.635  17.275  0.00  0.00    +0.000 A 
ATOM     27  C   UNL     1      -5.705  12.480  17.922  0.00  0.00    +0.000 A 
ATOM     28  C   UNL     1      -6.901  12.694  17.278  0.00  0.00    +0.000 A 
ATOM     29  C   UNL     1      -7.746  13.711  17.767  0.00  0.00    +0.000 A 
ATOM     30  C   UNL     1      -7.915  14.274  19.022  0.00  0.00    +0.000 A 
ATOM     31  C   UNL     1      -6.651  13.925  19.616  0.00  0.00    +0.000 A 
ATOM     32  C   UNL     1      -5.432  13.070  19.145  0.00  0.00    +0.000 A 
ATOM     33  N   UNL     1      -4.122  12.752  19.667  0.00  0.00    +0.000 NA
ATOM     34  C   UNL     1      -1.314  12.359  20.521  0.00  0.00    +0.000 C 
ATOM     35  C   UNL     1       0.155  12.589  20.070  0.00  0.00    +0.000 C 
ENDBRANCH  19  20
ENDBRANCH   1  19
TORSDOF 6
ENDMDL
MODEL 8
REMARK VINA RESULT:      -7.0      3.638     11.315
REMARK  Name = 
REMARK  8 active torsions:
REMARK  status: ('A' for Active; 'I' for Inactive)
REMARK    1  A    between atoms: C_1  and  C_2
REMARK    2  A    between atoms: C_6  and  C_7
REMARK    3  A    between atoms: C_7  and  C_8
REMARK    4  A    between atoms: C_8  and  C_9
REMARK    5  A    between atoms: C_9  and  C_10
REMARK    6  A    between atoms: C_10  and  N_11
REMARK    7  A    between atoms: N_27  and  N_28
REMARK    8  A    between atoms: C_32  and  C_33
REMARK                            x       y       z     vdW  Elec       q    Type
REMARK                         _______ _______ _______ _____ _____    ______ ____
ROOT
ATOM      1  C   UNL     1      -1.031  10.834  18.561  0.00  0.00    +0.000 C 
ENDROOT
BRANCH   1   2
ATOM      2  C   UNL     1      -2.367  10.425  18.034  0.00  0.00    +0.000 C 
BRANCH   2   3
ATOM      3  C   UNL     1      -3.447  11.470  17.924  0.00  0.00    +0.000 C 
BRANCH   3   9
ATOM      4  C   UNL     1      -3.687  15.067  24.732  0.00  0.00    +0.000 C 
ATOM      5  C   UNL     1      -3.730  14.344  23.403  0.00  0.00    +0.000 A 
ATOM      6  S   UNL     1      -2.419  14.148  22.293  0.00  0.00    +0.000 S 
ATOM      7  C   UNL     1      -3.394  13.279  21.142  0.00  0.00    +0.000 A 
ATOM      8  N   UNL     1      -2.964  12.736  19.956  0.00  0.00    +0.000 NA
ATOM      9  C   UNL     1      -3.881  12.085  19.263  0.00  0.00    +0.000 A 
ATOM     10  N   UNL     1      -5.239  11.969  19.645  0.00  0.00    +0.000 N 
ATOM     11  C   UNL     1      -5.674  12.502  20.831  0.00  0.00    +0.000 A 
ATOM     12  O   UNL     1      -6.810  12.285  21.242  0.00  0.00    +0.000 OA
ATOM     13  C   UNL     1      -4.681  13.188  21.614  0.00  0.00    +0.000 A 
ATOM     14  C   UNL     1      -4.871  13.740  22.916  0.00  0.00    +0.000 A 
ATOM     15  C   UNL     1      -6.155  13.682  23.672  0.00  0.00    +0.000 C 
BRANCH  10  16
ATOM     16  N   UNL     1      -6.221  10.967  19.239  0.00  0.00    +0.000 N 
ATOM     17  H   UNL     1      -6.361  10.780  18.256  0.00  0.00    +0.000 HD
ATOM     18  H   UNL     1      -7.139  11.305  19.589  0.00  0.00    +0.000 HD
ENDBRANCH  10  16
ENDBRANCH   3   9
ENDBRANCH   2   3
ENDBRANCH   1   2
BRANCH   1  19
ATOM     19  C   UNL     1      -0.572   9.735  19.525  0.00  0.00    +0.000 C 
BRANCH  19  20
ATOM     20  N   UNL     1       0.808   9.895  19.981  0.00  0.00    +0.000 NA
ATOM     21  C   UNL     1       1.333   8.726  20.742  0.00  0.00    +0.000 C 
ATOM     22  C   UNL     1       1.448   7.425  19.899  0.00  0.00    +0.000 C 
ATOM     23  N   UNL     1       2.310   7.728  18.739  0.00  0.00    +0.000 N 
ATOM     24  C   UNL     1       3.383   6.940  18.338  0.00  0.00    +0.000 A 
ATOM     25  C   UNL     1       4.035   6.242  19.331  0.00  0.00    +0.000 A 
ATOM     26  C   UNL     1       5.083   5.428  18.972  0.00  0.00    +0.000 A 
ATOM     27  C   UNL     1       5.490   5.281  17.650  0.00  0.00    +0.000 A 
ATOM     28  C   UNL     1       6.551   4.432  17.441  0.00  0.00    +0.000 A 
ATOM     29  C   UNL     1       7.151   4.419  16.166  0.00  0.00    +0.000 A 
ATOM     30  C   UNL     1       6.672   4.706  14.897  0.00  0.00    +0.000 A 
ATOM     31  C   UNL     1       5.538   5.522  15.244  0.00  0.00    +0.000 A 
ATOM     32  C   UNL     1       4.871   5.930  16.596  0.00  0.00    +0.000 A 
ATOM     33  N   UNL     1       3.788   6.798  16.999  0.00  0.00    +0.000 NA
ATOM     34  C   UNL     1       1.821   8.819  17.901  0.00  0.00    +0.000 C 
ATOM     35  C   UNL     1       1.676  10.090  18.783  0.00  0.00    +0.000 C 
ENDBRANCH  19  20
ENDBRANCH   1  19
TORSDOF 6
ENDMDL
MODEL 9
REMARK VINA RESULT:      -7.0      1.886      2.734
REMARK  Name = 
REMARK  8 active torsions:
REMARK  status: ('A' for Active; 'I' for Inactive)
REMARK    1  A    between atoms: C_1  and  C_2
REMARK    2  A    between atoms: C_6  and  C_7
REMARK    3  A    between atoms: C_7  and  C_8
REMARK    4  A    between atoms: C_8  and  C_9
REMARK    5  A    between atoms: C_9  and  C_10
REMARK    6  A    between atoms: C_10  and  N_11
REMARK    7  A    between atoms: N_27  and  N_28
REMARK    8  A    between atoms: C_32  and  C_33
REMARK                            x       y       z     vdW  Elec       q    Type
REMARK                         _______ _______ _______ _____ _____    ______ ____
ROOT
ATOM      1  C   UNL     1       1.518  10.776  18.856  0.00  0.00    +0.000 C 
ENDROOT
BRANCH   1   2
ATOM      2  C   UNL     1       1.199   9.321  18.758  0.00  0.00    +0.000 C 
BRANCH   2   3
ATOM      3  C   UNL     1       1.844   8.377  19.740  0.00  0.00    +0.000 C 
BRANCH   3   9
ATOM      4  C   UNL     1       6.060   3.717  15.285  0.00  0.00    +0.000 C 
ATOM      5  C   UNL     1       5.208   4.559  16.210  0.00  0.00    +0.000 A 
ATOM      6  S   UNL     1       5.026   6.278  16.166  0.00  0.00    +0.000 S 
ATOM      7  C   UNL     1       3.959   6.300  17.541  0.00  0.00    +0.000 A 
ATOM      8  N   UNL     1       3.344   7.405  18.077  0.00  0.00    +0.000 NA
ATOM      9  C   UNL     1       2.545   7.169  19.103  0.00  0.00    +0.000 A 
ATOM     10  N   UNL     1       2.340   5.893  19.680  0.00  0.00    +0.000 N 
ATOM     11  C   UNL     1       2.945   4.784  19.146  0.00  0.00    +0.000 A 
ATOM     12  O   UNL     1       2.665   3.658  19.544  0.00  0.00    +0.000 OA
ATOM     13  C   UNL     1       3.795   5.018  18.009  0.00  0.00    +0.000 A 
ATOM     14  C   UNL     1       4.454   4.019  17.232  0.00  0.00    +0.000 A 
ATOM     15  C   UNL     1       4.351   2.554  17.489  0.00  0.00    +0.000 C 
BRANCH  10  16
ATOM     16  N   UNL     1       1.215   5.422  20.484  0.00  0.00    +0.000 N 
ATOM     17  H   UNL     1       1.142   5.709  21.450  0.00  0.00    +0.000 HD
ATOM     18  H   UNL     1       1.293   4.387  20.509  0.00  0.00    +0.000 HD
ENDBRANCH  10  16
ENDBRANCH   3   9
ENDBRANCH   2   3
ENDBRANCH   1   2
BRANCH   1  19
ATOM     19  C   UNL     1       0.815  11.307  20.109  0.00  0.00    +0.000 C 
BRANCH  19  20
ATOM     20  N   UNL     1      -0.411  10.582  20.445  0.00  0.00    +0.000 NA
ATOM     21  C   UNL     1      -0.761  10.624  21.892  0.00  0.00    +0.000 C 
ATOM     22  C   UNL     1      -1.104  12.046  22.417  0.00  0.00    +0.000 C 
ATOM     23  N   UNL     1      -2.214  12.564  21.593  0.00  0.00    +0.000 N 
ATOM     24  C   UNL     1      -3.368  13.139  22.111  0.00  0.00    +0.000 A 
ATOM     25  C   UNL     1      -3.777  12.687  23.347  0.00  0.00    +0.000 A 
ATOM     26  C   UNL     1      -4.898  13.252  23.907  0.00  0.00    +0.000 A 
ATOM     27  C   UNL     1      -5.614  14.263  23.276  0.00  0.00    +0.000 A 
ATOM     28  C   UNL     1      -6.712  14.733  23.958  0.00  0.00    +0.000 A 
ATOM     29  C   UNL     1      -7.602  15.587  23.275  0.00  0.00    +0.000 A 
ATOM     30  C   UNL     1      -7.437  16.469  22.218  0.00  0.00    +0.000 A 
ATOM     31  C   UNL     1      -6.236  15.928  21.636  0.00  0.00    +0.000 A 
ATOM     32  C   UNL     1      -5.254  14.785  22.046  0.00  0.00    +0.000 A 
ATOM     33  N   UNL     1      -4.087  14.161  21.465  0.00  0.00    +0.000 NA
ATOM     34  C   UNL     1      -1.918  12.622  20.164  0.00  0.00    +0.000 C 
ATOM     35  C   UNL     1      -1.537  11.195  19.682  0.00  0.00    +0.000 C 
ENDBRANCH  19  20
ENDBRANCH   1  19
TORSDOF 6
ENDMDL
