MODEL 1
REMARK VINA RESULT:      -8.4      0.000      0.000
REMARK  Name = 
REMARK  8 active torsions:
REMARK  status: ('A' for Active; 'I' for Inactive)
REMARK    1  A    between atoms: C_1  and  O_2
REMARK    2  A    between atoms: O_2  and  C_3
REMARK    3  A    between atoms: C_3  and  C_5
REMARK    4  A    between atoms: C_8  and  C_10
REMARK    5  A    between atoms: C_10  and  O_11
REMARK    6  A    between atoms: O_11  and  C_12
REMARK    7  A    between atoms: C_16  and  C_17
REMARK    8  A    between atoms: C_18  and  C_19
REMARK                            x       y       z     vdW  Elec       q    Type
REMARK                         _______ _______ _______ _____ _____    ______ ____
ROOT
ATOM      1  C   UNL     1       4.926   4.664  17.865  0.00  0.00    +0.000 C 
ATOM      2  C   UNL     1       3.669   5.462  17.558  0.00  0.00    +0.000 C 
ATOM      3  N   UNL     1       2.959   5.815  18.800  0.00  0.00    +0.000 N 
ATOM      4  C   UNL     1       2.608   7.153  18.982  0.00  0.00    +0.000 C 
ATOM      5  O   UNL     1       2.887   8.000  18.120  0.00  0.00    +0.000 OA
ATOM      6  C   UNL     1       2.808   4.706  19.691  0.00  0.00    +0.000 A 
ATOM      7  C   UNL     1       1.860   4.646  20.715  0.00  0.00    +0.000 A 
ATOM      8  C   UNL     1       1.804   3.577  21.614  0.00  0.00    +0.000 A 
ATOM      9  C   UNL     1       2.662   2.498  21.460  0.00  0.00    +0.000 A 
ATOM     10  C   UNL     1       3.564   2.491  20.403  0.00  0.00    +0.000 A 
ATOM     11  C   UNL     1       3.648   3.582  19.532  0.00  0.00    +0.000 A 
ATOM     12  O   UNL     1       4.604   3.453  18.550  0.00  0.00    +0.000 OA
ENDROOT
BRANCH   1  13
ATOM     13  C   UNL     1       5.975   5.508  18.588  0.00  0.00    +0.000 C 
ATOM     14  O   UNL     1       6.551   5.188  19.621  0.00  0.00    +0.000 OA
BRANCH  13  16
ATOM     15  C   UNL     1       7.614   7.012  17.848  0.00  0.00    +0.000 C 
ATOM     16  O   UNL     1       6.229   6.657  17.894  0.00  0.00    +0.000 OA
ENDBRANCH  13  16
ENDBRANCH   1  13
BRANCH   4  17
ATOM     17  C   UNL     1       1.922   7.642  20.257  0.00  0.00    +0.000 C 
BRANCH  17  18
ATOM     18  O   UNL     1       1.080   8.732  19.884  0.00  0.00    +0.000 OA
BRANCH  18  19
ATOM     19  C   UNL     1       0.402   9.396  20.874  0.00  0.00    +0.000 A 
ATOM     20  C   UNL     1       0.334   8.957  22.196  0.00  0.00    +0.000 A 
ATOM     21  C   UNL     1      -0.335   9.718  23.151  0.00  0.00    +0.000 A 
ATOM     22  C   UNL     1      -0.943  10.919  22.791  0.00  0.00    +0.000 A 
ATOM     23  C   UNL     1      -0.900  11.378  21.466  0.00  0.00    +0.000 A 
ATOM     24  C   UNL     1      -1.582  12.679  21.135  0.00  0.00    +0.000 C 
ATOM     25  C   UNL     1      -0.220  10.610  20.494  0.00  0.00    +0.000 A 
ATOM     26  C   UNL     1      -0.157  11.042  19.048  0.00  0.00    +0.000 C 
ENDBRANCH  18  19
ENDBRANCH  17  18
ENDBRANCH   4  17
TORSDOF 5
ENDMDL
MODEL 2
REMARK VINA RESULT:      -8.0      2.189      7.684
REMARK  Name = 
REMARK  8 active torsions:
REMARK  status: ('A' for Active; 'I' for Inactive)
REMARK    1  A    between atoms: C_1  and  O_2
REMARK    2  A    between atoms: O_2  and  C_3
REMARK    3  A    between atoms: C_3  and  C_5
REMARK    4  A    between atoms: C_8  and  C_10
REMARK    5  A    between atoms: C_10  and  O_11
REMARK    6  A    between atoms: O_11  and  C_12
REMARK    7  A    between atoms: C_16  and  C_17
REMARK    8  A    between atoms: C_18  and  C_19
REMARK                            x       y       z     vdW  Elec       q    Type
REMARK                         _______ _______ _______ _____ _____    ______ ____
ROOT
ATOM      1  C   UNL     1      -0.399  11.454  18.636  0.00  0.00    +0.000 C 
ATOM      2  C   UNL     1       1.045  10.980  18.683  0.00  0.00    +0.000 C 
ATOM      3  N   UNL     1       1.185   9.818  19.576  0.00  0.00    +0.000 N 
ATOM      4  C   UNL     1       1.840   8.694  19.072  0.00  0.00    +0.000 C 
ATOM      5  O   UNL     1       2.285   8.691  17.914  0.00  0.00    +0.000 OA
ATOM      6  C   UNL     1       0.533  10.001  20.837  0.00  0.00    +0.000 A 
ATOM      7  C   UNL     1       0.830   9.267  21.987  0.00  0.00    +0.000 A 
ATOM      8  C   UNL     1       0.109   9.423  23.175  0.00  0.00    +0.000 A 
ATOM      9  C   UNL     1      -0.890  10.382  23.257  0.00  0.00    +0.000 A 
ATOM     10  C   UNL     1      -1.156  11.184  22.153  0.00  0.00    +0.000 A 
ATOM     11  C   UNL     1      -0.464  10.994  20.953  0.00  0.00    +0.000 A 
ATOM     12  O   UNL     1      -0.849  11.837  19.935  0.00  0.00    +0.000 OA
ENDROOT
BRANCH   1  13
ATOM     13  C   UNL     1      -1.311  10.434  17.955  0.00  0.00    +0.000 C 
ATOM     14  O   UNL     1      -0.942   9.575  17.161  0.00  0.00    +0.000 OA
BRANCH  13  16
ATOM     15  C   UNL     1      -3.582  10.251  17.407  0.00  0.00    +0.000 C 
ATOM     16  O   UNL     1      -2.597  10.570  18.393  0.00  0.00    +0.000 OA
ENDBRANCH  13  16
ENDBRANCH   1  13
BRANCH   4  17
ATOM     17  C   UNL     1       1.989   7.411  19.889  0.00  0.00    +0.000 C 
BRANCH  17  18
ATOM     18  O   UNL     1       2.294   6.365  18.967  0.00  0.00    +0.000 OA
BRANCH  18  19
ATOM     19  C   UNL     1       2.150   5.068  19.389  0.00  0.00    +0.000 A 
ATOM     20  C   UNL     1       1.351   4.686  20.466  0.00  0.00    +0.000 A 
ATOM     21  C   UNL     1       1.222   3.340  20.798  0.00  0.00    +0.000 A 
ATOM     22  C   UNL     1       1.893   2.368  20.059  0.00  0.00    +0.000 A 
ATOM     23  C   UNL     1       2.714   2.725  18.978  0.00  0.00    +0.000 A 
ATOM     24  C   UNL     1       3.420   1.632  18.222  0.00  0.00    +0.000 C 
ATOM     25  C   UNL     1       2.846   4.090  18.637  0.00  0.00    +0.000 A 
ATOM     26  C   UNL     1       3.730   4.537  17.496  0.00  0.00    +0.000 C 
ENDBRANCH  18  19
ENDBRANCH  17  18
ENDBRANCH   4  17
TORSDOF 5
ENDMDL
MODEL 3
REMARK VINA RESULT:      -8.0      1.894      4.149
REMARK  Name = 
REMARK  8 active torsions:
REMARK  status: ('A' for Active; 'I' for Inactive)
REMARK    1  A    between atoms: C_1  and  O_2
REMARK    2  A    between atoms: O_2  and  C_3
REMARK    3  A    between atoms: C_3  and  C_5
REMARK    4  A    between atoms: C_8  and  C_10
REMARK    5  A    between atoms: C_10  and  O_11
REMARK    6  A    between atoms: O_11  and  C_12
REMARK    7  A    between atoms: C_16  and  C_17
REMARK    8  A    between atoms: C_18  and  C_19
REMARK                            x       y       z     vdW  Elec       q    Type
REMARK                         _______ _______ _______ _____ _____    ______ ____
ROOT
ATOM      1  C   UNL     1       3.086   3.871  19.481  0.00  0.00    +0.000 C 
ATOM      2  C   UNL     1       3.315   5.267  20.040  0.00  0.00    +0.000 C 
ATOM      3  N   UNL     1       3.252   6.275  18.969  0.00  0.00    +0.000 N 
ATOM      4  C   UNL     1       2.417   7.375  19.168  0.00  0.00    +0.000 C 
ATOM      5  O   UNL     1       1.762   7.486  20.216  0.00  0.00    +0.000 OA
ATOM      6  C   UNL     1       4.023   5.916  17.818  0.00  0.00    +0.000 A 
ATOM      7  C   UNL     1       4.463   6.825  16.854  0.00  0.00    +0.000 A 
ATOM      8  C   UNL     1       5.141   6.416  15.702  0.00  0.00    +0.000 A 
ATOM      9  C   UNL     1       5.461   5.078  15.525  0.00  0.00    +0.000 A 
ATOM     10  C   UNL     1       5.106   4.158  16.506  0.00  0.00    +0.000 A 
ATOM     11  C   UNL     1       4.388   4.564  17.634  0.00  0.00    +0.000 A 
ATOM     12  O   UNL     1       4.078   3.546  18.508  0.00  0.00    +0.000 OA
ENDROOT
BRANCH   1  13
ATOM     13  C   UNL     1       1.656   3.689  18.973  0.00  0.00    +0.000 C 
ATOM     14  O   UNL     1       1.331   3.595  17.795  0.00  0.00    +0.000 OA
BRANCH  13  16
ATOM     15  C   UNL     1       1.244   2.754  21.082  0.00  0.00    +0.000 C 
ATOM     16  O   UNL     1       0.783   3.591  20.019  0.00  0.00    +0.000 OA
ENDBRANCH  13  16
ENDBRANCH   1  13
BRANCH   4  17
ATOM     17  C   UNL     1       2.229   8.451  18.100  0.00  0.00    +0.000 C 
BRANCH  17  18
ATOM     18  O   UNL     1       1.831   9.643  18.777  0.00  0.00    +0.000 OA
BRANCH  18  19
ATOM     19  C   UNL     1       0.534  10.067  18.635  0.00  0.00    +0.000 A 
ATOM     20  C   UNL     1      -0.295   9.685  17.581  0.00  0.00    +0.000 A 
ATOM     21  C   UNL     1      -1.617  10.123  17.538  0.00  0.00    +0.000 A 
ATOM     22  C   UNL     1      -2.115  10.947  18.544  0.00  0.00    +0.000 A 
ATOM     23  C   UNL     1      -1.299  11.356  19.610  0.00  0.00    +0.000 A 
ATOM     24  C   UNL     1      -1.891  12.253  20.665  0.00  0.00    +0.000 C 
ATOM     25  C   UNL     1       0.042  10.913  19.659  0.00  0.00    +0.000 A 
ATOM     26  C   UNL     1       0.974  11.335  20.770  0.00  0.00    +0.000 C 
ENDBRANCH  18  19
ENDBRANCH  17  18
ENDBRANCH   4  17
TORSDOF 5
ENDMDL
MODEL 4
REMARK VINA RESULT:      -7.9      1.438      1.483
REMARK  Name = 
REMARK  8 active torsions:
REMARK  status: ('A' for Active; 'I' for Inactive)
REMARK    1  A    between atoms: C_1  and  O_2
REMARK    2  A    between atoms: O_2  and  C_3
REMARK    3  A    between atoms: C_3  and  C_5
REMARK    4  A    between atoms: C_8  and  C_10
REMARK    5  A    between atoms: C_10  and  O_11
REMARK    6  A    between atoms: O_11  and  C_12
REMARK    7  A    between atoms: C_16  and  C_17
REMARK    8  A    between atoms: C_18  and  C_19
REMARK                            x       y       z     vdW  Elec       q    Type
REMARK                         _______ _______ _______ _____ _____    ______ ____
ROOT
ATOM      1  C   UNL     1       5.560   4.590  16.928  0.00  0.00    +0.000 C 
ATOM      2  C   UNL     1       4.566   5.695  16.609  0.00  0.00    +0.000 C 
ATOM      3  N   UNL     1       3.515   5.765  17.639  0.00  0.00    +0.000 N 
ATOM      4  C   UNL     1       3.254   7.011  18.209  0.00  0.00    +0.000 C 
ATOM      5  O   UNL     1       3.889   8.014  17.848  0.00  0.00    +0.000 OA
ATOM      6  C   UNL     1       2.963   4.484  17.962  0.00  0.00    +0.000 A 
ATOM      7  C   UNL     1       1.724   4.297  18.577  0.00  0.00    +0.000 A 
ATOM      8  C   UNL     1       1.263   3.031  18.949  0.00  0.00    +0.000 A 
ATOM      9  C   UNL     1       2.013   1.905  18.644  0.00  0.00    +0.000 A 
ATOM     10  C   UNL     1       3.215   2.051  17.961  0.00  0.00    +0.000 A 
ATOM     11  C   UNL     1       3.694   3.323  17.631  0.00  0.00    +0.000 A 
ATOM     12  O   UNL     1       4.909   3.321  16.983  0.00  0.00    +0.000 OA
ENDROOT
BRANCH   1  13
ATOM     13  C   UNL     1       6.379   4.906  18.180  0.00  0.00    +0.000 C 
ATOM     14  O   UNL     1       6.041   4.650  19.329  0.00  0.00    +0.000 OA
BRANCH  13  16
ATOM     15  C   UNL     1       7.739   6.811  18.310  0.00  0.00    +0.000 C 
ATOM     16  O   UNL     1       7.576   5.470  17.841  0.00  0.00    +0.000 OA
ENDBRANCH  13  16
ENDBRANCH   1  13
BRANCH   4  17
ATOM     17  C   UNL     1       2.228   7.190  19.327  0.00  0.00    +0.000 C 
BRANCH  17  18
ATOM     18  O   UNL     1       1.707   8.513  19.204  0.00  0.00    +0.000 OA
BRANCH  18  19
ATOM     19  C   UNL     1       1.045   9.051  20.278  0.00  0.00    +0.000 A 
ATOM     20  C   UNL     1       1.208   8.609  21.591  0.00  0.00    +0.000 A 
ATOM     21  C   UNL     1       0.533   9.244  22.631  0.00  0.00    +0.000 A 
ATOM     22  C   UNL     1      -0.311  10.319  22.366  0.00  0.00    +0.000 A 
ATOM     23  C   UNL     1      -0.504  10.776  21.053  0.00  0.00    +0.000 A 
ATOM     24  C   UNL     1      -1.435  11.938  20.827  0.00  0.00    +0.000 C 
ATOM     25  C   UNL     1       0.181  10.137  19.995  0.00  0.00    +0.000 A 
ATOM     26  C   UNL     1      -0.001  10.571  18.559  0.00  0.00    +0.000 C 
ENDBRANCH  18  19
ENDBRANCH  17  18
ENDBRANCH   4  17
TORSDOF 5
ENDMDL
MODEL 5
REMARK VINA RESULT:      -7.9      1.786      4.135
REMARK  Name = 
REMARK  8 active torsions:
REMARK  status: ('A' for Active; 'I' for Inactive)
REMARK    1  A    between atoms: C_1  and  O_2
REMARK    2  A    between atoms: O_2  and  C_3
REMARK    3  A    between atoms: C_3  and  C_5
REMARK    4  A    between atoms: C_8  and  C_10
REMARK    5  A    between atoms: C_10  and  O_11
REMARK    6  A    between atoms: O_11  and  C_12
REMARK    7  A    between atoms: C_16  and  C_17
REMARK    8  A    between atoms: C_18  and  C_19
REMARK                            x       y       z     vdW  Elec       q    Type
REMARK                         _______ _______ _______ _____ _____    ______ ____
ROOT
ATOM      1  C   UNL     1       3.936   2.707  18.655  0.00  0.00    +0.000 C 
ATOM      2  C   UNL     1       4.062   3.827  19.675  0.00  0.00    +0.000 C 
ATOM      3  N   UNL     1       3.708   5.124  19.072  0.00  0.00    +0.000 N 
ATOM      4  C   UNL     1       2.776   5.914  19.745  0.00  0.00    +0.000 C 
ATOM      5  O   UNL     1       2.276   5.525  20.813  0.00  0.00    +0.000 OA
ATOM      6  C   UNL     1       4.338   5.341  17.805  0.00  0.00    +0.000 A 
ATOM      7  C   UNL     1       4.506   6.597  17.219  0.00  0.00    +0.000 A 
ATOM      8  C   UNL     1       5.051   6.753  15.941  0.00  0.00    +0.000 A 
ATOM      9  C   UNL     1       5.512   5.646  15.246  0.00  0.00    +0.000 A 
ATOM     10  C   UNL     1       5.432   4.389  15.836  0.00  0.00    +0.000 A 
ATOM     11  C   UNL     1       4.844   4.232  17.095  0.00  0.00    +0.000 A 
ATOM     12  O   UNL     1       4.805   2.931  17.545  0.00  0.00    +0.000 OA
ENDROOT
BRANCH   1  13
ATOM     13  C   UNL     1       2.482   2.468  18.248  0.00  0.00    +0.000 C 
ATOM     14  O   UNL     1       2.042   2.567  17.109  0.00  0.00    +0.000 OA
BRANCH  13  16
ATOM     15  C   UNL     1       0.507   2.782  19.471  0.00  0.00    +0.000 C 
ATOM     16  O   UNL     1       1.741   2.073  19.324  0.00  0.00    +0.000 OA
ENDBRANCH  13  16
ENDBRANCH   1  13
BRANCH   4  17
ATOM     17  C   UNL     1       2.291   7.248  19.183  0.00  0.00    +0.000 C 
BRANCH  17  18
ATOM     18  O   UNL     1       1.853   8.032  20.293  0.00  0.00    +0.000 OA
BRANCH  18  19
ATOM     19  C   UNL     1       1.068   9.128  20.043  0.00  0.00    +0.000 A 
ATOM     20  C   UNL     1       0.827   9.634  18.766  0.00  0.00    +0.000 A 
ATOM     21  C   UNL     1      -0.024  10.724  18.595  0.00  0.00    +0.000 A 
ATOM     22  C   UNL     1      -0.635  11.316  19.698  0.00  0.00    +0.000 A 
ATOM     23  C   UNL     1      -0.401  10.835  20.995  0.00  0.00    +0.000 A 
ATOM     24  C   UNL     1      -1.083  11.520  22.149  0.00  0.00    +0.000 C 
ATOM     25  C   UNL     1       0.460   9.728  21.173  0.00  0.00    +0.000 A 
ATOM     26  C   UNL     1       0.767   9.178  22.546  0.00  0.00    +0.000 C 
ENDBRANCH  18  19
ENDBRANCH  17  18
ENDBRANCH   4  17
TORSDOF 5
ENDMDL
MODEL 6
REMARK VINA RESULT:      -7.8      2.402      7.961
REMARK  Name = 
REMARK  8 active torsions:
REMARK  status: ('A' for Active; 'I' for Inactive)
REMARK    1  A    between atoms: C_1  and  O_2
REMARK    2  A    between atoms: O_2  and  C_3
REMARK    3  A    between atoms: C_3  and  C_5
REMARK    4  A    between atoms: C_8  and  C_10
REMARK    5  A    between atoms: C_10  and  O_11
REMARK    6  A    between atoms: O_11  and  C_12
REMARK    7  A    between atoms: C_16  and  C_17
REMARK    8  A    between atoms: C_18  and  C_19
REMARK                            x       y       z     vdW  Elec       q    Type
REMARK                         _______ _______ _______ _____ _____    ______ ____
ROOT
ATOM      1  C   UNL     1      -0.645  11.946  18.828  0.00  0.00    +0.000 C 
ATOM      2  C   UNL     1       0.802  11.516  18.645  0.00  0.00    +0.000 C 
ATOM      3  N   UNL     1       1.053  10.229  19.317  0.00  0.00    +0.000 N 
ATOM      4  C   UNL     1       1.665   9.222  18.570  0.00  0.00    +0.000 C 
ATOM      5  O   UNL     1       1.983   9.420  17.387  0.00  0.00    +0.000 OA
ATOM      6  C   UNL     1       0.539  10.186  20.652  0.00  0.00    +0.000 A 
ATOM      7  C   UNL     1       0.969   9.285  21.629  0.00  0.00    +0.000 A 
ATOM      8  C   UNL     1       0.378   9.225  22.894  0.00  0.00    +0.000 A 
ATOM      9  C   UNL     1      -0.619  10.126  23.236  0.00  0.00    +0.000 A 
ATOM     10  C   UNL     1      -1.014  11.088  22.313  0.00  0.00    +0.000 A 
ATOM     11  C   UNL     1      -0.453  11.115  21.032  0.00  0.00    +0.000 A 
ATOM     12  O   UNL     1      -0.957  12.100  20.212  0.00  0.00    +0.000 OA
ENDROOT
BRANCH   1  13
ATOM     13  C   UNL     1      -1.611  11.021  18.088  0.00  0.00    +0.000 C 
ATOM     14  O   UNL     1      -1.289  10.187  17.250  0.00  0.00    +0.000 OA
BRANCH  13  16
ATOM     15  C   UNL     1      -3.887  10.659  17.664  0.00  0.00    +0.000 C 
ATOM     16  O   UNL     1      -2.890  11.210  18.527  0.00  0.00    +0.000 OA
ENDBRANCH  13  16
ENDBRANCH   1  13
BRANCH   4  17
ATOM     17  C   UNL     1       1.919   7.829  19.146  0.00  0.00    +0.000 C 
BRANCH  17  18
ATOM     18  O   UNL     1       3.127   7.350  18.555  0.00  0.00    +0.000 OA
BRANCH  18  19
ATOM     19  C   UNL     1       3.162   6.052  18.114  0.00  0.00    +0.000 A 
ATOM     20  C   UNL     1       2.152   5.122  18.359  0.00  0.00    +0.000 A 
ATOM     21  C   UNL     1       2.244   3.836  17.832  0.00  0.00    +0.000 A 
ATOM     22  C   UNL     1       3.345   3.471  17.062  0.00  0.00    +0.000 A 
ATOM     23  C   UNL     1       4.382   4.383  16.810  0.00  0.00    +0.000 A 
ATOM     24  C   UNL     1       5.551   3.928  15.977  0.00  0.00    +0.000 C 
ATOM     25  C   UNL     1       4.292   5.689  17.341  0.00  0.00    +0.000 A 
ATOM     26  C   UNL     1       5.385   6.709  17.121  0.00  0.00    +0.000 C 
ENDBRANCH  18  19
ENDBRANCH  17  18
ENDBRANCH   4  17
TORSDOF 5
ENDMDL
MODEL 7
REMARK VINA RESULT:      -7.8      1.009      1.824
REMARK  Name = 
REMARK  8 active torsions:
REMARK  status: ('A' for Active; 'I' for Inactive)
REMARK    1  A    between atoms: C_1  and  O_2
REMARK    2  A    between atoms: O_2  and  C_3
REMARK    3  A    between atoms: C_3  and  C_5
REMARK    4  A    between atoms: C_8  and  C_10
REMARK    5  A    between atoms: C_10  and  O_11
REMARK    6  A    between atoms: O_11  and  C_12
REMARK    7  A    between atoms: C_16  and  C_17
REMARK    8  A    between atoms: C_18  and  C_19
REMARK                            x       y       z     vdW  Elec       q    Type
REMARK                         _______ _______ _______ _____ _____    ______ ____
ROOT
ATOM      1  C   UNL     1       5.089   4.594  17.877  0.00  0.00    +0.000 C 
ATOM      2  C   UNL     1       3.909   5.382  17.330  0.00  0.00    +0.000 C 
ATOM      3  N   UNL     1       3.039   5.847  18.424  0.00  0.00    +0.000 N 
ATOM      4  C   UNL     1       2.700   7.200  18.445  0.00  0.00    +0.000 C 
ATOM      5  O   UNL     1       3.121   7.968  17.566  0.00  0.00    +0.000 OA
ATOM      6  C   UNL     1       2.734   4.819  19.371  0.00  0.00    +0.000 A 
ATOM      7  C   UNL     1       1.649   4.858  20.249  0.00  0.00    +0.000 A 
ATOM      8  C   UNL     1       1.439   3.870  21.215  0.00  0.00    +0.000 A 
ATOM      9  C   UNL     1       2.282   2.770  21.274  0.00  0.00    +0.000 A 
ATOM     10  C   UNL     1       3.324   2.660  20.361  0.00  0.00    +0.000 A 
ATOM     11  C   UNL     1       3.559   3.674  19.426  0.00  0.00    +0.000 A 
ATOM     12  O   UNL     1       4.641   3.450  18.605  0.00  0.00    +0.000 OA
ENDROOT
BRANCH   1  13
ATOM     13  C   UNL     1       6.046   5.481  18.672  0.00  0.00    +0.000 C 
ATOM     14  O   UNL     1       6.603   5.163  19.716  0.00  0.00    +0.000 OA
BRANCH  13  16
ATOM     15  C   UNL     1       7.613   6.932  17.706  0.00  0.00    +0.000 C 
ATOM     16  O   UNL     1       6.245   6.670  18.030  0.00  0.00    +0.000 OA
ENDBRANCH  13  16
ENDBRANCH   1  13
BRANCH   4  17
ATOM     17  C   UNL     1       1.854   7.804  19.565  0.00  0.00    +0.000 C 
BRANCH  17  18
ATOM     18  O   UNL     1       1.808   9.213  19.337  0.00  0.00    +0.000 OA
BRANCH  18  19
ATOM     19  C   UNL     1       0.597   9.780  19.033  0.00  0.00    +0.000 A 
ATOM     20  C   UNL     1      -0.096   9.541  17.846  0.00  0.00    +0.000 A 
ATOM     21  C   UNL     1      -1.345  10.120  17.637  0.00  0.00    +0.000 A 
ATOM     22  C   UNL     1      -1.907  10.944  18.610  0.00  0.00    +0.000 A 
ATOM     23  C   UNL     1      -1.227  11.211  19.808  0.00  0.00    +0.000 A 
ATOM     24  C   UNL     1      -1.881  12.114  20.819  0.00  0.00    +0.000 C 
ATOM     25  C   UNL     1       0.040  10.623  20.025  0.00  0.00    +0.000 A 
ATOM     26  C   UNL     1       0.829  10.889  21.285  0.00  0.00    +0.000 C 
ENDBRANCH  18  19
ENDBRANCH  17  18
ENDBRANCH   4  17
TORSDOF 5
ENDMDL
MODEL 8
REMARK VINA RESULT:      -7.8      1.905      4.245
REMARK  Name = 
REMARK  8 active torsions:
REMARK  status: ('A' for Active; 'I' for Inactive)
REMARK    1  A    between atoms: C_1  and  O_2
REMARK    2  A    between atoms: O_2  and  C_3
REMARK    3  A    between atoms: C_3  and  C_5
REMARK    4  A    between atoms: C_8  and  C_10
REMARK    5  A    between atoms: C_10  and  O_11
REMARK    6  A    between atoms: O_11  and  C_12
REMARK    7  A    between atoms: C_16  and  C_17
REMARK    8  A    between atoms: C_18  and  C_19
REMARK                            x       y       z     vdW  Elec       q    Type
REMARK                         _______ _______ _______ _____ _____    ______ ____
ROOT
ATOM      1  C   UNL     1       3.563   3.632  19.160  0.00  0.00    +0.000 C 
ATOM      2  C   UNL     1       3.774   5.027  19.728  0.00  0.00    +0.000 C 
ATOM      3  N   UNL     1       3.617   6.047  18.677  0.00  0.00    +0.000 N 
ATOM      4  C   UNL     1       2.757   7.113  18.938  0.00  0.00    +0.000 C 
ATOM      5  O   UNL     1       2.156   7.187  20.021  0.00  0.00    +0.000 OA
ATOM      6  C   UNL     1       4.336   5.731  17.480  0.00  0.00    +0.000 A 
ATOM      7  C   UNL     1       4.690   6.668  16.508  0.00  0.00    +0.000 A 
ATOM      8  C   UNL     1       5.318   6.299  15.314  0.00  0.00    +0.000 A 
ATOM      9  C   UNL     1       5.673   4.975  15.100  0.00  0.00    +0.000 A 
ATOM     10  C   UNL     1       5.406   4.030  16.084  0.00  0.00    +0.000 A 
ATOM     11  C   UNL     1       4.736   4.395  17.256  0.00  0.00    +0.000 A 
ATOM     12  O   UNL     1       4.511   3.355  18.129  0.00  0.00    +0.000 OA
ENDROOT
BRANCH   1  13
ATOM     13  C   UNL     1       2.114   3.406  18.728  0.00  0.00    +0.000 C 
ATOM     14  O   UNL     1       1.763   2.885  17.676  0.00  0.00    +0.000 OA
BRANCH  13  16
ATOM     15  C   UNL     1       1.079   2.871  20.762  0.00  0.00    +0.000 C 
ATOM     16  O   UNL     1       1.252   3.817  19.704  0.00  0.00    +0.000 OA
ENDBRANCH  13  16
ENDBRANCH   1  13
BRANCH   4  17
ATOM     17  C   UNL     1       2.473   8.196  17.899  0.00  0.00    +0.000 C 
BRANCH  17  18
ATOM     18  O   UNL     1       1.313   8.902  18.340  0.00  0.00    +0.000 OA
BRANCH  18  19
ATOM     19  C   UNL     1       1.448  10.225  18.675  0.00  0.00    +0.000 A 
ATOM     20  C   UNL     1       2.251  11.125  17.973  0.00  0.00    +0.000 A 
ATOM     21  C   UNL     1       2.294  12.465  18.351  0.00  0.00    +0.000 A 
ATOM     22  C   UNL     1       1.539  12.913  19.433  0.00  0.00    +0.000 A 
ATOM     23  C   UNL     1       0.733  12.027  20.164  0.00  0.00    +0.000 A 
ATOM     24  C   UNL     1      -0.055  12.567  21.328  0.00  0.00    +0.000 C 
ATOM     25  C   UNL     1       0.685  10.667  19.783  0.00  0.00    +0.000 A 
ATOM     26  C   UNL     1      -0.149   9.662  20.543  0.00  0.00    +0.000 C 
ENDBRANCH  18  19
ENDBRANCH  17  18
ENDBRANCH   4  17
TORSDOF 5
ENDMDL
MODEL 9
REMARK VINA RESULT:      -7.7      0.729      1.525
REMARK  Name = 
REMARK  8 active torsions:
REMARK  status: ('A' for Active; 'I' for Inactive)
REMARK    1  A    between atoms: C_1  and  O_2
REMARK    2  A    between atoms: O_2  and  C_3
REMARK    3  A    between atoms: C_3  and  C_5
REMARK    4  A    between atoms: C_8  and  C_10
REMARK    5  A    between atoms: C_10  and  O_11
REMARK    6  A    between atoms: O_11  and  C_12
REMARK    7  A    between atoms: C_16  and  C_17
REMARK    8  A    between atoms: C_18  and  C_19
REMARK                            x       y       z     vdW  Elec       q    Type
REMARK                         _______ _______ _______ _____ _____    ______ ____
ROOT
ATOM      1  C   UNL     1       4.897   4.424  17.608  0.00  0.00    +0.000 C 
ATOM      2  C   UNL     1       3.698   5.295  17.268  0.00  0.00    +0.000 C 
ATOM      3  N   UNL     1       3.040   5.778  18.494  0.00  0.00    +0.000 N 
ATOM      4  C   UNL     1       2.793   7.147  18.595  0.00  0.00    +0.000 C 
ATOM      5  O   UNL     1       3.118   7.915  17.676  0.00  0.00    +0.000 OA
ATOM      6  C   UNL     1       2.822   4.742  19.457  0.00  0.00    +0.000 A 
ATOM      7  C   UNL     1       1.892   4.819  20.496  0.00  0.00    +0.000 A 
ATOM      8  C   UNL     1       1.774   3.816  21.463  0.00  0.00    +0.000 A 
ATOM      9  C   UNL     1       2.545   2.668  21.367  0.00  0.00    +0.000 A 
ATOM     10  C   UNL     1       3.425   2.525  20.299  0.00  0.00    +0.000 A 
ATOM     11  C   UNL     1       3.573   3.550  19.359  0.00  0.00    +0.000 A 
ATOM     12  O   UNL     1       4.498   3.287  18.374  0.00  0.00    +0.000 OA
ENDROOT
BRANCH   1  13
ATOM     13  C   UNL     1       6.020   5.230  18.260  0.00  0.00    +0.000 C 
ATOM     14  O   UNL     1       6.689   4.864  19.219  0.00  0.00    +0.000 OA
BRANCH  13  16
ATOM     15  C   UNL     1       7.498   6.997  17.829  0.00  0.00    +0.000 C 
ATOM     16  O   UNL     1       6.219   6.405  17.592  0.00  0.00    +0.000 OA
ENDBRANCH  13  16
ENDBRANCH   1  13
BRANCH   4  17
ATOM     17  C   UNL     1       2.170   7.766  19.846  0.00  0.00    +0.000 C 
BRANCH  17  18
ATOM     18  O   UNL     1       1.021   8.498  19.419  0.00  0.00    +0.000 OA
BRANCH  18  19
ATOM     19  C   UNL     1       0.794   9.731  19.975  0.00  0.00    +0.000 A 
ATOM     20  C   UNL     1       1.271  10.925  19.434  0.00  0.00    +0.000 A 
ATOM     21  C   UNL     1       0.953  12.140  20.036  0.00  0.00    +0.000 A 
ATOM     22  C   UNL     1       0.163  12.169  21.183  0.00  0.00    +0.000 A 
ATOM     23  C   UNL     1      -0.320  10.982  21.755  0.00  0.00    +0.000 A 
ATOM     24  C   UNL     1      -1.163  11.075  22.998  0.00  0.00    +0.000 C 
ATOM     25  C   UNL     1      -0.002   9.747  21.146  0.00  0.00    +0.000 A 
ATOM     26  C   UNL     1      -0.475   8.434  21.726  0.00  0.00    +0.000 C 
ENDBRANCH  18  19
ENDBRANCH  17  18
ENDBRANCH   4  17
TORSDOF 5
ENDMDL
