MODEL 1
REMARK VINA RESULT:      -7.9      0.000      0.000
REMARK  Name = 
REMARK  8 active torsions:
REMARK  status: ('A' for Active; 'I' for Inactive)
REMARK    1  A    between atoms: C_1  and  O_2
REMARK    2  A    between atoms: O_2  and  C_3
REMARK    3  A    between atoms: C_6  and  C_7
REMARK    4  A    between atoms: C_11  and  N_12
REMARK    5  A    between atoms: C_13  and  C_15
REMARK    6  A    between atoms: C_15  and  S_16
REMARK    7  A    between atoms: S_16  and  C_17
REMARK    8  A    between atoms: C_20  and  C_21
REMARK                            x       y       z     vdW  Elec       q    Type
REMARK                         _______ _______ _______ _____ _____    ______ ____
ROOT
ATOM      1  C   UNL     1      -0.019  10.676  21.227  0.00  0.00    +0.000 A 
ATOM      2  N   UNL     1       0.523   9.564  21.677  0.00  0.00    +0.000 NA
ATOM      3  C   UNL     1       1.066   8.997  20.564  0.00  0.00    +0.000 A 
ATOM      4  C   UNL     1       1.836   7.844  20.436  0.00  0.00    +0.000 A 
ATOM      5  C   UNL     1       2.337   7.493  19.178  0.00  0.00    +0.000 A 
ATOM      6  C   UNL     1       2.051   8.307  18.058  0.00  0.00    +0.000 A 
ATOM      7  C   UNL     1       1.254   9.462  18.168  0.00  0.00    +0.000 A 
ATOM      8  C   UNL     1       0.801   9.766  19.448  0.00  0.00    +0.000 A 
ATOM      9  O   UNL     1       0.077  10.850  19.862  0.00  0.00    +0.000 OA
ENDROOT
BRANCH   1  13
ATOM     10  C   UNL     1      -1.762  13.957  23.317  0.00  0.00    +0.000 A 
ATOM     11  C   UNL     1      -0.678  14.158  22.467  0.00  0.00    +0.000 A 
ATOM     12  C   UNL     1      -0.093  13.071  21.815  0.00  0.00    +0.000 A 
ATOM     13  C   UNL     1      -0.574  11.767  22.015  0.00  0.00    +0.000 A 
ATOM     14  C   UNL     1      -1.622  11.571  22.918  0.00  0.00    +0.000 A 
ATOM     15  C   UNL     1      -2.212  12.658  23.567  0.00  0.00    +0.000 A 
BRANCH  10  17
ATOM     16  C   UNL     1      -3.698  15.250  23.683  0.00  0.00    +0.000 C 
ATOM     17  O   UNL     1      -2.296  15.088  23.872  0.00  0.00    +0.000 OA
ENDBRANCH  10  17
ENDBRANCH   1  13
BRANCH   5  18
ATOM     18  N   UNL     1       3.166   6.360  19.011  0.00  0.00    +0.000 N 
ATOM     19  C   UNL     1       2.757   5.040  19.136  0.00  0.00    +0.000 C 
ATOM     20  O   UNL     1       1.586   4.662  19.193  0.00  0.00    +0.000 OA
ATOM     21  H   UNL     1       4.147   6.519  18.809  0.00  0.00    +0.000 HD
BRANCH  19  22
ATOM     22  C   UNL     1       3.846   3.987  19.088  0.00  0.00    +0.000 C 
BRANCH  22  23
ATOM     23  S   UNL     1       5.538   4.633  18.973  0.00  0.00    +0.000 S 
BRANCH  23  24
ATOM     24  C   UNL     1       5.901   4.536  17.224  0.00  0.00    +0.000 A 
ATOM     25  C   UNL     1       7.096   4.952  16.629  0.00  0.00    +0.000 A 
ATOM     26  C   UNL     1       7.294   4.792  15.250  0.00  0.00    +0.000 A 
ATOM     27  C   UNL     1       6.305   4.209  14.450  0.00  0.00    +0.000 A 
ATOM     28  C   UNL     1       6.505   4.001  12.978  0.00  0.00    +0.000 C 
ATOM     29  C   UNL     1       5.113   3.792  15.047  0.00  0.00    +0.000 A 
ATOM     30  C   UNL     1       4.917   3.951  16.420  0.00  0.00    +0.000 A 
ENDBRANCH  23  24
ENDBRANCH  22  23
ENDBRANCH  19  22
ENDBRANCH   5  18
TORSDOF 6
ENDMDL
MODEL 2
REMARK VINA RESULT:      -7.8      2.078      2.680
REMARK  Name = 
REMARK  8 active torsions:
REMARK  status: ('A' for Active; 'I' for Inactive)
REMARK    1  A    between atoms: C_1  and  O_2
REMARK    2  A    between atoms: O_2  and  C_3
REMARK    3  A    between atoms: C_6  and  C_7
REMARK    4  A    between atoms: C_11  and  N_12
REMARK    5  A    between atoms: C_13  and  C_15
REMARK    6  A    between atoms: C_15  and  S_16
REMARK    7  A    between atoms: S_16  and  C_17
REMARK    8  A    between atoms: C_20  and  C_21
REMARK                            x       y       z     vdW  Elec       q    Type
REMARK                         _______ _______ _______ _____ _____    ______ ____
ROOT
ATOM      1  C   UNL     1       0.623  11.050  19.643  0.00  0.00    +0.000 A 
ATOM      2  N   UNL     1       0.665  10.173  20.624  0.00  0.00    +0.000 NA
ATOM      3  C   UNL     1       1.248   9.081  20.055  0.00  0.00    +0.000 A 
ATOM      4  C   UNL     1       1.623   7.869  20.629  0.00  0.00    +0.000 A 
ATOM      5  C   UNL     1       2.268   6.910  19.841  0.00  0.00    +0.000 A 
ATOM      6  C   UNL     1       2.524   7.181  18.478  0.00  0.00    +0.000 A 
ATOM      7  C   UNL     1       2.128   8.392  17.877  0.00  0.00    +0.000 A 
ATOM      8  C   UNL     1       1.508   9.310  18.718  0.00  0.00    +0.000 A 
ATOM      9  O   UNL     1       1.086  10.579  18.432  0.00  0.00    +0.000 OA
ENDROOT
BRANCH   1  13
ATOM     10  C   UNL     1      -0.638  15.118  19.806  0.00  0.00    +0.000 A 
ATOM     11  C   UNL     1      -0.233  14.553  18.601  0.00  0.00    +0.000 A 
ATOM     12  C   UNL     1       0.212  13.230  18.565  0.00  0.00    +0.000 A 
ATOM     13  C   UNL     1       0.271  12.459  19.737  0.00  0.00    +0.000 A 
ATOM     14  C   UNL     1      -0.080  13.056  20.951  0.00  0.00    +0.000 A 
ATOM     15  C   UNL     1      -0.530  14.378  20.986  0.00  0.00    +0.000 A 
BRANCH  10  17
ATOM     16  C   UNL     1      -0.096  17.412  19.748  0.00  0.00    +0.000 C 
ATOM     17  O   UNL     1      -1.102  16.404  19.731  0.00  0.00    +0.000 OA
ENDBRANCH  10  17
ENDBRANCH   1  13
BRANCH   5  18
ATOM     18  N   UNL     1       2.713   5.688  20.395  0.00  0.00    +0.000 N 
ATOM     19  C   UNL     1       1.999   4.498  20.394  0.00  0.00    +0.000 C 
ATOM     20  O   UNL     1       0.985   4.280  19.728  0.00  0.00    +0.000 OA
ATOM     21  H   UNL     1       3.616   5.680  20.856  0.00  0.00    +0.000 HD
BRANCH  19  22
ATOM     22  C   UNL     1       2.588   3.355  21.194  0.00  0.00    +0.000 C 
BRANCH  22  23
ATOM     23  S   UNL     1       3.791   2.328  20.303  0.00  0.00    +0.000 S 
BRANCH  23  24
ATOM     24  C   UNL     1       4.338   3.392  18.972  0.00  0.00    +0.000 A 
ATOM     25  C   UNL     1       5.378   4.321  19.065  0.00  0.00    +0.000 A 
ATOM     26  C   UNL     1       5.755   5.077  17.945  0.00  0.00    +0.000 A 
ATOM     27  C   UNL     1       5.103   4.908  16.719  0.00  0.00    +0.000 A 
ATOM     28  C   UNL     1       5.507   5.684  15.501  0.00  0.00    +0.000 C 
ATOM     29  C   UNL     1       4.066   3.978  16.628  0.00  0.00    +0.000 A 
ATOM     30  C   UNL     1       3.691   3.226  17.743  0.00  0.00    +0.000 A 
ENDBRANCH  23  24
ENDBRANCH  22  23
ENDBRANCH  19  22
ENDBRANCH   5  18
TORSDOF 6
ENDMDL
MODEL 3
REMARK VINA RESULT:      -7.7      1.614      2.223
REMARK  Name = 
REMARK  8 active torsions:
REMARK  status: ('A' for Active; 'I' for Inactive)
REMARK    1  A    between atoms: C_1  and  O_2
REMARK    2  A    between atoms: O_2  and  C_3
REMARK    3  A    between atoms: C_6  and  C_7
REMARK    4  A    between atoms: C_11  and  N_12
REMARK    5  A    between atoms: C_13  and  C_15
REMARK    6  A    between atoms: C_15  and  S_16
REMARK    7  A    between atoms: S_16  and  C_17
REMARK    8  A    between atoms: C_20  and  C_21
REMARK                            x       y       z     vdW  Elec       q    Type
REMARK                         _______ _______ _______ _____ _____    ______ ____
ROOT
ATOM      1  C   UNL     1      -0.332  11.010  20.637  0.00  0.00    +0.000 A 
ATOM      2  N   UNL     1      -0.018   9.930  21.320  0.00  0.00    +0.000 NA
ATOM      3  C   UNL     1       0.745   9.210  20.450  0.00  0.00    +0.000 A 
ATOM      4  C   UNL     1       1.423   8.010  20.643  0.00  0.00    +0.000 A 
ATOM      5  C   UNL     1       2.200   7.489  19.601  0.00  0.00    +0.000 A 
ATOM      6  C   UNL     1       2.279   8.183  18.373  0.00  0.00    +0.000 A 
ATOM      7  C   UNL     1       1.577   9.385  18.155  0.00  0.00    +0.000 A 
ATOM      8  C   UNL     1       0.839   9.858  19.234  0.00  0.00    +0.000 A 
ATOM      9  O   UNL     1       0.125  11.021  19.335  0.00  0.00    +0.000 OA
ENDROOT
BRANCH   1  13
ATOM     10  C   UNL     1      -2.376  14.378  22.266  0.00  0.00    +0.000 A 
ATOM     11  C   UNL     1      -2.996  13.567  21.320  0.00  0.00    +0.000 A 
ATOM     12  C   UNL     1      -2.304  12.487  20.767  0.00  0.00    +0.000 A 
ATOM     13  C   UNL     1      -0.979  12.213  21.141  0.00  0.00    +0.000 A 
ATOM     14  C   UNL     1      -0.348  13.070  22.046  0.00  0.00    +0.000 A 
ATOM     15  C   UNL     1      -1.041  14.148  22.604  0.00  0.00    +0.000 A 
BRANCH  10  17
ATOM     16  C   UNL     1      -4.161  14.955  23.693  0.00  0.00    +0.000 C 
ATOM     17  O   UNL     1      -3.151  15.380  22.784  0.00  0.00    +0.000 OA
ENDBRANCH  10  17
ENDBRANCH   1  13
BRANCH   5  18
ATOM     18  N   UNL     1       2.947   6.302  19.770  0.00  0.00    +0.000 N 
ATOM     19  C   UNL     1       2.530   5.030  19.403  0.00  0.00    +0.000 C 
ATOM     20  O   UNL     1       1.557   4.782  18.689  0.00  0.00    +0.000 OA
ATOM     21  H   UNL     1       3.853   6.375  20.220  0.00  0.00    +0.000 HD
BRANCH  19  22
ATOM     22  C   UNL     1       3.414   3.878  19.833  0.00  0.00    +0.000 C 
BRANCH  22  23
ATOM     23  S   UNL     1       4.561   3.270  18.564  0.00  0.00    +0.000 S 
BRANCH  23  24
ATOM     24  C   UNL     1       5.530   4.717  18.155  0.00  0.00    +0.000 A 
ATOM     25  C   UNL     1       5.251   5.598  17.106  0.00  0.00    +0.000 A 
ATOM     26  C   UNL     1       6.054   6.729  16.898  0.00  0.00    +0.000 A 
ATOM     27  C   UNL     1       7.140   6.998  17.738  0.00  0.00    +0.000 A 
ATOM     28  C   UNL     1       7.995   8.216  17.553  0.00  0.00    +0.000 C 
ATOM     29  C   UNL     1       7.415   6.118  18.787  0.00  0.00    +0.000 A 
ATOM     30  C   UNL     1       6.615   4.992  18.993  0.00  0.00    +0.000 A 
ENDBRANCH  23  24
ENDBRANCH  22  23
ENDBRANCH  19  22
ENDBRANCH   5  18
TORSDOF 6
ENDMDL
MODEL 4
REMARK VINA RESULT:      -7.7      2.778      3.488
REMARK  Name = 
REMARK  8 active torsions:
REMARK  status: ('A' for Active; 'I' for Inactive)
REMARK    1  A    between atoms: C_1  and  O_2
REMARK    2  A    between atoms: O_2  and  C_3
REMARK    3  A    between atoms: C_6  and  C_7
REMARK    4  A    between atoms: C_11  and  N_12
REMARK    5  A    between atoms: C_13  and  C_15
REMARK    6  A    between atoms: C_15  and  S_16
REMARK    7  A    between atoms: S_16  and  C_17
REMARK    8  A    between atoms: C_20  and  C_21
REMARK                            x       y       z     vdW  Elec       q    Type
REMARK                         _______ _______ _______ _____ _____    ______ ____
ROOT
ATOM      1  C   UNL     1       1.120  11.000  18.994  0.00  0.00    +0.000 A 
ATOM      2  N   UNL     1       1.000  10.261  20.078  0.00  0.00    +0.000 NA
ATOM      3  C   UNL     1       1.494   9.050  19.697  0.00  0.00    +0.000 A 
ATOM      4  C   UNL     1       1.693   7.894  20.446  0.00  0.00    +0.000 A 
ATOM      5  C   UNL     1       2.279   6.778  19.838  0.00  0.00    +0.000 A 
ATOM      6  C   UNL     1       2.653   6.838  18.477  0.00  0.00    +0.000 A 
ATOM      7  C   UNL     1       2.435   7.992  17.700  0.00  0.00    +0.000 A 
ATOM      8  C   UNL     1       1.865   9.072  18.367  0.00  0.00    +0.000 A 
ATOM      9  O   UNL     1       1.607  10.329  17.892  0.00  0.00    +0.000 OA
ENDROOT
BRANCH   1  13
ATOM     10  C   UNL     1       0.500  15.217  18.930  0.00  0.00    +0.000 A 
ATOM     11  C   UNL     1      -0.577  14.348  19.080  0.00  0.00    +0.000 A 
ATOM     12  C   UNL     1      -0.366  12.968  19.064  0.00  0.00    +0.000 A 
ATOM     13  C   UNL     1       0.921  12.438  18.884  0.00  0.00    +0.000 A 
ATOM     14  C   UNL     1       1.985  13.319  18.673  0.00  0.00    +0.000 A 
ATOM     15  C   UNL     1       1.776  14.701  18.694  0.00  0.00    +0.000 A 
BRANCH  10  17
ATOM     16  C   UNL     1      -1.171  16.848  19.257  0.00  0.00    +0.000 C 
ATOM     17  O   UNL     1       0.199  16.550  19.008  0.00  0.00    +0.000 OA
ENDBRANCH  10  17
ENDBRANCH   1  13
BRANCH   5  18
ATOM     18  N   UNL     1       2.547   5.601  20.574  0.00  0.00    +0.000 N 
ATOM     19  C   UNL     1       1.699   4.508  20.680  0.00  0.00    +0.000 C 
ATOM     20  O   UNL     1       0.702   4.314  19.982  0.00  0.00    +0.000 OA
ATOM     21  H   UNL     1       3.418   5.557  21.091  0.00  0.00    +0.000 HD
BRANCH  19  22
ATOM     22  C   UNL     1       2.108   3.427  21.659  0.00  0.00    +0.000 C 
BRANCH  22  23
ATOM     23  S   UNL     1       3.297   2.215  21.018  0.00  0.00    +0.000 S 
BRANCH  23  24
ATOM     24  C   UNL     1       3.752   2.884  19.423  0.00  0.00    +0.000 A 
ATOM     25  C   UNL     1       2.984   2.777  18.260  0.00  0.00    +0.000 A 
ATOM     26  C   UNL     1       3.415   3.376  17.068  0.00  0.00    +0.000 A 
ATOM     27  C   UNL     1       4.614   4.097  17.024  0.00  0.00    +0.000 A 
ATOM     28  C   UNL     1       5.080   4.771  15.769  0.00  0.00    +0.000 C 
ATOM     29  C   UNL     1       5.378   4.206  18.188  0.00  0.00    +0.000 A 
ATOM     30  C   UNL     1       4.948   3.608  19.374  0.00  0.00    +0.000 A 
ENDBRANCH  23  24
ENDBRANCH  22  23
ENDBRANCH  19  22
ENDBRANCH   5  18
TORSDOF 6
ENDMDL
MODEL 5
REMARK VINA RESULT:      -7.7      5.262      8.639
REMARK  Name = 
REMARK  8 active torsions:
REMARK  status: ('A' for Active; 'I' for Inactive)
REMARK    1  A    between atoms: C_1  and  O_2
REMARK    2  A    between atoms: O_2  and  C_3
REMARK    3  A    between atoms: C_6  and  C_7
REMARK    4  A    between atoms: C_11  and  N_12
REMARK    5  A    between atoms: C_13  and  C_15
REMARK    6  A    between atoms: C_15  and  S_16
REMARK    7  A    between atoms: S_16  and  C_17
REMARK    8  A    between atoms: C_20  and  C_21
REMARK                            x       y       z     vdW  Elec       q    Type
REMARK                         _______ _______ _______ _____ _____    ______ ____
ROOT
ATOM      1  C   UNL     1       8.374   9.284  18.037  0.00  0.00    +0.000 A 
ATOM      2  N   UNL     1       7.393   8.843  17.278  0.00  0.00    +0.000 NA
ATOM      3  C   UNL     1       7.219   7.557  17.691  0.00  0.00    +0.000 A 
ATOM      4  C   UNL     1       6.269   6.616  17.302  0.00  0.00    +0.000 A 
ATOM      5  C   UNL     1       6.256   5.362  17.922  0.00  0.00    +0.000 A 
ATOM      6  C   UNL     1       7.206   5.067  18.926  0.00  0.00    +0.000 A 
ATOM      7  C   UNL     1       8.188   5.999  19.312  0.00  0.00    +0.000 A 
ATOM      8  C   UNL     1       8.137   7.232  18.671  0.00  0.00    +0.000 A 
ATOM      9  O   UNL     1       8.908   8.341  18.890  0.00  0.00    +0.000 OA
ENDROOT
BRANCH   1  13
ATOM     10  C   UNL     1       9.934  13.247  18.197  0.00  0.00    +0.000 A 
ATOM     11  C   UNL     1      10.640  12.188  18.760  0.00  0.00    +0.000 A 
ATOM     12  C   UNL     1      10.103  10.900  18.733  0.00  0.00    +0.000 A 
ATOM     13  C   UNL     1       8.846  10.656  18.156  0.00  0.00    +0.000 A 
ATOM     14  C   UNL     1       8.121  11.736  17.648  0.00  0.00    +0.000 A 
ATOM     15  C   UNL     1       8.660  13.025  17.669  0.00  0.00    +0.000 A 
BRANCH  10  17
ATOM     16  C   UNL     1      11.884  14.474  17.696  0.00  0.00    +0.000 C 
ATOM     17  O   UNL     1      10.564  14.462  18.230  0.00  0.00    +0.000 OA
ENDBRANCH  10  17
ENDBRANCH   1  13
BRANCH   5  18
ATOM     18  N   UNL     1       5.278   4.395  17.596  0.00  0.00    +0.000 N 
ATOM     19  C   UNL     1       4.774   3.436  18.463  0.00  0.00    +0.000 C 
ATOM     20  O   UNL     1       4.942   3.427  19.684  0.00  0.00    +0.000 OA
ATOM     21  H   UNL     1       4.930   4.379  16.643  0.00  0.00    +0.000 HD
BRANCH  19  22
ATOM     22  C   UNL     1       3.861   2.390  17.859  0.00  0.00    +0.000 C 
BRANCH  22  23
ATOM     23  S   UNL     1       2.169   2.950  17.512  0.00  0.00    +0.000 S 
BRANCH  23  24
ATOM     24  C   UNL     1       1.955   4.335  18.624  0.00  0.00    +0.000 A 
ATOM     25  C   UNL     1       1.571   4.234  19.964  0.00  0.00    +0.000 A 
ATOM     26  C   UNL     1       1.474   5.384  20.762  0.00  0.00    +0.000 A 
ATOM     27  C   UNL     1       1.765   6.646  20.233  0.00  0.00    +0.000 A 
ATOM     28  C   UNL     1       1.696   7.886  21.073  0.00  0.00    +0.000 C 
ATOM     29  C   UNL     1       2.152   6.744  18.894  0.00  0.00    +0.000 A 
ATOM     30  C   UNL     1       2.249   5.598  18.101  0.00  0.00    +0.000 A 
ENDBRANCH  23  24
ENDBRANCH  22  23
ENDBRANCH  19  22
ENDBRANCH   5  18
TORSDOF 6
ENDMDL
MODEL 6
REMARK VINA RESULT:      -7.6      1.910      2.499
REMARK  Name = 
REMARK  8 active torsions:
REMARK  status: ('A' for Active; 'I' for Inactive)
REMARK    1  A    between atoms: C_1  and  O_2
REMARK    2  A    between atoms: O_2  and  C_3
REMARK    3  A    between atoms: C_6  and  C_7
REMARK    4  A    between atoms: C_11  and  N_12
REMARK    5  A    between atoms: C_13  and  C_15
REMARK    6  A    between atoms: C_15  and  S_16
REMARK    7  A    between atoms: S_16  and  C_17
REMARK    8  A    between atoms: C_20  and  C_21
REMARK                            x       y       z     vdW  Elec       q    Type
REMARK                         _______ _______ _______ _____ _____    ______ ____
ROOT
ATOM      1  C   UNL     1       0.518  10.959  19.629  0.00  0.00    +0.000 A 
ATOM      2  N   UNL     1       0.557  10.054  20.584  0.00  0.00    +0.000 NA
ATOM      3  C   UNL     1       1.185   8.996  19.999  0.00  0.00    +0.000 A 
ATOM      4  C   UNL     1       1.577   7.778  20.548  0.00  0.00    +0.000 A 
ATOM      5  C   UNL     1       2.270   6.860  19.750  0.00  0.00    +0.000 A 
ATOM      6  C   UNL     1       2.556   7.180  18.404  0.00  0.00    +0.000 A 
ATOM      7  C   UNL     1       2.144   8.398  17.828  0.00  0.00    +0.000 A 
ATOM      8  C   UNL     1       1.475   9.272  18.678  0.00  0.00    +0.000 A 
ATOM      9  O   UNL     1       1.028  10.539  18.418  0.00  0.00    +0.000 OA
ENDROOT
BRANCH   1  13
ATOM     10  C   UNL     1      -0.422  15.084  20.154  0.00  0.00    +0.000 A 
ATOM     11  C   UNL     1      -0.663  14.170  21.175  0.00  0.00    +0.000 A 
ATOM     12  C   UNL     1      -0.384  12.816  20.980  0.00  0.00    +0.000 A 
ATOM     13  C   UNL     1       0.125  12.355  19.755  0.00  0.00    +0.000 A 
ATOM     14  C   UNL     1       0.305  13.273  18.717  0.00  0.00    +0.000 A 
ATOM     15  C   UNL     1       0.032  14.629  18.913  0.00  0.00    +0.000 A 
BRANCH  10  17
ATOM     16  C   UNL     1      -1.140  16.626  21.785  0.00  0.00    +0.000 C 
ATOM     17  O   UNL     1      -0.682  16.393  20.457  0.00  0.00    +0.000 OA
ENDBRANCH  10  17
ENDBRANCH   1  13
BRANCH   5  18
ATOM     18  N   UNL     1       2.732   5.634  20.280  0.00  0.00    +0.000 N 
ATOM     19  C   UNL     1       2.099   4.408  20.139  0.00  0.00    +0.000 C 
ATOM     20  O   UNL     1       1.173   4.173  19.360  0.00  0.00    +0.000 OA
ATOM     21  H   UNL     1       3.583   5.650  20.832  0.00  0.00    +0.000 HD
BRANCH  19  22
ATOM     22  C   UNL     1       2.675   3.253  20.933  0.00  0.00    +0.000 C 
BRANCH  22  23
ATOM     23  S   UNL     1       4.084   2.411  20.159  0.00  0.00    +0.000 S 
BRANCH  23  24
ATOM     24  C   UNL     1       4.547   3.516  18.829  0.00  0.00    +0.000 A 
ATOM     25  C   UNL     1       5.544   4.492  18.909  0.00  0.00    +0.000 A 
ATOM     26  C   UNL     1       5.857   5.279  17.791  0.00  0.00    +0.000 A 
ATOM     27  C   UNL     1       5.184   5.094  16.578  0.00  0.00    +0.000 A 
ATOM     28  C   UNL     1       5.521   5.902  15.361  0.00  0.00    +0.000 C 
ATOM     29  C   UNL     1       4.191   4.116  16.500  0.00  0.00    +0.000 A 
ATOM     30  C   UNL     1       3.880   3.333  17.614  0.00  0.00    +0.000 A 
ENDBRANCH  23  24
ENDBRANCH  22  23
ENDBRANCH  19  22
ENDBRANCH   5  18
TORSDOF 6
ENDMDL
MODEL 7
REMARK VINA RESULT:      -7.6      2.029      3.371
REMARK  Name = 
REMARK  8 active torsions:
REMARK  status: ('A' for Active; 'I' for Inactive)
REMARK    1  A    between atoms: C_1  and  O_2
REMARK    2  A    between atoms: O_2  and  C_3
REMARK    3  A    between atoms: C_6  and  C_7
REMARK    4  A    between atoms: C_11  and  N_12
REMARK    5  A    between atoms: C_13  and  C_15
REMARK    6  A    between atoms: C_15  and  S_16
REMARK    7  A    between atoms: S_16  and  C_17
REMARK    8  A    between atoms: C_20  and  C_21
REMARK                            x       y       z     vdW  Elec       q    Type
REMARK                         _______ _______ _______ _____ _____    ______ ____
ROOT
ATOM      1  C   UNL     1       0.083  10.469  20.643  0.00  0.00    +0.000 A 
ATOM      2  N   UNL     1       0.617  10.436  19.440  0.00  0.00    +0.000 NA
ATOM      3  C   UNL     1       1.272   9.242  19.412  0.00  0.00    +0.000 A 
ATOM      4  C   UNL     1       1.959   8.627  18.368  0.00  0.00    +0.000 A 
ATOM      5  C   UNL     1       2.506   7.355  18.567  0.00  0.00    +0.000 A 
ATOM      6  C   UNL     1       2.361   6.718  19.820  0.00  0.00    +0.000 A 
ATOM      7  C   UNL     1       1.691   7.338  20.892  0.00  0.00    +0.000 A 
ATOM      8  C   UNL     1       1.155   8.594  20.625  0.00  0.00    +0.000 A 
ATOM      9  O   UNL     1       0.401   9.391  21.442  0.00  0.00    +0.000 OA
ENDROOT
BRANCH   1  13
ATOM     10  C   UNL     1      -2.940  13.140  22.021  0.00  0.00    +0.000 A 
ATOM     11  C   UNL     1      -2.569  13.126  20.680  0.00  0.00    +0.000 A 
ATOM     12  C   UNL     1      -1.553  12.272  20.246  0.00  0.00    +0.000 A 
ATOM     13  C   UNL     1      -0.885  11.431  21.150  0.00  0.00    +0.000 A 
ATOM     14  C   UNL     1      -1.224  11.498  22.504  0.00  0.00    +0.000 A 
ATOM     15  C   UNL     1      -2.244  12.348  22.938  0.00  0.00    +0.000 A 
BRANCH  10  17
ATOM     16  C   UNL     1      -3.796  15.336  21.963  0.00  0.00    +0.000 C 
ATOM     17  O   UNL     1      -3.977  13.975  22.340  0.00  0.00    +0.000 OA
ENDBRANCH  10  17
ENDBRANCH   1  13
BRANCH   5  18
ATOM     18  N   UNL     1       3.165   6.671  17.520  0.00  0.00    +0.000 N 
ATOM     19  C   UNL     1       4.541   6.553  17.378  0.00  0.00    +0.000 C 
ATOM     20  O   UNL     1       5.370   6.833  18.245  0.00  0.00    +0.000 OA
ATOM     21  H   UNL     1       2.592   6.253  16.796  0.00  0.00    +0.000 HD
BRANCH  19  22
ATOM     22  C   UNL     1       5.036   5.928  16.090  0.00  0.00    +0.000 C 
BRANCH  22  23
ATOM     23  S   UNL     1       5.202   4.121  16.124  0.00  0.00    +0.000 S 
BRANCH  23  24
ATOM     24  C   UNL     1       4.146   3.633  17.483  0.00  0.00    +0.000 A 
ATOM     25  C   UNL     1       4.554   3.522  18.815  0.00  0.00    +0.000 A 
ATOM     26  C   UNL     1       3.632   3.172  19.812  0.00  0.00    +0.000 A 
ATOM     27  C   UNL     1       2.290   2.936  19.492  0.00  0.00    +0.000 A 
ATOM     28  C   UNL     1       1.280   2.589  20.544  0.00  0.00    +0.000 C 
ATOM     29  C   UNL     1       1.884   3.050  18.161  0.00  0.00    +0.000 A 
ATOM     30  C   UNL     1       2.803   3.399  17.169  0.00  0.00    +0.000 A 
ENDBRANCH  23  24
ENDBRANCH  22  23
ENDBRANCH  19  22
ENDBRANCH   5  18
TORSDOF 6
ENDMDL
MODEL 8
REMARK VINA RESULT:      -7.5      0.884      1.287
REMARK  Name = 
REMARK  8 active torsions:
REMARK  status: ('A' for Active; 'I' for Inactive)
REMARK    1  A    between atoms: C_1  and  O_2
REMARK    2  A    between atoms: O_2  and  C_3
REMARK    3  A    between atoms: C_6  and  C_7
REMARK    4  A    between atoms: C_11  and  N_12
REMARK    5  A    between atoms: C_13  and  C_15
REMARK    6  A    between atoms: C_15  and  S_16
REMARK    7  A    between atoms: S_16  and  C_17
REMARK    8  A    between atoms: C_20  and  C_21
REMARK                            x       y       z     vdW  Elec       q    Type
REMARK                         _______ _______ _______ _____ _____    ______ ____
ROOT
ATOM      1  C   UNL     1      -0.387  10.853  20.655  0.00  0.00    +0.000 A 
ATOM      2  N   UNL     1       0.101   9.769  21.221  0.00  0.00    +0.000 NA
ATOM      3  C   UNL     1       0.822   9.183  20.224  0.00  0.00    +0.000 A 
ATOM      4  C   UNL     1       1.625   8.047  20.255  0.00  0.00    +0.000 A 
ATOM      5  C   UNL     1       2.322   7.671  19.101  0.00  0.00    +0.000 A 
ATOM      6  C   UNL     1       2.196   8.443  17.925  0.00  0.00    +0.000 A 
ATOM      7  C   UNL     1       1.368   9.581  17.871  0.00  0.00    +0.000 A 
ATOM      8  C   UNL     1       0.717   9.911  19.055  0.00  0.00    +0.000 A 
ATOM      9  O   UNL     1      -0.085  10.989  19.316  0.00  0.00    +0.000 OA
ENDROOT
BRANCH   1  13
ATOM     10  C   UNL     1      -2.629  13.920  22.589  0.00  0.00    +0.000 A 
ATOM     11  C   UNL     1      -2.842  13.632  21.244  0.00  0.00    +0.000 A 
ATOM     12  C   UNL     1      -2.077  12.650  20.612  0.00  0.00    +0.000 A 
ATOM     13  C   UNL     1      -1.079  11.952  21.312  0.00  0.00    +0.000 A 
ATOM     14  C   UNL     1      -0.834  12.293  22.644  0.00  0.00    +0.000 A 
ATOM     15  C   UNL     1      -1.602  13.272  23.280  0.00  0.00    +0.000 A 
BRANCH  10  17
ATOM     16  C   UNL     1      -2.878  16.150  23.310  0.00  0.00    +0.000 C 
ATOM     17  O   UNL     1      -3.460  14.863  23.131  0.00  0.00    +0.000 OA
ENDBRANCH  10  17
ENDBRANCH   1  13
BRANCH   5  18
ATOM     18  N   UNL     1       3.189   6.555  19.102  0.00  0.00    +0.000 N 
ATOM     19  C   UNL     1       2.930   5.335  19.710  0.00  0.00    +0.000 C 
ATOM     20  O   UNL     1       1.833   4.978  20.143  0.00  0.00    +0.000 OA
ATOM     21  H   UNL     1       4.089   6.657  18.645  0.00  0.00    +0.000 HD
BRANCH  19  22
ATOM     22  C   UNL     1       4.069   4.337  19.738  0.00  0.00    +0.000 C 
BRANCH  22  23
ATOM     23  S   UNL     1       5.684   4.994  19.235  0.00  0.00    +0.000 S 
BRANCH  23  24
ATOM     24  C   UNL     1       5.776   4.581  17.496  0.00  0.00    +0.000 A 
ATOM     25  C   UNL     1       4.738   4.015  16.751  0.00  0.00    +0.000 A 
ATOM     26  C   UNL     1       4.902   3.769  15.380  0.00  0.00    +0.000 A 
ATOM     27  C   UNL     1       6.102   4.091  14.736  0.00  0.00    +0.000 A 
ATOM     28  C   UNL     1       6.290   3.864  13.266  0.00  0.00    +0.000 C 
ATOM     29  C   UNL     1       7.137   4.659  15.482  0.00  0.00    +0.000 A 
ATOM     30  C   UNL     1       6.972   4.904  16.847  0.00  0.00    +0.000 A 
ENDBRANCH  23  24
ENDBRANCH  22  23
ENDBRANCH  19  22
ENDBRANCH   5  18
TORSDOF 6
ENDMDL
MODEL 9
REMARK VINA RESULT:      -7.5      4.032     10.740
REMARK  Name = 
REMARK  8 active torsions:
REMARK  status: ('A' for Active; 'I' for Inactive)
REMARK    1  A    between atoms: C_1  and  O_2
REMARK    2  A    between atoms: O_2  and  C_3
REMARK    3  A    between atoms: C_6  and  C_7
REMARK    4  A    between atoms: C_11  and  N_12
REMARK    5  A    between atoms: C_13  and  C_15
REMARK    6  A    between atoms: C_15  and  S_16
REMARK    7  A    between atoms: S_16  and  C_17
REMARK    8  A    between atoms: C_20  and  C_21
REMARK                            x       y       z     vdW  Elec       q    Type
REMARK                         _______ _______ _______ _____ _____    ______ ____
ROOT
ATOM      1  C   UNL     1       1.349   8.472  19.945  0.00  0.00    +0.000 A 
ATOM      2  N   UNL     1       0.793   9.612  19.591  0.00  0.00    +0.000 NA
ATOM      3  C   UNL     1       0.172  10.034  20.727  0.00  0.00    +0.000 A 
ATOM      4  C   UNL     1      -0.516  11.218  20.980  0.00  0.00    +0.000 A 
ATOM      5  C   UNL     1      -1.022  11.454  22.263  0.00  0.00    +0.000 A 
ATOM      6  C   UNL     1      -0.833  10.489  23.278  0.00  0.00    +0.000 A 
ATOM      7  C   UNL     1      -0.161   9.277  23.031  0.00  0.00    +0.000 A 
ATOM      8  C   UNL     1       0.333   9.110  21.741  0.00  0.00    +0.000 A 
ATOM      9  O   UNL     1       1.079   8.079  21.240  0.00  0.00    +0.000 OA
ENDROOT
BRANCH   1  13
ATOM     10  C   UNL     1       3.926   5.990  17.628  0.00  0.00    +0.000 A 
ATOM     11  C   UNL     1       3.475   5.569  18.875  0.00  0.00    +0.000 A 
ATOM     12  C   UNL     1       2.659   6.405  19.641  0.00  0.00    +0.000 A 
ATOM     13  C   UNL     1       2.297   7.679  19.176  0.00  0.00    +0.000 A 
ATOM     14  C   UNL     1       2.806   8.115  17.951  0.00  0.00    +0.000 A 
ATOM     15  C   UNL     1       3.618   7.277  17.181  0.00  0.00    +0.000 A 
BRANCH  10  17
ATOM     16  C   UNL     1       4.222   3.736  17.006  0.00  0.00    +0.000 C 
ATOM     17  O   UNL     1       4.679   5.083  16.933  0.00  0.00    +0.000 OA
ENDBRANCH  10  17
ENDBRANCH   1  13
BRANCH   5  18
ATOM     18  N   UNL     1      -1.681  12.664  22.578  0.00  0.00    +0.000 N 
ATOM     19  C   UNL     1      -2.920  12.768  23.194  0.00  0.00    +0.000 C 
ATOM     20  O   UNL     1      -3.517  11.842  23.746  0.00  0.00    +0.000 OA
ATOM     21  H   UNL     1      -1.229  13.531  22.309  0.00  0.00    +0.000 HD
BRANCH  19  22
ATOM     22  C   UNL     1      -3.519  14.157  23.280  0.00  0.00    +0.000 C 
BRANCH  22  23
ATOM     23  S   UNL     1      -4.145  14.825  21.713  0.00  0.00    +0.000 S 
BRANCH  23  24
ATOM     24  C   UNL     1      -5.018  13.441  20.991  0.00  0.00    +0.000 A 
ATOM     25  C   UNL     1      -6.218  12.911  21.474  0.00  0.00    +0.000 A 
ATOM     26  C   UNL     1      -6.843  11.847  20.806  0.00  0.00    +0.000 A 
ATOM     27  C   UNL     1      -6.282  11.306  19.644  0.00  0.00    +0.000 A 
ATOM     28  C   UNL     1      -6.946  10.189  18.896  0.00  0.00    +0.000 C 
ATOM     29  C   UNL     1      -5.085  11.840  19.162  0.00  0.00    +0.000 A 
ATOM     30  C   UNL     1      -4.463  12.898  19.828  0.00  0.00    +0.000 A 
ENDBRANCH  23  24
ENDBRANCH  22  23
ENDBRANCH  19  22
ENDBRANCH   5  18
TORSDOF 6
ENDMDL
