MODEL 1
REMARK VINA RESULT:      -7.0      0.000      0.000
REMARK  Name = 
REMARK  8 active torsions:
REMARK  status: ('A' for Active; 'I' for Inactive)
REMARK    1  A    between atoms: C_1  and  C_2
REMARK    2  A    between atoms: C_2  and  C_3
REMARK    3  A    between atoms: C_2  and  C_4
REMARK    4  A    between atoms: C_7  and  C_8
REMARK    5  A    between atoms: C_8  and  N_9
REMARK    6  A    between atoms: N_9  and  C_10
REMARK    7  A    between atoms: N_9  and  C_11
REMARK    8  A    between atoms: C_11  and  C_12
REMARK                            x       y       z     vdW  Elec       q    Type
REMARK                         _______ _______ _______ _____ _____    ______ ____
ROOT
ATOM      1  C   UNL     1       2.280   4.284  19.203  0.00  0.00    +0.000 A 
ATOM      2  N   UNL     1       2.502   4.154  17.880  0.00  0.00    +0.000 NA
ATOM      3  C   UNL     1       3.557   4.824  17.379  0.00  0.00    +0.000 A 
ATOM      4  C   UNL     1       4.394   5.613  18.138  0.00  0.00    +0.000 A 
ATOM      5  C   UNL     1       4.099   5.649  19.482  0.00  0.00    +0.000 A 
ATOM      6  N   UNL     1       3.059   4.994  20.039  0.00  0.00    +0.000 NA
ENDROOT
BRANCH   1   8
ATOM      7  C   UNL     1       0.749   2.360  18.853  0.00  0.00    +0.000 C 
ATOM      8  C   UNL     1       1.111   3.517  19.780  0.00  0.00    +0.000 C 
ATOM      9  C   UNL     1       1.381   3.020  21.202  0.00  0.00    +0.000 C 
ENDBRANCH   1   8
BRANCH   4  10
ATOM     10  C   UNL     1       5.545   6.368  17.552  0.00  0.00    +0.000 C 
BRANCH  10  11
ATOM     11  N   UNL     1       6.862   5.784  17.879  0.00  0.00    +0.000 NA
ATOM     12  C   UNL     1       7.057   5.670  19.330  0.00  0.00    +0.000 C 
BRANCH  11  13
ATOM     13  C   UNL     1       7.021   4.440  17.266  0.00  0.00    +0.000 C 
BRANCH  13  14
ATOM     14  C   UNL     1       6.941   4.493  15.772  0.00  0.00    +0.000 A 
ATOM     15  N   UNL     1       6.074   3.695  15.057  0.00  0.00    +0.000 NA
ATOM     16  C   UNL     1       6.253   4.136  13.837  0.00  0.00    +0.000 A 
ATOM     17  O   UNL     1       7.184   5.119  13.734  0.00  0.00    +0.000 OA
ATOM     18  N   UNL     1       7.651   5.356  15.029  0.00  0.00    +0.000 NA
ENDBRANCH  13  14
ENDBRANCH  11  13
ENDBRANCH  10  11
ENDBRANCH   4  10
TORSDOF 5
ENDMDL
MODEL 2
REMARK VINA RESULT:      -6.8      1.694      2.902
REMARK  Name = 
REMARK  8 active torsions:
REMARK  status: ('A' for Active; 'I' for Inactive)
REMARK    1  A    between atoms: C_1  and  C_2
REMARK    2  A    between atoms: C_2  and  C_3
REMARK    3  A    between atoms: C_2  and  C_4
REMARK    4  A    between atoms: C_7  and  C_8
REMARK    5  A    between atoms: C_8  and  N_9
REMARK    6  A    between atoms: N_9  and  C_10
REMARK    7  A    between atoms: N_9  and  C_11
REMARK    8  A    between atoms: C_11  and  C_12
REMARK                            x       y       z     vdW  Elec       q    Type
REMARK                         _______ _______ _______ _____ _____    ______ ____
ROOT
ATOM      1  C   UNL     1       2.174   4.283  18.929  0.00  0.00    +0.000 A 
ATOM      2  N   UNL     1       2.490   3.411  17.951  0.00  0.00    +0.000 NA
ATOM      3  C   UNL     1       3.397   3.827  17.046  0.00  0.00    +0.000 A 
ATOM      4  C   UNL     1       3.996   5.067  17.076  0.00  0.00    +0.000 A 
ATOM      5  C   UNL     1       3.629   5.865  18.135  0.00  0.00    +0.000 A 
ATOM      6  N   UNL     1       2.730   5.500  19.073  0.00  0.00    +0.000 NA
ENDROOT
BRANCH   1   8
ATOM      7  C   UNL     1       0.482   2.549  19.474  0.00  0.00    +0.000 C 
ATOM      8  C   UNL     1       1.174   3.817  19.964  0.00  0.00    +0.000 C 
ATOM      9  C   UNL     1       1.812   3.601  21.338  0.00  0.00    +0.000 C 
ENDBRANCH   1   8
BRANCH   4  10
ATOM     10  C   UNL     1       4.981   5.514  16.042  0.00  0.00    +0.000 C 
BRANCH  10  11
ATOM     11  N   UNL     1       5.897   4.442  15.599  0.00  0.00    +0.000 NA
ATOM     12  C   UNL     1       5.747   4.161  14.165  0.00  0.00    +0.000 C 
BRANCH  11  13
ATOM     13  C   UNL     1       7.313   4.798  15.873  0.00  0.00    +0.000 C 
BRANCH  13  14
ATOM     14  C   UNL     1       7.522   5.206  17.298  0.00  0.00    +0.000 A 
ATOM     15  N   UNL     1       7.856   6.498  17.647  0.00  0.00    +0.000 NA
ATOM     16  C   UNL     1       7.830   6.433  18.954  0.00  0.00    +0.000 A 
ATOM     17  O   UNL     1       7.540   5.200  19.443  0.00  0.00    +0.000 OA
ATOM     18  N   UNL     1       7.340   4.375  18.335  0.00  0.00    +0.000 NA
ENDBRANCH  13  14
ENDBRANCH  11  13
ENDBRANCH  10  11
ENDBRANCH   4  10
TORSDOF 5
ENDMDL
MODEL 3
REMARK VINA RESULT:      -6.7      1.654      2.868
REMARK  Name = 
REMARK  8 active torsions:
REMARK  status: ('A' for Active; 'I' for Inactive)
REMARK    1  A    between atoms: C_1  and  C_2
REMARK    2  A    between atoms: C_2  and  C_3
REMARK    3  A    between atoms: C_2  and  C_4
REMARK    4  A    between atoms: C_7  and  C_8
REMARK    5  A    between atoms: C_8  and  N_9
REMARK    6  A    between atoms: N_9  and  C_10
REMARK    7  A    between atoms: N_9  and  C_11
REMARK    8  A    between atoms: C_11  and  C_12
REMARK                            x       y       z     vdW  Elec       q    Type
REMARK                         _______ _______ _______ _____ _____    ______ ____
ROOT
ATOM      1  C   UNL     1       2.455   4.052  19.242  0.00  0.00    +0.000 A 
ATOM      2  N   UNL     1       2.464   5.367  18.944  0.00  0.00    +0.000 NA
ATOM      3  C   UNL     1       3.270   5.748  17.936  0.00  0.00    +0.000 A 
ATOM      4  C   UNL     1       4.062   4.879  17.217  0.00  0.00    +0.000 A 
ATOM      5  C   UNL     1       3.951   3.557  17.579  0.00  0.00    +0.000 A 
ATOM      6  N   UNL     1       3.157   3.116  18.578  0.00  0.00    +0.000 NA
ENDROOT
BRANCH   1   8
ATOM      7  C   UNL     1       0.474   2.664  19.805  0.00  0.00    +0.000 C 
ATOM      8  C   UNL     1       1.536   3.609  20.359  0.00  0.00    +0.000 C 
ATOM      9  C   UNL     1       2.295   2.963  21.521  0.00  0.00    +0.000 C 
ENDBRANCH   1   8
BRANCH   4  10
ATOM     10  C   UNL     1       4.968   5.334  16.116  0.00  0.00    +0.000 C 
BRANCH  10  11
ATOM     11  N   UNL     1       5.798   4.251  15.551  0.00  0.00    +0.000 NA
ATOM     12  C   UNL     1       5.630   4.144  14.096  0.00  0.00    +0.000 C 
BRANCH  11  13
ATOM     13  C   UNL     1       7.237   4.462  15.854  0.00  0.00    +0.000 C 
BRANCH  13  14
ATOM     14  C   UNL     1       7.433   5.306  17.076  0.00  0.00    +0.000 A 
ATOM     15  N   UNL     1       7.567   4.753  18.332  0.00  0.00    +0.000 NA
ATOM     16  C   UNL     1       7.823   5.811  19.060  0.00  0.00    +0.000 A 
ATOM     17  O   UNL     1       7.826   6.976  18.363  0.00  0.00    +0.000 OA
ATOM     18  N   UNL     1       7.559   6.641  17.034  0.00  0.00    +0.000 NA
ENDBRANCH  13  14
ENDBRANCH  11  13
ENDBRANCH  10  11
ENDBRANCH   4  10
TORSDOF 5
ENDMDL
MODEL 4
REMARK VINA RESULT:      -6.7      1.715      2.810
REMARK  Name = 
REMARK  8 active torsions:
REMARK  status: ('A' for Active; 'I' for Inactive)
REMARK    1  A    between atoms: C_1  and  C_2
REMARK    2  A    between atoms: C_2  and  C_3
REMARK    3  A    between atoms: C_2  and  C_4
REMARK    4  A    between atoms: C_7  and  C_8
REMARK    5  A    between atoms: C_8  and  N_9
REMARK    6  A    between atoms: N_9  and  C_10
REMARK    7  A    between atoms: N_9  and  C_11
REMARK    8  A    between atoms: C_11  and  C_12
REMARK                            x       y       z     vdW  Elec       q    Type
REMARK                         _______ _______ _______ _____ _____    ______ ____
ROOT
ATOM      1  C   UNL     1       2.456   4.219  19.384  0.00  0.00    +0.000 A 
ATOM      2  N   UNL     1       3.397   3.358  18.950  0.00  0.00    +0.000 NA
ATOM      3  C   UNL     1       4.181   3.784  17.941  0.00  0.00    +0.000 A 
ATOM      4  C   UNL     1       4.066   5.025  17.353  0.00  0.00    +0.000 A 
ATOM      5  C   UNL     1       3.098   5.838  17.896  0.00  0.00    +0.000 A 
ATOM      6  N   UNL     1       2.286   5.466  18.908  0.00  0.00    +0.000 NA
ENDROOT
BRANCH   1   8
ATOM      7  C   UNL     1       0.474   2.855  20.001  0.00  0.00    +0.000 C 
ATOM      8  C   UNL     1       1.584   3.758  20.531  0.00  0.00    +0.000 C 
ATOM      9  C   UNL     1       2.385   3.058  21.631  0.00  0.00    +0.000 C 
ENDBRANCH   1   8
BRANCH   4  10
ATOM     10  C   UNL     1       4.935   5.465  16.217  0.00  0.00    +0.000 C 
BRANCH  10  11
ATOM     11  N   UNL     1       5.763   4.379  15.653  0.00  0.00    +0.000 NA
ATOM     12  C   UNL     1       5.513   4.198  14.218  0.00  0.00    +0.000 C 
BRANCH  11  13
ATOM     13  C   UNL     1       7.209   4.644  15.860  0.00  0.00    +0.000 C 
BRANCH  13  14
ATOM     14  C   UNL     1       7.463   5.426  17.111  0.00  0.00    +0.000 A 
ATOM     15  N   UNL     1       7.563   4.819  18.345  0.00  0.00    +0.000 NA
ATOM     16  C   UNL     1       7.888   5.830  19.111  0.00  0.00    +0.000 A 
ATOM     17  O   UNL     1       7.965   7.017  18.458  0.00  0.00    +0.000 OA
ATOM     18  N   UNL     1       7.675   6.751  17.118  0.00  0.00    +0.000 NA
ENDBRANCH  13  14
ENDBRANCH  11  13
ENDBRANCH  10  11
ENDBRANCH   4  10
TORSDOF 5
ENDMDL
MODEL 5
REMARK VINA RESULT:      -6.7      1.061      1.726
REMARK  Name = 
REMARK  8 active torsions:
REMARK  status: ('A' for Active; 'I' for Inactive)
REMARK    1  A    between atoms: C_1  and  C_2
REMARK    2  A    between atoms: C_2  and  C_3
REMARK    3  A    between atoms: C_2  and  C_4
REMARK    4  A    between atoms: C_7  and  C_8
REMARK    5  A    between atoms: C_8  and  N_9
REMARK    6  A    between atoms: N_9  and  C_10
REMARK    7  A    between atoms: N_9  and  C_11
REMARK    8  A    between atoms: C_11  and  C_12
REMARK                            x       y       z     vdW  Elec       q    Type
REMARK                         _______ _______ _______ _____ _____    ______ ____
ROOT
ATOM      1  C   UNL     1       3.447   3.711  19.145  0.00  0.00    +0.000 A 
ATOM      2  N   UNL     1       4.340   4.433  19.851  0.00  0.00    +0.000 NA
ATOM      3  C   UNL     1       4.932   5.455  19.204  0.00  0.00    +0.000 A 
ATOM      4  C   UNL     1       4.673   5.784  17.891  0.00  0.00    +0.000 A 
ATOM      5  C   UNL     1       3.721   5.006  17.274  0.00  0.00    +0.000 A 
ATOM      6  N   UNL     1       3.092   3.973  17.873  0.00  0.00    +0.000 NA
ENDROOT
BRANCH   1   8
ATOM      7  C   UNL     1       2.497   2.976  21.318  0.00  0.00    +0.000 C 
ATOM      8  C   UNL     1       2.759   2.576  19.868  0.00  0.00    +0.000 C 
ATOM      9  C   UNL     1       1.467   2.137  19.176  0.00  0.00    +0.000 C 
ENDBRANCH   1   8
BRANCH   4  10
ATOM     10  C   UNL     1       5.365   6.909  17.188  0.00  0.00    +0.000 C 
BRANCH  10  11
ATOM     11  N   UNL     1       6.769   6.612  16.839  0.00  0.00    +0.000 NA
ATOM     12  C   UNL     1       7.696   7.093  17.871  0.00  0.00    +0.000 C 
BRANCH  11  13
ATOM     13  C   UNL     1       6.978   5.154  16.646  0.00  0.00    +0.000 C 
BRANCH  13  14
ATOM     14  C   UNL     1       6.958   4.772  15.199  0.00  0.00    +0.000 A 
ATOM     15  N   UNL     1       6.115   3.795  14.713  0.00  0.00    +0.000 NA
ATOM     16  C   UNL     1       6.345   3.865  13.426  0.00  0.00    +0.000 A 
ATOM     17  O   UNL     1       7.284   4.781  13.079  0.00  0.00    +0.000 OA
ATOM     18  N   UNL     1       7.701   5.387  14.267  0.00  0.00    +0.000 NA
ENDBRANCH  13  14
ENDBRANCH  11  13
ENDBRANCH  10  11
ENDBRANCH   4  10
TORSDOF 5
ENDMDL
MODEL 6
REMARK VINA RESULT:      -6.7      1.115      1.498
REMARK  Name = 
REMARK  8 active torsions:
REMARK  status: ('A' for Active; 'I' for Inactive)
REMARK    1  A    between atoms: C_1  and  C_2
REMARK    2  A    between atoms: C_2  and  C_3
REMARK    3  A    between atoms: C_2  and  C_4
REMARK    4  A    between atoms: C_7  and  C_8
REMARK    5  A    between atoms: C_8  and  N_9
REMARK    6  A    between atoms: N_9  and  C_10
REMARK    7  A    between atoms: N_9  and  C_11
REMARK    8  A    between atoms: C_11  and  C_12
REMARK                            x       y       z     vdW  Elec       q    Type
REMARK                         _______ _______ _______ _____ _____    ______ ____
ROOT
ATOM      1  C   UNL     1       2.851   3.563  19.655  0.00  0.00    +0.000 A 
ATOM      2  N   UNL     1       3.947   2.835  19.363  0.00  0.00    +0.000 NA
ATOM      3  C   UNL     1       5.093   3.519  19.188  0.00  0.00    +0.000 A 
ATOM      4  C   UNL     1       5.190   4.890  19.290  0.00  0.00    +0.000 A 
ATOM      5  C   UNL     1       4.021   5.533  19.625  0.00  0.00    +0.000 A 
ATOM      6  N   UNL     1       2.845   4.899  19.818  0.00  0.00    +0.000 NA
ENDROOT
BRANCH   1   8
ATOM      7  C   UNL     1       0.492   3.751  20.408  0.00  0.00    +0.000 C 
ATOM      8  C   UNL     1       1.562   2.802  19.876  0.00  0.00    +0.000 C 
ATOM      9  C   UNL     1       1.082   2.084  18.613  0.00  0.00    +0.000 C 
ENDBRANCH   1   8
BRANCH   4  10
ATOM     10  C   UNL     1       6.473   5.628  19.065  0.00  0.00    +0.000 C 
BRANCH  10  11
ATOM     11  N   UNL     1       6.756   5.896  17.640  0.00  0.00    +0.000 NA
ATOM     12  C   UNL     1       7.553   7.117  17.467  0.00  0.00    +0.000 C 
BRANCH  11  13
ATOM     13  C   UNL     1       7.478   4.758  17.013  0.00  0.00    +0.000 C 
BRANCH  13  14
ATOM     14  C   UNL     1       7.104   4.582  15.575  0.00  0.00    +0.000 A 
ATOM     15  N   UNL     1       6.063   3.767  15.184  0.00  0.00    +0.000 NA
ATOM     16  C   UNL     1       6.021   3.991  13.895  0.00  0.00    +0.000 A 
ATOM     17  O   UNL     1       6.971   4.852  13.451  0.00  0.00    +0.000 OA
ATOM     18  N   UNL     1       7.703   5.245  14.573  0.00  0.00    +0.000 NA
ENDBRANCH  13  14
ENDBRANCH  11  13
ENDBRANCH  10  11
ENDBRANCH   4  10
TORSDOF 5
ENDMDL
MODEL 7
REMARK VINA RESULT:      -6.7      1.237      1.596
REMARK  Name = 
REMARK  8 active torsions:
REMARK  status: ('A' for Active; 'I' for Inactive)
REMARK    1  A    between atoms: C_1  and  C_2
REMARK    2  A    between atoms: C_2  and  C_3
REMARK    3  A    between atoms: C_2  and  C_4
REMARK    4  A    between atoms: C_7  and  C_8
REMARK    5  A    between atoms: C_8  and  N_9
REMARK    6  A    between atoms: N_9  and  C_10
REMARK    7  A    between atoms: N_9  and  C_11
REMARK    8  A    between atoms: C_11  and  C_12
REMARK                            x       y       z     vdW  Elec       q    Type
REMARK                         _______ _______ _______ _____ _____    ______ ____
ROOT
ATOM      1  C   UNL     1       2.666   3.829  19.943  0.00  0.00    +0.000 A 
ATOM      2  N   UNL     1       2.947   5.148  19.952  0.00  0.00    +0.000 NA
ATOM      3  C   UNL     1       4.151   5.508  19.470  0.00  0.00    +0.000 A 
ATOM      4  C   UNL     1       5.081   4.615  18.982  0.00  0.00    +0.000 A 
ATOM      5  C   UNL     1       4.679   3.299  18.986  0.00  0.00    +0.000 A 
ATOM      6  N   UNL     1       3.484   2.880  19.452  0.00  0.00    +0.000 NA
ENDROOT
BRANCH   1   8
ATOM      7  C   UNL     1       0.561   2.638  19.380  0.00  0.00    +0.000 C 
ATOM      8  C   UNL     1       1.307   3.415  20.461  0.00  0.00    +0.000 C 
ATOM      9  C   UNL     1       1.396   2.607  21.758  0.00  0.00    +0.000 C 
ENDBRANCH   1   8
BRANCH   4  10
ATOM     10  C   UNL     1       6.423   5.040  18.476  0.00  0.00    +0.000 C 
BRANCH  10  11
ATOM     11  N   UNL     1       6.501   6.480  18.151  0.00  0.00    +0.000 NA
ATOM     12  C   UNL     1       7.883   6.973  18.212  0.00  0.00    +0.000 C 
BRANCH  11  13
ATOM     13  C   UNL     1       5.951   6.756  16.799  0.00  0.00    +0.000 C 
BRANCH  13  14
ATOM     14  C   UNL     1       6.256   5.653  15.834  0.00  0.00    +0.000 A 
ATOM     15  N   UNL     1       5.305   4.728  15.457  0.00  0.00    +0.000 NA
ATOM     16  C   UNL     1       5.951   4.042  14.547  0.00  0.00    +0.000 A 
ATOM     17  O   UNL     1       7.232   4.445  14.354  0.00  0.00    +0.000 OA
ATOM     18  N   UNL     1       7.441   5.521  15.219  0.00  0.00    +0.000 NA
ENDBRANCH  13  14
ENDBRANCH  11  13
ENDBRANCH  10  11
ENDBRANCH   4  10
TORSDOF 5
ENDMDL
MODEL 8
REMARK VINA RESULT:      -6.6      1.810      3.092
REMARK  Name = 
REMARK  8 active torsions:
REMARK  status: ('A' for Active; 'I' for Inactive)
REMARK    1  A    between atoms: C_1  and  C_2
REMARK    2  A    between atoms: C_2  and  C_3
REMARK    3  A    between atoms: C_2  and  C_4
REMARK    4  A    between atoms: C_7  and  C_8
REMARK    5  A    between atoms: C_8  and  N_9
REMARK    6  A    between atoms: N_9  and  C_10
REMARK    7  A    between atoms: N_9  and  C_11
REMARK    8  A    between atoms: C_11  and  C_12
REMARK                            x       y       z     vdW  Elec       q    Type
REMARK                         _______ _______ _______ _____ _____    ______ ____
ROOT
ATOM      1  C   UNL     1       2.684   3.614  19.115  0.00  0.00    +0.000 A 
ATOM      2  N   UNL     1       2.404   4.874  18.727  0.00  0.00    +0.000 NA
ATOM      3  C   UNL     1       3.144   5.370  17.716  0.00  0.00    +0.000 A 
ATOM      4  C   UNL     1       4.143   4.665  17.081  0.00  0.00    +0.000 A 
ATOM      5  C   UNL     1       4.323   3.378  17.530  0.00  0.00    +0.000 A 
ATOM      6  N   UNL     1       3.610   2.827  18.535  0.00  0.00    +0.000 NA
ENDROOT
BRANCH   1   8
ATOM      7  C   UNL     1       2.753   2.582  21.372  0.00  0.00    +0.000 C 
ATOM      8  C   UNL     1       1.845   3.040  20.234  0.00  0.00    +0.000 C 
ATOM      9  C   UNL     1       0.787   4.025  20.737  0.00  0.00    +0.000 C 
ENDBRANCH   1   8
BRANCH   4  10
ATOM     10  C   UNL     1       4.967   5.249  15.976  0.00  0.00    +0.000 C 
BRANCH  10  11
ATOM     11  N   UNL     1       5.951   4.303  15.411  0.00  0.00    +0.000 NA
ATOM     12  C   UNL     1       5.712   4.064  13.982  0.00  0.00    +0.000 C 
BRANCH  11  13
ATOM     13  C   UNL     1       7.339   4.801  15.590  0.00  0.00    +0.000 C 
BRANCH  13  14
ATOM     14  C   UNL     1       7.609   5.212  17.004  0.00  0.00    +0.000 A 
ATOM     15  N   UNL     1       7.641   6.536  17.387  0.00  0.00    +0.000 NA
ATOM     16  C   UNL     1       7.792   6.433  18.684  0.00  0.00    +0.000 A 
ATOM     17  O   UNL     1       7.889   5.155  19.130  0.00  0.00    +0.000 OA
ATOM     18  N   UNL     1       7.773   4.334  18.006  0.00  0.00    +0.000 NA
ENDBRANCH  13  14
ENDBRANCH  11  13
ENDBRANCH  10  11
ENDBRANCH   4  10
TORSDOF 5
ENDMDL
MODEL 9
REMARK VINA RESULT:      -6.5      1.861      3.136
REMARK  Name = 
REMARK  8 active torsions:
REMARK  status: ('A' for Active; 'I' for Inactive)
REMARK    1  A    between atoms: C_1  and  C_2
REMARK    2  A    between atoms: C_2  and  C_3
REMARK    3  A    between atoms: C_2  and  C_4
REMARK    4  A    between atoms: C_7  and  C_8
REMARK    5  A    between atoms: C_8  and  N_9
REMARK    6  A    between atoms: N_9  and  C_10
REMARK    7  A    between atoms: N_9  and  C_11
REMARK    8  A    between atoms: C_11  and  C_12
REMARK                            x       y       z     vdW  Elec       q    Type
REMARK                         _______ _______ _______ _____ _____    ______ ____
ROOT
ATOM      1  C   UNL     1       2.753   5.171  19.288  0.00  0.00    +0.000 A 
ATOM      2  N   UNL     1       3.205   4.057  18.678  0.00  0.00    +0.000 NA
ATOM      3  C   UNL     1       3.949   4.239  17.570  0.00  0.00    +0.000 A 
ATOM      4  C   UNL     1       4.259   5.477  17.050  0.00  0.00    +0.000 A 
ATOM      5  C   UNL     1       3.777   6.546  17.769  0.00  0.00    +0.000 A 
ATOM      6  N   UNL     1       3.031   6.425  18.887  0.00  0.00    +0.000 NA
ENDROOT
BRANCH   1   8
ATOM      7  C   UNL     1       1.290   6.303  20.945  0.00  0.00    +0.000 C 
ATOM      8  C   UNL     1       1.935   4.978  20.545  0.00  0.00    +0.000 C 
ATOM      9  C   UNL     1       0.882   3.877  20.397  0.00  0.00    +0.000 C 
ENDBRANCH   1   8
BRANCH   4  10
ATOM     10  C   UNL     1       5.067   5.650  15.803  0.00  0.00    +0.000 C 
BRANCH  10  11
ATOM     11  N   UNL     1       5.898   4.475  15.471  0.00  0.00    +0.000 NA
ATOM     12  C   UNL     1       5.741   4.080  14.065  0.00  0.00    +0.000 C 
BRANCH  11  13
ATOM     13  C   UNL     1       7.335   4.741  15.737  0.00  0.00    +0.000 C 
BRANCH  13  14
ATOM     14  C   UNL     1       7.571   5.185  17.147  0.00  0.00    +0.000 A 
ATOM     15  N   UNL     1       7.777   6.509  17.472  0.00  0.00    +0.000 NA
ATOM     16  C   UNL     1       7.826   6.455  18.780  0.00  0.00    +0.000 A 
ATOM     17  O   UNL     1       7.699   5.203  19.288  0.00  0.00    +0.000 OA
ATOM     18  N   UNL     1       7.534   4.349  18.196  0.00  0.00    +0.000 NA
ENDBRANCH  13  14
ENDBRANCH  11  13
ENDBRANCH  10  11
ENDBRANCH   4  10
TORSDOF 5
ENDMDL
