MODEL 1
REMARK VINA RESULT:      -7.0      0.000      0.000
REMARK  Name = 
REMARK  6 active torsions:
REMARK  status: ('A' for Active; 'I' for Inactive)
REMARK    1  A    between atoms: C_1  and  C_2
REMARK    2  A    between atoms: C_4  and  C_5
REMARK    3  A    between atoms: C_8  and  C_9
REMARK    4  A    between atoms: C_9  and  S_10
REMARK    5  A    between atoms: S_10  and  C_11
REMARK    6  A    between atoms: N_15  and  C_16
REMARK                            x       y       z     vdW  Elec       q    Type
REMARK                         _______ _______ _______ _____ _____    ______ ____
ROOT
ATOM      1  C   UNL     1       7.765   7.759  17.464  0.00  0.00    +0.000 C 
ATOM      2  C   UNL     1       6.678   6.738  17.218  0.00  0.00    +0.000 A 
ATOM      3  C   UNL     1       6.986   5.656  16.230  0.00  0.00    +0.000 A 
ATOM      4  C   UNL     1       6.018   4.748  16.014  0.00  0.00    +0.000 A 
ATOM      5  C   UNL     1       6.195   3.614  15.053  0.00  0.00    +0.000 C 
ATOM      6  N   UNL     1       4.817   4.886  16.720  0.00  0.00    +0.000 N 
ATOM      7  C   UNL     1       3.679   4.115  16.707  0.00  0.00    +0.000 A 
ATOM      8  C   UNL     1       2.805   4.705  17.598  0.00  0.00    +0.000 A 
ATOM      9  N   UNL     1       3.393   5.820  18.157  0.00  0.00    +0.000 NA
ATOM     10  C   UNL     1       4.597   5.923  17.627  0.00  0.00    +0.000 A 
ATOM     11  N   UNL     1       5.560   6.860  17.870  0.00  0.00    +0.000 NA
ENDROOT
BRANCH   8  12
ATOM     12  C   UNL     1       1.446   4.245  18.026  0.00  0.00    +0.000 C 
BRANCH  12  13
ATOM     13  S   UNL     1       1.412   2.466  18.437  0.00  0.00    +0.000 S 
BRANCH  13  14
ATOM     14  C   UNL     1       1.816   2.530  20.119  0.00  0.00    +0.000 A 
ATOM     15  N   UNL     1       0.986   2.703  21.123  0.00  0.00    +0.000 NA
ATOM     16  N   UNL     1       1.761   2.700  22.260  0.00  0.00    +0.000 NA
ATOM     17  N   UNL     1       3.043   2.535  21.962  0.00  0.00    +0.000 NA
ATOM     18  N   UNL     1       3.085   2.424  20.622  0.00  0.00    +0.000 N 
ATOM     19  C   UNL     1       4.342   2.244  19.955  0.00  0.00    +0.000 C 
ENDBRANCH  13  14
ENDBRANCH  12  13
ENDBRANCH   8  12
TORSDOF 3
ENDMDL
MODEL 2
REMARK VINA RESULT:      -7.0      2.499      5.821
REMARK  Name = 
REMARK  6 active torsions:
REMARK  status: ('A' for Active; 'I' for Inactive)
REMARK    1  A    between atoms: C_1  and  C_2
REMARK    2  A    between atoms: C_4  and  C_5
REMARK    3  A    between atoms: C_8  and  C_9
REMARK    4  A    between atoms: C_9  and  S_10
REMARK    5  A    between atoms: S_10  and  C_11
REMARK    6  A    between atoms: N_15  and  C_16
REMARK                            x       y       z     vdW  Elec       q    Type
REMARK                         _______ _______ _______ _____ _____    ______ ____
ROOT
ATOM      1  C   UNL     1       1.360   2.701  20.953  0.00  0.00    +0.000 C 
ATOM      2  C   UNL     1       1.975   3.805  20.124  0.00  0.00    +0.000 A 
ATOM      3  C   UNL     1       1.672   5.209  20.547  0.00  0.00    +0.000 A 
ATOM      4  C   UNL     1       2.222   6.189  19.808  0.00  0.00    +0.000 A 
ATOM      5  C   UNL     1       2.001   7.636  20.123  0.00  0.00    +0.000 C 
ATOM      6  N   UNL     1       3.021   5.823  18.719  0.00  0.00    +0.000 N 
ATOM      7  C   UNL     1       3.705   6.598  17.813  0.00  0.00    +0.000 A 
ATOM      8  C   UNL     1       4.331   5.719  16.952  0.00  0.00    +0.000 A 
ATOM      9  N   UNL     1       4.045   4.422  17.322  0.00  0.00    +0.000 NA
ATOM     10  C   UNL     1       3.260   4.491  18.380  0.00  0.00    +0.000 A 
ATOM     11  N   UNL     1       2.718   3.472  19.110  0.00  0.00    +0.000 NA
ENDROOT
BRANCH   8  12
ATOM     12  C   UNL     1       5.262   6.016  15.818  0.00  0.00    +0.000 C 
BRANCH  12  13
ATOM     13  S   UNL     1       6.831   5.090  15.946  0.00  0.00    +0.000 S 
BRANCH  13  14
ATOM     14  C   UNL     1       7.221   5.372  17.608  0.00  0.00    +0.000 A 
ATOM     15  N   UNL     1       7.173   4.496  18.588  0.00  0.00    +0.000 NA
ATOM     16  N   UNL     1       7.552   5.177  19.722  0.00  0.00    +0.000 NA
ATOM     17  N   UNL     1       7.822   6.446  19.449  0.00  0.00    +0.000 NA
ATOM     18  N   UNL     1       7.621   6.574  18.124  0.00  0.00    +0.000 N 
ATOM     19  C   UNL     1       7.815   7.845  17.488  0.00  0.00    +0.000 C 
ENDBRANCH  13  14
ENDBRANCH  12  13
ENDBRANCH   8  12
TORSDOF 3
ENDMDL
MODEL 3
REMARK VINA RESULT:      -7.0      2.472      6.209
REMARK  Name = 
REMARK  6 active torsions:
REMARK  status: ('A' for Active; 'I' for Inactive)
REMARK    1  A    between atoms: C_1  and  C_2
REMARK    2  A    between atoms: C_4  and  C_5
REMARK    3  A    between atoms: C_8  and  C_9
REMARK    4  A    between atoms: C_9  and  S_10
REMARK    5  A    between atoms: S_10  and  C_11
REMARK    6  A    between atoms: N_15  and  C_16
REMARK                            x       y       z     vdW  Elec       q    Type
REMARK                         _______ _______ _______ _____ _____    ______ ____
ROOT
ATOM      1  C   UNL     1       1.364   2.618  21.701  0.00  0.00    +0.000 C 
ATOM      2  C   UNL     1       1.995   3.521  20.667  0.00  0.00    +0.000 A 
ATOM      3  C   UNL     1       1.708   4.985  20.790  0.00  0.00    +0.000 A 
ATOM      4  C   UNL     1       2.272   5.786  19.869  0.00  0.00    +0.000 A 
ATOM      5  C   UNL     1       2.068   7.269  19.878  0.00  0.00    +0.000 C 
ATOM      6  N   UNL     1       3.072   5.196  18.884  0.00  0.00    +0.000 N 
ATOM      7  C   UNL     1       3.768   5.760  17.842  0.00  0.00    +0.000 A 
ATOM      8  C   UNL     1       4.388   4.715  17.185  0.00  0.00    +0.000 A 
ATOM      9  N   UNL     1       4.085   3.525  17.812  0.00  0.00    +0.000 NA
ATOM     10  C   UNL     1       3.296   3.820  18.828  0.00  0.00    +0.000 A 
ATOM     11  N   UNL     1       2.738   2.979  19.748  0.00  0.00    +0.000 NA
ENDROOT
BRANCH   8  12
ATOM     12  C   UNL     1       5.328   4.763  16.020  0.00  0.00    +0.000 C 
BRANCH  12  13
ATOM     13  S   UNL     1       7.062   4.478  16.514  0.00  0.00    +0.000 S 
BRANCH  13  14
ATOM     14  C   UNL     1       7.465   6.041  17.140  0.00  0.00    +0.000 A 
ATOM     15  N   UNL     1       7.463   7.178  16.481  0.00  0.00    +0.000 NA
ATOM     16  N   UNL     1       7.864   8.138  17.382  0.00  0.00    +0.000 NA
ATOM     17  N   UNL     1       8.114   7.603  18.569  0.00  0.00    +0.000 NA
ATOM     18  N   UNL     1       7.862   6.288  18.426  0.00  0.00    +0.000 N 
ATOM     19  C   UNL     1       8.046   5.398  19.535  0.00  0.00    +0.000 C 
ENDBRANCH  13  14
ENDBRANCH  12  13
ENDBRANCH   8  12
TORSDOF 3
ENDMDL
MODEL 4
REMARK VINA RESULT:      -6.9      2.731      5.637
REMARK  Name = 
REMARK  6 active torsions:
REMARK  status: ('A' for Active; 'I' for Inactive)
REMARK    1  A    between atoms: C_1  and  C_2
REMARK    2  A    between atoms: C_4  and  C_5
REMARK    3  A    between atoms: C_8  and  C_9
REMARK    4  A    between atoms: C_9  and  S_10
REMARK    5  A    between atoms: S_10  and  C_11
REMARK    6  A    between atoms: N_15  and  C_16
REMARK                            x       y       z     vdW  Elec       q    Type
REMARK                         _______ _______ _______ _____ _____    ______ ____
ROOT
ATOM      1  C   UNL     1       1.226   8.303  20.841  0.00  0.00    +0.000 C 
ATOM      2  C   UNL     1       1.842   7.079  20.203  0.00  0.00    +0.000 A 
ATOM      3  C   UNL     1       1.540   5.762  20.848  0.00  0.00    +0.000 A 
ATOM      4  C   UNL     1       2.090   4.676  20.277  0.00  0.00    +0.000 A 
ATOM      5  C   UNL     1       1.867   3.298  20.820  0.00  0.00    +0.000 C 
ATOM      6  N   UNL     1       2.889   4.860  19.142  0.00  0.00    +0.000 N 
ATOM      7  C   UNL     1       3.556   3.947  18.362  0.00  0.00    +0.000 A 
ATOM      8  C   UNL     1       4.184   4.676  17.371  0.00  0.00    +0.000 A 
ATOM      9  N   UNL     1       3.906   6.017  17.532  0.00  0.00    +0.000 NA
ATOM     10  C   UNL     1       3.130   6.120  18.594  0.00  0.00    +0.000 A 
ATOM     11  N   UNL     1       2.586   7.244  19.149  0.00  0.00    +0.000 NA
ENDROOT
BRANCH   8  12
ATOM     12  C   UNL     1       4.992   4.183  16.210  0.00  0.00    +0.000 C 
BRANCH  12  13
ATOM     13  S   UNL     1       6.351   5.323  15.777  0.00  0.00    +0.000 S 
BRANCH  13  14
ATOM     14  C   UNL     1       7.166   5.426  17.300  0.00  0.00    +0.000 A 
ATOM     15  N   UNL     1       7.511   4.424  18.078  0.00  0.00    +0.000 NA
ATOM     16  N   UNL     1       8.113   4.990  19.178  0.00  0.00    +0.000 NA
ATOM     17  N   UNL     1       8.134   6.312  19.083  0.00  0.00    +0.000 NA
ATOM     18  N   UNL     1       7.544   6.593  17.906  0.00  0.00    +0.000 N 
ATOM     19  C   UNL     1       7.388   7.956  17.488  0.00  0.00    +0.000 C 
ENDBRANCH  13  14
ENDBRANCH  12  13
ENDBRANCH   8  12
TORSDOF 3
ENDMDL
MODEL 5
REMARK VINA RESULT:      -6.8      3.096      6.696
REMARK  Name = 
REMARK  6 active torsions:
REMARK  status: ('A' for Active; 'I' for Inactive)
REMARK    1  A    between atoms: C_1  and  C_2
REMARK    2  A    between atoms: C_4  and  C_5
REMARK    3  A    between atoms: C_8  and  C_9
REMARK    4  A    between atoms: C_9  and  S_10
REMARK    5  A    between atoms: S_10  and  C_11
REMARK    6  A    between atoms: N_15  and  C_16
REMARK                            x       y       z     vdW  Elec       q    Type
REMARK                         _______ _______ _______ _____ _____    ______ ____
ROOT
ATOM      1  C   UNL     1       1.049   7.600  21.023  0.00  0.00    +0.000 C 
ATOM      2  C   UNL     1       1.927   6.557  20.371  0.00  0.00    +0.000 A 
ATOM      3  C   UNL     1       1.590   5.126  20.652  0.00  0.00    +0.000 A 
ATOM      4  C   UNL     1       2.373   4.200  20.070  0.00  0.00    +0.000 A 
ATOM      5  C   UNL     1       2.145   2.734  20.267  0.00  0.00    +0.000 C 
ATOM      6  N   UNL     1       3.426   4.643  19.260  0.00  0.00    +0.000 N 
ATOM      7  C   UNL     1       4.362   3.935  18.546  0.00  0.00    +0.000 A 
ATOM      8  C   UNL     1       5.160   4.873  17.923  0.00  0.00    +0.000 A 
ATOM      9  N   UNL     1       4.722   6.141  18.242  0.00  0.00    +0.000 NA
ATOM     10  C   UNL     1       3.684   5.997  19.043  0.00  0.00    +0.000 A 
ATOM     11  N   UNL     1       2.907   6.961  19.618  0.00  0.00    +0.000 NA
ENDROOT
BRANCH   8  12
ATOM     12  C   UNL     1       6.292   4.659  16.966  0.00  0.00    +0.000 C 
BRANCH  12  13
ATOM     13  S   UNL     1       5.774   3.753  15.468  0.00  0.00    +0.000 S 
BRANCH  13  14
ATOM     14  C   UNL     1       6.794   4.500  14.287  0.00  0.00    +0.000 A 
ATOM     15  N   UNL     1       7.685   5.443  14.499  0.00  0.00    +0.000 NA
ATOM     16  N   UNL     1       8.233   5.729  13.269  0.00  0.00    +0.000 NA
ATOM     17  N   UNL     1       7.687   4.983  12.319  0.00  0.00    +0.000 NA
ATOM     18  N   UNL     1       6.787   4.207  12.950  0.00  0.00    +0.000 N 
ATOM     19  C   UNL     1       5.995   3.273  12.203  0.00  0.00    +0.000 C 
ENDBRANCH  13  14
ENDBRANCH  12  13
ENDBRANCH   8  12
TORSDOF 3
ENDMDL
MODEL 6
REMARK VINA RESULT:      -6.7      1.731      2.091
REMARK  Name = 
REMARK  6 active torsions:
REMARK  status: ('A' for Active; 'I' for Inactive)
REMARK    1  A    between atoms: C_1  and  C_2
REMARK    2  A    between atoms: C_4  and  C_5
REMARK    3  A    between atoms: C_8  and  C_9
REMARK    4  A    between atoms: C_9  and  S_10
REMARK    5  A    between atoms: S_10  and  C_11
REMARK    6  A    between atoms: N_15  and  C_16
REMARK                            x       y       z     vdW  Elec       q    Type
REMARK                         _______ _______ _______ _____ _____    ______ ____
ROOT
ATOM      1  C   UNL     1       8.272   6.077  19.452  0.00  0.00    +0.000 C 
ATOM      2  C   UNL     1       7.045   5.567  18.732  0.00  0.00    +0.000 A 
ATOM      3  C   UNL     1       6.666   6.276  17.469  0.00  0.00    +0.000 A 
ATOM      4  C   UNL     1       5.574   5.820  16.830  0.00  0.00    +0.000 A 
ATOM      5  C   UNL     1       5.087   6.437  15.556  0.00  0.00    +0.000 C 
ATOM      6  N   UNL     1       4.889   4.735  17.390  0.00  0.00    +0.000 N 
ATOM      7  C   UNL     1       3.769   4.067  16.957  0.00  0.00    +0.000 A 
ATOM      8  C   UNL     1       3.529   3.077  17.889  0.00  0.00    +0.000 A 
ATOM      9  N   UNL     1       4.487   3.127  18.879  0.00  0.00    +0.000 NA
ATOM     10  C   UNL     1       5.298   4.122  18.575  0.00  0.00    +0.000 A 
ATOM     11  N   UNL     1       6.403   4.561  19.247  0.00  0.00    +0.000 NA
ENDROOT
BRANCH   8  12
ATOM     12  C   UNL     1       2.476   2.012  17.880  0.00  0.00    +0.000 C 
BRANCH  12  13
ATOM     13  S   UNL     1       0.932   2.553  18.692  0.00  0.00    +0.000 S 
BRANCH  13  14
ATOM     14  C   UNL     1       1.546   3.017  20.242  0.00  0.00    +0.000 A 
ATOM     15  N   UNL     1       1.750   2.232  21.276  0.00  0.00    +0.000 NA
ATOM     16  N   UNL     1       2.226   3.044  22.280  0.00  0.00    +0.000 NA
ATOM     17  N   UNL     1       2.309   4.304  21.875  0.00  0.00    +0.000 NA
ATOM     18  N   UNL     1       1.888   4.294  20.597  0.00  0.00    +0.000 N 
ATOM     19  C   UNL     1       1.838   5.516  19.849  0.00  0.00    +0.000 C 
ENDBRANCH  13  14
ENDBRANCH  12  13
ENDBRANCH   8  12
TORSDOF 3
ENDMDL
MODEL 7
REMARK VINA RESULT:      -6.6      4.191      6.270
REMARK  Name = 
REMARK  6 active torsions:
REMARK  status: ('A' for Active; 'I' for Inactive)
REMARK    1  A    between atoms: C_1  and  C_2
REMARK    2  A    between atoms: C_4  and  C_5
REMARK    3  A    between atoms: C_8  and  C_9
REMARK    4  A    between atoms: C_9  and  S_10
REMARK    5  A    between atoms: S_10  and  C_11
REMARK    6  A    between atoms: N_15  and  C_16
REMARK                            x       y       z     vdW  Elec       q    Type
REMARK                         _______ _______ _______ _____ _____    ______ ____
ROOT
ATOM      1  C   UNL     1       0.097   9.449  23.142  0.00  0.00    +0.000 C 
ATOM      2  C   UNL     1       0.666   9.190  21.766  0.00  0.00    +0.000 A 
ATOM      3  C   UNL     1       0.482  10.274  20.749  0.00  0.00    +0.000 A 
ATOM      4  C   UNL     1       0.991  10.040  19.526  0.00  0.00    +0.000 A 
ATOM      5  C   UNL     1       0.878  11.040  18.418  0.00  0.00    +0.000 C 
ATOM      6  N   UNL     1       1.643   8.821  19.306  0.00  0.00    +0.000 N 
ATOM      7  C   UNL     1       2.255   8.327  18.179  0.00  0.00    +0.000 A 
ATOM      8  C   UNL     1       2.736   7.079  18.521  0.00  0.00    +0.000 A 
ATOM      9  N   UNL     1       2.432   6.807  19.838  0.00  0.00    +0.000 NA
ATOM     10  C   UNL     1       1.777   7.854  20.302  0.00  0.00    +0.000 A 
ATOM     11  N   UNL     1       1.272   8.059  21.554  0.00  0.00    +0.000 NA
ENDROOT
BRANCH   8  12
ATOM     12  C   UNL     1       3.546   6.126  17.697  0.00  0.00    +0.000 C 
BRANCH  12  13
ATOM     13  S   UNL     1       4.017   4.628  18.630  0.00  0.00    +0.000 S 
BRANCH  13  14
ATOM     14  C   UNL     1       5.742   4.727  18.521  0.00  0.00    +0.000 A 
ATOM     15  N   UNL     1       6.574   5.063  19.481  0.00  0.00    +0.000 NA
ATOM     16  N   UNL     1       7.832   5.016  18.925  0.00  0.00    +0.000 NA
ATOM     17  N   UNL     1       7.776   4.665  17.648  0.00  0.00    +0.000 NA
ATOM     18  N   UNL     1       6.468   4.478  17.388  0.00  0.00    +0.000 N 
ATOM     19  C   UNL     1       6.045   4.096  16.072  0.00  0.00    +0.000 C 
ENDBRANCH  13  14
ENDBRANCH  12  13
ENDBRANCH   8  12
TORSDOF 3
ENDMDL
MODEL 8
REMARK VINA RESULT:      -6.6      1.834      2.760
REMARK  Name = 
REMARK  6 active torsions:
REMARK  status: ('A' for Active; 'I' for Inactive)
REMARK    1  A    between atoms: C_1  and  C_2
REMARK    2  A    between atoms: C_4  and  C_5
REMARK    3  A    between atoms: C_8  and  C_9
REMARK    4  A    between atoms: C_9  and  S_10
REMARK    5  A    between atoms: S_10  and  C_11
REMARK    6  A    between atoms: N_15  and  C_16
REMARK                            x       y       z     vdW  Elec       q    Type
REMARK                         _______ _______ _______ _____ _____    ______ ____
ROOT
ATOM      1  C   UNL     1       6.774   4.462  14.173  0.00  0.00    +0.000 C 
ATOM      2  C   UNL     1       6.315   4.808  15.571  0.00  0.00    +0.000 A 
ATOM      3  C   UNL     1       7.385   4.992  16.601  0.00  0.00    +0.000 A 
ATOM      4  C   UNL     1       6.973   5.300  17.844  0.00  0.00    +0.000 A 
ATOM      5  C   UNL     1       7.938   5.513  18.968  0.00  0.00    +0.000 C 
ATOM      6  N   UNL     1       5.597   5.422  18.071  0.00  0.00    +0.000 N 
ATOM      7  C   UNL     1       4.904   5.732  19.216  0.00  0.00    +0.000 A 
ATOM      8  C   UNL     1       3.567   5.718  18.872  0.00  0.00    +0.000 A 
ATOM      9  N   UNL     1       3.434   5.411  17.534  0.00  0.00    +0.000 NA
ATOM     10  C   UNL     1       4.653   5.234  17.060  0.00  0.00    +0.000 A 
ATOM     11  N   UNL     1       5.038   4.921  15.788  0.00  0.00    +0.000 NA
ENDROOT
BRANCH   8  12
ATOM     12  C   UNL     1       2.375   6.052  19.715  0.00  0.00    +0.000 C 
BRANCH  12  13
ATOM     13  S   UNL     1       1.716   4.593  20.594  0.00  0.00    +0.000 S 
BRANCH  13  14
ATOM     14  C   UNL     1       1.970   3.370  19.397  0.00  0.00    +0.000 A 
ATOM     15  N   UNL     1       1.198   3.103  18.368  0.00  0.00    +0.000 NA
ATOM     16  N   UNL     1       1.792   2.048  17.713  0.00  0.00    +0.000 NA
ATOM     17  N   UNL     1       2.904   1.670  18.328  0.00  0.00    +0.000 NA
ATOM     18  N   UNL     1       3.024   2.497  19.383  0.00  0.00    +0.000 N 
ATOM     19  C   UNL     1       4.131   2.355  20.284  0.00  0.00    +0.000 C 
ENDBRANCH  13  14
ENDBRANCH  12  13
ENDBRANCH   8  12
TORSDOF 3
ENDMDL
MODEL 9
REMARK VINA RESULT:      -6.6      1.742      2.862
REMARK  Name = 
REMARK  6 active torsions:
REMARK  status: ('A' for Active; 'I' for Inactive)
REMARK    1  A    between atoms: C_1  and  C_2
REMARK    2  A    between atoms: C_4  and  C_5
REMARK    3  A    between atoms: C_8  and  C_9
REMARK    4  A    between atoms: C_9  and  S_10
REMARK    5  A    between atoms: S_10  and  C_11
REMARK    6  A    between atoms: N_15  and  C_16
REMARK                            x       y       z     vdW  Elec       q    Type
REMARK                         _______ _______ _______ _____ _____    ______ ____
ROOT
ATOM      1  C   UNL     1       6.710   4.688  14.219  0.00  0.00    +0.000 C 
ATOM      2  C   UNL     1       6.251   4.975  15.629  0.00  0.00    +0.000 A 
ATOM      3  C   UNL     1       7.311   5.352  16.617  0.00  0.00    +0.000 A 
ATOM      4  C   UNL     1       6.898   5.607  17.871  0.00  0.00    +0.000 A 
ATOM      5  C   UNL     1       7.854   5.995  18.956  0.00  0.00    +0.000 C 
ATOM      6  N   UNL     1       5.530   5.501  18.149  0.00  0.00    +0.000 N 
ATOM      7  C   UNL     1       4.837   5.710  19.317  0.00  0.00    +0.000 A 
ATOM      8  C   UNL     1       3.510   5.468  19.024  0.00  0.00    +0.000 A 
ATOM      9  N   UNL     1       3.382   5.121  17.695  0.00  0.00    +0.000 NA
ATOM     10  C   UNL     1       4.595   5.143  17.177  0.00  0.00    +0.000 A 
ATOM     11  N   UNL     1       4.981   4.878  15.894  0.00  0.00    +0.000 NA
ENDROOT
BRANCH   8  12
ATOM     12  C   UNL     1       2.310   5.612  19.908  0.00  0.00    +0.000 C 
BRANCH  12  13
ATOM     13  S   UNL     1       2.155   4.235  21.098  0.00  0.00    +0.000 S 
BRANCH  13  14
ATOM     14  C   UNL     1       2.837   2.945  20.167  0.00  0.00    +0.000 A 
ATOM     15  N   UNL     1       4.053   2.457  20.271  0.00  0.00    +0.000 NA
ATOM     16  N   UNL     1       4.143   1.463  19.323  0.00  0.00    +0.000 NA
ATOM     17  N   UNL     1       3.009   1.346  18.646  0.00  0.00    +0.000 NA
ATOM     18  N   UNL     1       2.184   2.270  19.172  0.00  0.00    +0.000 N 
ATOM     19  C   UNL     1       0.855   2.423  18.655  0.00  0.00    +0.000 C 
ENDBRANCH  13  14
ENDBRANCH  12  13
ENDBRANCH   8  12
TORSDOF 3
ENDMDL
