MODEL 1
REMARK VINA RESULT:      -8.6      0.000      0.000
REMARK  Name = 
REMARK  9 active torsions:
REMARK  status: ('A' for Active; 'I' for Inactive)
REMARK    1  A    between atoms: C_1  and  O_2
REMARK    2  A    between atoms: O_2  and  C_3
REMARK    3  A    between atoms: C_3  and  C_4
REMARK    4  A    between atoms: C_4  and  O_5
REMARK    5  A    between atoms: O_5  and  C_6
REMARK    6  A    between atoms: C_9  and  C_10
REMARK    7  A    between atoms: C_15  and  C_16
REMARK    8  A    between atoms: C_22  and  C_23
REMARK    9  A    between atoms: N_25  and  C_26
REMARK                            x       y       z     vdW  Elec       q    Type
REMARK                         _______ _______ _______ _____ _____    ______ ____
ROOT
ATOM      1  C   UNL     1       1.062   8.848  21.133  0.00  0.00    +0.000 A 
ATOM      2  C   UNL     1       1.076   8.808  22.522  0.00  0.00    +0.000 A 
ATOM      3  C   UNL     1       0.279   9.701  23.237  0.00  0.00    +0.000 A 
ATOM      4  C   UNL     1      -0.527  10.627  22.589  0.00  0.00    +0.000 A 
ATOM      5  N   UNL     1      -1.412  11.303  23.318  0.00  0.00    +0.000 NA
ATOM      6  C   UNL     1      -2.199  12.200  22.687  0.00  0.00    +0.000 A 
ATOM      7  C   UNL     1      -2.010  12.607  21.383  0.00  0.00    +0.000 A 
ATOM      8  C   UNL     1      -1.286  11.753  20.569  0.00  0.00    +0.000 A 
ATOM      9  C   UNL     1      -0.476  10.761  21.184  0.00  0.00    +0.000 A 
ATOM     10  C   UNL     1       0.365   9.886  20.492  0.00  0.00    +0.000 A 
ENDROOT
BRANCH   1  14
ATOM     11  C   UNL     1       2.822   5.899  18.599  0.00  0.00    +0.000 A 
ATOM     12  C   UNL     1       2.698   7.224  18.191  0.00  0.00    +0.000 A 
ATOM     13  C   UNL     1       2.079   8.146  19.015  0.00  0.00    +0.000 A 
ATOM     14  C   UNL     1       1.623   7.784  20.288  0.00  0.00    +0.000 A 
ATOM     15  C   UNL     1       1.739   6.452  20.699  0.00  0.00    +0.000 A 
ATOM     16  C   UNL     1       2.336   5.512  19.852  0.00  0.00    +0.000 A 
BRANCH  11  17
ATOM     17  O   UNL     1       3.401   4.913  17.848  0.00  0.00    +0.000 OA
BRANCH  17  18
ATOM     18  C   UNL     1       3.752   3.745  18.589  0.00  0.00    +0.000 C 
BRANCH  18  19
ATOM     19  C   UNL     1       3.350   2.503  17.823  0.00  0.00    +0.000 C 
BRANCH  19  21
ATOM     20  C   UNL     1       1.182   2.264  18.697  0.00  0.00    +0.000 C 
ATOM     21  O   UNL     1       1.954   2.603  17.558  0.00  0.00    +0.000 OA
ENDBRANCH  19  21
ENDBRANCH  18  19
ENDBRANCH  17  18
ENDBRANCH  11  17
ENDBRANCH   1  14
BRANCH   6  22
ATOM     22  C   UNL     1      -3.547  12.323  23.222  0.00  0.00    +0.000 A 
ATOM     23  C   UNL     1      -4.061  12.546  24.483  0.00  0.00    +0.000 A 
ATOM     24  C   UNL     1      -5.434  12.846  24.309  0.00  0.00    +0.000 A 
ATOM     25  C   UNL     1      -5.661  12.844  22.954  0.00  0.00    +0.000 A 
ATOM     26  O   UNL     1      -4.526  12.523  22.287  0.00  0.00    +0.000 OA
ENDBRANCH   6  22
BRANCH   8  27
ATOM     27  C   UNL     1      -1.610  11.879  19.094  0.00  0.00    +0.000 C 
ATOM     28  O   UNL     1      -1.129  12.816  18.467  0.00  0.00    +0.000 OA
ATOM     29  N   UNL     1      -2.512  10.961  18.582  0.00  0.00    +0.000 N 
ATOM     30  H   UNL     1      -2.939  10.323  19.240  0.00  0.00    +0.000 HD
BRANCH  29  31
ATOM     31  C   UNL     1      -2.929  10.786  17.238  0.00  0.00    +0.000 A 
ATOM     32  C   UNL     1      -3.982  11.447  16.615  0.00  0.00    +0.000 A 
ATOM     33  C   UNL     1      -4.282  11.160  15.278  0.00  0.00    +0.000 A 
ATOM     34  C   UNL     1      -3.515  10.234  14.593  0.00  0.00    +0.000 A 
ATOM     35  N   UNL     1      -2.481   9.578  15.154  0.00  0.00    +0.000 NA
ATOM     36  C   UNL     1      -2.225   9.867  16.453  0.00  0.00    +0.000 A 
ENDBRANCH  29  31
ENDBRANCH   8  27
TORSDOF 8
ENDMDL
MODEL 2
REMARK VINA RESULT:      -8.6      0.662      1.231
REMARK  Name = 
REMARK  9 active torsions:
REMARK  status: ('A' for Active; 'I' for Inactive)
REMARK    1  A    between atoms: C_1  and  O_2
REMARK    2  A    between atoms: O_2  and  C_3
REMARK    3  A    between atoms: C_3  and  C_4
REMARK    4  A    between atoms: C_4  and  O_5
REMARK    5  A    between atoms: O_5  and  C_6
REMARK    6  A    between atoms: C_9  and  C_10
REMARK    7  A    between atoms: C_15  and  C_16
REMARK    8  A    between atoms: C_22  and  C_23
REMARK    9  A    between atoms: N_25  and  C_26
REMARK                            x       y       z     vdW  Elec       q    Type
REMARK                         _______ _______ _______ _____ _____    ______ ____
ROOT
ATOM      1  C   UNL     1       1.168   8.870  21.064  0.00  0.00    +0.000 A 
ATOM      2  C   UNL     1       1.199   8.818  22.452  0.00  0.00    +0.000 A 
ATOM      3  C   UNL     1       0.395   9.691  23.185  0.00  0.00    +0.000 A 
ATOM      4  C   UNL     1      -0.435  10.608  22.553  0.00  0.00    +0.000 A 
ATOM      5  N   UNL     1      -1.322  11.261  23.299  0.00  0.00    +0.000 NA
ATOM      6  C   UNL     1      -2.132  12.150  22.686  0.00  0.00    +0.000 A 
ATOM      7  C   UNL     1      -1.967  12.572  21.383  0.00  0.00    +0.000 A 
ATOM      8  C   UNL     1      -1.236  11.738  20.554  0.00  0.00    +0.000 A 
ATOM      9  C   UNL     1      -0.402  10.755  21.150  0.00  0.00    +0.000 A 
ATOM     10  C   UNL     1       0.446   9.901  20.440  0.00  0.00    +0.000 A 
ENDROOT
BRANCH   1  14
ATOM     11  C   UNL     1       2.694   5.700  18.647  0.00  0.00    +0.000 A 
ATOM     12  C   UNL     1       2.244   5.470  19.945  0.00  0.00    +0.000 A 
ATOM     13  C   UNL     1       1.800   6.526  20.720  0.00  0.00    +0.000 A 
ATOM     14  C   UNL     1       1.739   7.825  20.202  0.00  0.00    +0.000 A 
ATOM     15  C   UNL     1       2.197   8.062  18.902  0.00  0.00    +0.000 A 
ATOM     16  C   UNL     1       2.677   6.998  18.129  0.00  0.00    +0.000 A 
BRANCH  11  17
ATOM     17  O   UNL     1       3.167   4.725  17.813  0.00  0.00    +0.000 OA
BRANCH  17  18
ATOM     18  C   UNL     1       2.270   3.630  17.629  0.00  0.00    +0.000 C 
BRANCH  18  19
ATOM     19  C   UNL     1       2.943   2.333  18.027  0.00  0.00    +0.000 C 
BRANCH  19  21
ATOM     20  C   UNL     1       0.756   2.231  18.879  0.00  0.00    +0.000 C 
ATOM     21  O   UNL     1       2.038   1.627  18.870  0.00  0.00    +0.000 OA
ENDBRANCH  19  21
ENDBRANCH  18  19
ENDBRANCH  17  18
ENDBRANCH  11  17
ENDBRANCH   1  14
BRANCH   6  22
ATOM     22  C   UNL     1      -3.476  12.245  23.237  0.00  0.00    +0.000 A 
ATOM     23  C   UNL     1      -3.981  12.389  24.513  0.00  0.00    +0.000 A 
ATOM     24  C   UNL     1      -5.353  12.705  24.369  0.00  0.00    +0.000 A 
ATOM     25  C   UNL     1      -5.590  12.790  23.018  0.00  0.00    +0.000 A 
ATOM     26  O   UNL     1      -4.462  12.507  22.324  0.00  0.00    +0.000 OA
ENDBRANCH   6  22
BRANCH   8  27
ATOM     27  C   UNL     1      -1.580  11.872  19.083  0.00  0.00    +0.000 C 
ATOM     28  O   UNL     1      -1.160  12.847  18.470  0.00  0.00    +0.000 OA
ATOM     29  N   UNL     1      -2.431  10.912  18.560  0.00  0.00    +0.000 N 
ATOM     30  H   UNL     1      -2.814  10.238  19.209  0.00  0.00    +0.000 HD
BRANCH  29  31
ATOM     31  C   UNL     1      -2.848  10.736  17.216  0.00  0.00    +0.000 A 
ATOM     32  C   UNL     1      -2.226   9.932  16.266  0.00  0.00    +0.000 A 
ATOM     33  C   UNL     1      -2.751   9.866  14.970  0.00  0.00    +0.000 A 
ATOM     34  C   UNL     1      -3.888  10.592  14.659  0.00  0.00    +0.000 A 
ATOM     35  N   UNL     1      -4.525  11.375  15.550  0.00  0.00    +0.000 NA
ATOM     36  C   UNL     1      -3.986  11.428  16.792  0.00  0.00    +0.000 A 
ENDBRANCH  29  31
ENDBRANCH   8  27
TORSDOF 8
ENDMDL
MODEL 3
REMARK VINA RESULT:      -8.5      1.070      1.684
REMARK  Name = 
REMARK  9 active torsions:
REMARK  status: ('A' for Active; 'I' for Inactive)
REMARK    1  A    between atoms: C_1  and  O_2
REMARK    2  A    between atoms: O_2  and  C_3
REMARK    3  A    between atoms: C_3  and  C_4
REMARK    4  A    between atoms: C_4  and  O_5
REMARK    5  A    between atoms: O_5  and  C_6
REMARK    6  A    between atoms: C_9  and  C_10
REMARK    7  A    between atoms: C_15  and  C_16
REMARK    8  A    between atoms: C_22  and  C_23
REMARK    9  A    between atoms: N_25  and  C_26
REMARK                            x       y       z     vdW  Elec       q    Type
REMARK                         _______ _______ _______ _____ _____    ______ ____
ROOT
ATOM      1  C   UNL     1       1.093   8.792  21.102  0.00  0.00    +0.000 A 
ATOM      2  C   UNL     1       1.110   8.750  22.490  0.00  0.00    +0.000 A 
ATOM      3  C   UNL     1       0.322   9.649  23.209  0.00  0.00    +0.000 A 
ATOM      4  C   UNL     1      -0.478  10.582  22.563  0.00  0.00    +0.000 A 
ATOM      5  N   UNL     1      -1.356  11.264  23.295  0.00  0.00    +0.000 NA
ATOM      6  C   UNL     1      -2.137  12.169  22.666  0.00  0.00    +0.000 A 
ATOM      7  C   UNL     1      -1.948  12.576  21.362  0.00  0.00    +0.000 A 
ATOM      8  C   UNL     1      -1.231  11.717  20.546  0.00  0.00    +0.000 A 
ATOM      9  C   UNL     1      -0.429  10.718  21.158  0.00  0.00    +0.000 A 
ATOM     10  C   UNL     1       0.404   9.837  20.464  0.00  0.00    +0.000 A 
ENDROOT
BRANCH   1  14
ATOM     11  C   UNL     1       2.825   5.834  18.559  0.00  0.00    +0.000 A 
ATOM     12  C   UNL     1       2.702   7.159  18.150  0.00  0.00    +0.000 A 
ATOM     13  C   UNL     1       2.093   8.084  18.978  0.00  0.00    +0.000 A 
ATOM     14  C   UNL     1       1.645   7.726  20.254  0.00  0.00    +0.000 A 
ATOM     15  C   UNL     1       1.759   6.393  20.666  0.00  0.00    +0.000 A 
ATOM     16  C   UNL     1       2.346   5.450  19.816  0.00  0.00    +0.000 A 
BRANCH  11  17
ATOM     17  O   UNL     1       3.395   4.845  17.805  0.00  0.00    +0.000 OA
BRANCH  17  18
ATOM     18  C   UNL     1       4.536   4.235  18.409  0.00  0.00    +0.000 C 
BRANCH  18  19
ATOM     19  C   UNL     1       5.761   5.099  18.197  0.00  0.00    +0.000 C 
BRANCH  19  21
ATOM     20  C   UNL     1       7.739   5.752  19.282  0.00  0.00    +0.000 C 
ATOM     21  O   UNL     1       6.649   4.848  19.282  0.00  0.00    +0.000 OA
ENDBRANCH  19  21
ENDBRANCH  18  19
ENDBRANCH  17  18
ENDBRANCH  11  17
ENDBRANCH   1  14
BRANCH   6  22
ATOM     22  C   UNL     1      -3.483  12.302  23.204  0.00  0.00    +0.000 A 
ATOM     23  C   UNL     1      -3.993  12.565  24.459  0.00  0.00    +0.000 A 
ATOM     24  C   UNL     1      -5.368  12.850  24.282  0.00  0.00    +0.000 A 
ATOM     25  C   UNL     1      -5.602  12.800  22.929  0.00  0.00    +0.000 A 
ATOM     26  O   UNL     1      -4.469  12.463  22.268  0.00  0.00    +0.000 OA
ENDBRANCH   6  22
BRANCH   8  27
ATOM     27  C   UNL     1      -1.557  11.849  19.071  0.00  0.00    +0.000 C 
ATOM     28  O   UNL     1      -1.044  12.763  18.438  0.00  0.00    +0.000 OA
ATOM     29  N   UNL     1      -2.496  10.963  18.568  0.00  0.00    +0.000 N 
ATOM     30  H   UNL     1      -2.944  10.345  19.231  0.00  0.00    +0.000 HD
BRANCH  29  31
ATOM     31  C   UNL     1      -2.924  10.796  17.226  0.00  0.00    +0.000 A 
ATOM     32  C   UNL     1      -4.004  11.438  16.627  0.00  0.00    +0.000 A 
ATOM     33  C   UNL     1      -4.312  11.164  15.289  0.00  0.00    +0.000 A 
ATOM     34  C   UNL     1      -3.529  10.269  14.581  0.00  0.00    +0.000 A 
ATOM     35  N   UNL     1      -2.471   9.634  15.119  0.00  0.00    +0.000 NA
ATOM     36  C   UNL     1      -2.206   9.910  16.419  0.00  0.00    +0.000 A 
ENDBRANCH  29  31
ENDBRANCH   8  27
TORSDOF 8
ENDMDL
MODEL 4
REMARK VINA RESULT:      -8.3      1.309      1.873
REMARK  Name = 
REMARK  9 active torsions:
REMARK  status: ('A' for Active; 'I' for Inactive)
REMARK    1  A    between atoms: C_1  and  O_2
REMARK    2  A    between atoms: O_2  and  C_3
REMARK    3  A    between atoms: C_3  and  C_4
REMARK    4  A    between atoms: C_4  and  O_5
REMARK    5  A    between atoms: O_5  and  C_6
REMARK    6  A    between atoms: C_9  and  C_10
REMARK    7  A    between atoms: C_15  and  C_16
REMARK    8  A    between atoms: C_22  and  C_23
REMARK    9  A    between atoms: N_25  and  C_26
REMARK                            x       y       z     vdW  Elec       q    Type
REMARK                         _______ _______ _______ _____ _____    ______ ____
ROOT
ATOM      1  C   UNL     1       1.138   8.725  21.072  0.00  0.00    +0.000 A 
ATOM      2  C   UNL     1       1.162   8.706  22.461  0.00  0.00    +0.000 A 
ATOM      3  C   UNL     1       0.388   9.626  23.168  0.00  0.00    +0.000 A 
ATOM      4  C   UNL     1      -0.406  10.557  22.510  0.00  0.00    +0.000 A 
ATOM      5  N   UNL     1      -1.272  11.261  23.235  0.00  0.00    +0.000 NA
ATOM      6  C   UNL     1      -2.046  12.163  22.596  0.00  0.00    +0.000 A 
ATOM      7  C   UNL     1      -1.860  12.546  21.284  0.00  0.00    +0.000 A 
ATOM      8  C   UNL     1      -1.157  11.666  20.479  0.00  0.00    +0.000 A 
ATOM      9  C   UNL     1      -0.362  10.668  21.104  0.00  0.00    +0.000 A 
ATOM     10  C   UNL     1       0.457   9.766  20.420  0.00  0.00    +0.000 A 
ENDROOT
BRANCH   1  14
ATOM     11  C   UNL     1       2.829   5.702  18.578  0.00  0.00    +0.000 A 
ATOM     12  C   UNL     1       2.765   7.030  18.165  0.00  0.00    +0.000 A 
ATOM     13  C   UNL     1       2.168   7.978  18.976  0.00  0.00    +0.000 A 
ATOM     14  C   UNL     1       1.674   7.638  20.239  0.00  0.00    +0.000 A 
ATOM     15  C   UNL     1       1.728   6.303  20.655  0.00  0.00    +0.000 A 
ATOM     16  C   UNL     1       2.303   5.338  19.821  0.00  0.00    +0.000 A 
BRANCH  11  17
ATOM     17  O   UNL     1       3.383   4.692  17.840  0.00  0.00    +0.000 OA
BRANCH  17  18
ATOM     18  C   UNL     1       4.781   4.849  17.594  0.00  0.00    +0.000 C 
BRANCH  18  19
ATOM     19  C   UNL     1       5.070   4.693  16.116  0.00  0.00    +0.000 C 
BRANCH  19  21
ATOM     20  C   UNL     1       6.984   4.800  14.759  0.00  0.00    +0.000 C 
ATOM     21  O   UNL     1       6.289   5.380  15.849  0.00  0.00    +0.000 OA
ENDBRANCH  19  21
ENDBRANCH  18  19
ENDBRANCH  17  18
ENDBRANCH  11  17
ENDBRANCH   1  14
BRANCH   6  22
ATOM     22  C   UNL     1      -3.388  12.320  23.138  0.00  0.00    +0.000 A 
ATOM     23  C   UNL     1      -3.898  12.446  24.414  0.00  0.00    +0.000 A 
ATOM     24  C   UNL     1      -5.245  12.854  24.269  0.00  0.00    +0.000 A 
ATOM     25  C   UNL     1      -5.460  13.006  22.921  0.00  0.00    +0.000 A 
ATOM     26  O   UNL     1      -4.344  12.680  22.226  0.00  0.00    +0.000 OA
ENDBRANCH   6  22
BRANCH   8  27
ATOM     27  C   UNL     1      -1.489  11.775  19.004  0.00  0.00    +0.000 C 
ATOM     28  O   UNL     1      -1.022  12.712  18.367  0.00  0.00    +0.000 OA
ATOM     29  N   UNL     1      -2.383  10.842  18.504  0.00  0.00    +0.000 N 
ATOM     30  H   UNL     1      -2.799  10.204  19.169  0.00  0.00    +0.000 HD
BRANCH  29  31
ATOM     31  C   UNL     1      -2.803  10.649  17.163  0.00  0.00    +0.000 A 
ATOM     32  C   UNL     1      -2.185   9.832  16.222  0.00  0.00    +0.000 A 
ATOM     33  C   UNL     1      -2.713   9.750  14.927  0.00  0.00    +0.000 A 
ATOM     34  C   UNL     1      -3.850  10.473  14.611  0.00  0.00    +0.000 A 
ATOM     35  N   UNL     1      -4.484  11.268  15.493  0.00  0.00    +0.000 NA
ATOM     36  C   UNL     1      -3.941  11.337  16.732  0.00  0.00    +0.000 A 
ENDBRANCH  29  31
ENDBRANCH   8  27
TORSDOF 8
ENDMDL
MODEL 5
REMARK VINA RESULT:      -8.2      1.235      1.928
REMARK  Name = 
REMARK  9 active torsions:
REMARK  status: ('A' for Active; 'I' for Inactive)
REMARK    1  A    between atoms: C_1  and  O_2
REMARK    2  A    between atoms: O_2  and  C_3
REMARK    3  A    between atoms: C_3  and  C_4
REMARK    4  A    between atoms: C_4  and  O_5
REMARK    5  A    between atoms: O_5  and  C_6
REMARK    6  A    between atoms: C_9  and  C_10
REMARK    7  A    between atoms: C_15  and  C_16
REMARK    8  A    between atoms: C_22  and  C_23
REMARK    9  A    between atoms: N_25  and  C_26
REMARK                            x       y       z     vdW  Elec       q    Type
REMARK                         _______ _______ _______ _____ _____    ______ ____
ROOT
ATOM      1  C   UNL     1       1.045   8.813  21.199  0.00  0.00    +0.000 A 
ATOM      2  C   UNL     1       1.065   8.848  22.588  0.00  0.00    +0.000 A 
ATOM      3  C   UNL     1       0.318   9.818  23.256  0.00  0.00    +0.000 A 
ATOM      4  C   UNL     1      -0.443  10.747  22.560  0.00  0.00    +0.000 A 
ATOM      5  N   UNL     1      -1.289  11.506  23.254  0.00  0.00    +0.000 NA
ATOM      6  C   UNL     1      -2.032  12.406  22.578  0.00  0.00    +0.000 A 
ATOM      7  C   UNL     1      -1.831  12.733  21.253  0.00  0.00    +0.000 A 
ATOM      8  C   UNL     1      -1.155  11.800  20.485  0.00  0.00    +0.000 A 
ATOM      9  C   UNL     1      -0.393  10.802  21.151  0.00  0.00    +0.000 A 
ATOM     10  C   UNL     1       0.398   9.849  20.505  0.00  0.00    +0.000 A 
ENDROOT
BRANCH   1  14
ATOM     11  C   UNL     1       2.652   5.641  18.839  0.00  0.00    +0.000 A 
ATOM     12  C   UNL     1       2.695   6.963  18.402  0.00  0.00    +0.000 A 
ATOM     13  C   UNL     1       2.123   7.962  19.168  0.00  0.00    +0.000 A 
ATOM     14  C   UNL     1       1.548   7.678  20.411  0.00  0.00    +0.000 A 
ATOM     15  C   UNL     1       1.495   6.351  20.850  0.00  0.00    +0.000 A 
ATOM     16  C   UNL     1       2.046   5.336  20.061  0.00  0.00    +0.000 A 
BRANCH  11  17
ATOM     17  O   UNL     1       3.174   4.584  18.145  0.00  0.00    +0.000 OA
BRANCH  17  18
ATOM     18  C   UNL     1       4.528   4.770  17.731  0.00  0.00    +0.000 C 
BRANCH  18  19
ATOM     19  C   UNL     1       5.464   4.541  18.898  0.00  0.00    +0.000 C 
BRANCH  19  21
ATOM     20  C   UNL     1       7.587   5.547  18.921  0.00  0.00    +0.000 C 
ATOM     21  O   UNL     1       6.790   4.509  18.378  0.00  0.00    +0.000 OA
ENDBRANCH  19  21
ENDBRANCH  18  19
ENDBRANCH  17  18
ENDBRANCH  11  17
ENDBRANCH   1  14
BRANCH   6  22
ATOM     22  C   UNL     1      -3.370  12.627  23.109  0.00  0.00    +0.000 A 
ATOM     23  C   UNL     1      -4.588  12.936  22.540  0.00  0.00    +0.000 A 
ATOM     24  C   UNL     1      -5.563  12.736  23.546  0.00  0.00    +0.000 A 
ATOM     25  C   UNL     1      -4.891  12.265  24.647  0.00  0.00    +0.000 A 
ATOM     26  O   UNL     1      -3.561  12.201  24.395  0.00  0.00    +0.000 OA
ENDBRANCH   6  22
BRANCH   8  27
ATOM     27  C   UNL     1      -1.480  11.862  19.005  0.00  0.00    +0.000 C 
ATOM     28  O   UNL     1      -1.020  12.786  18.344  0.00  0.00    +0.000 OA
ATOM     29  N   UNL     1      -2.360  10.905  18.528  0.00  0.00    +0.000 N 
ATOM     30  H   UNL     1      -2.773  10.282  19.210  0.00  0.00    +0.000 HD
BRANCH  29  31
ATOM     31  C   UNL     1      -2.771  10.668  17.192  0.00  0.00    +0.000 A 
ATOM     32  C   UNL     1      -2.146   9.821  16.282  0.00  0.00    +0.000 A 
ATOM     33  C   UNL     1      -2.664   9.697  14.987  0.00  0.00    +0.000 A 
ATOM     34  C   UNL     1      -3.799  10.409  14.639  0.00  0.00    +0.000 A 
ATOM     35  N   UNL     1      -4.440  11.231  15.491  0.00  0.00    +0.000 NA
ATOM     36  C   UNL     1      -3.907  11.340  16.731  0.00  0.00    +0.000 A 
ENDBRANCH  29  31
ENDBRANCH   8  27
TORSDOF 8
ENDMDL
MODEL 6
REMARK VINA RESULT:      -8.1      0.731      1.017
REMARK  Name = 
REMARK  9 active torsions:
REMARK  status: ('A' for Active; 'I' for Inactive)
REMARK    1  A    between atoms: C_1  and  O_2
REMARK    2  A    between atoms: O_2  and  C_3
REMARK    3  A    between atoms: C_3  and  C_4
REMARK    4  A    between atoms: C_4  and  O_5
REMARK    5  A    between atoms: O_5  and  C_6
REMARK    6  A    between atoms: C_9  and  C_10
REMARK    7  A    between atoms: C_15  and  C_16
REMARK    8  A    between atoms: C_22  and  C_23
REMARK    9  A    between atoms: N_25  and  C_26
REMARK                            x       y       z     vdW  Elec       q    Type
REMARK                         _______ _______ _______ _____ _____    ______ ____
ROOT
ATOM      1  C   UNL     1       1.075   8.959  21.155  0.00  0.00    +0.000 A 
ATOM      2  C   UNL     1       1.100   8.905  22.543  0.00  0.00    +0.000 A 
ATOM      3  C   UNL     1       0.285   9.769  23.273  0.00  0.00    +0.000 A 
ATOM      4  C   UNL     1      -0.551  10.678  22.640  0.00  0.00    +0.000 A 
ATOM      5  N   UNL     1      -1.449  11.322  23.383  0.00  0.00    +0.000 NA
ATOM      6  C   UNL     1      -2.264  12.204  22.767  0.00  0.00    +0.000 A 
ATOM      7  C   UNL     1      -2.097  12.630  21.466  0.00  0.00    +0.000 A 
ATOM      8  C   UNL     1      -1.355  11.804  20.638  0.00  0.00    +0.000 A 
ATOM      9  C   UNL     1      -0.514  10.828  21.237  0.00  0.00    +0.000 A 
ATOM     10  C   UNL     1       0.346   9.984  20.530  0.00  0.00    +0.000 A 
ENDROOT
BRANCH   1  14
ATOM     11  C   UNL     1       2.879   6.090  18.560  0.00  0.00    +0.000 A 
ATOM     12  C   UNL     1       2.579   7.377  18.120  0.00  0.00    +0.000 A 
ATOM     13  C   UNL     1       1.951   8.268  18.971  0.00  0.00    +0.000 A 
ATOM     14  C   UNL     1       1.660   7.920  20.294  0.00  0.00    +0.000 A 
ATOM     15  C   UNL     1       1.952   6.625  20.737  0.00  0.00    +0.000 A 
ATOM     16  C   UNL     1       2.558   5.713  19.867  0.00  0.00    +0.000 A 
BRANCH  11  17
ATOM     17  O   UNL     1       3.482   5.135  17.788  0.00  0.00    +0.000 OA
BRANCH  17  18
ATOM     18  C   UNL     1       3.582   3.857  18.416  0.00  0.00    +0.000 C 
BRANCH  18  19
ATOM     19  C   UNL     1       2.974   2.792  17.528  0.00  0.00    +0.000 C 
BRANCH  19  21
ATOM     20  C   UNL     1       3.845   1.453  19.251  0.00  0.00    +0.000 C 
ATOM     21  O   UNL     1       3.600   1.556  17.859  0.00  0.00    +0.000 OA
ENDBRANCH  19  21
ENDBRANCH  18  19
ENDBRANCH  17  18
ENDBRANCH  11  17
ENDBRANCH   1  14
BRANCH   6  22
ATOM     22  C   UNL     1      -3.612  12.284  23.312  0.00  0.00    +0.000 A 
ATOM     23  C   UNL     1      -4.123  12.440  24.584  0.00  0.00    +0.000 A 
ATOM     24  C   UNL     1      -5.500  12.731  24.430  0.00  0.00    +0.000 A 
ATOM     25  C   UNL     1      -5.733  12.790  23.077  0.00  0.00    +0.000 A 
ATOM     26  O   UNL     1      -4.598  12.515  22.391  0.00  0.00    +0.000 OA
ENDBRANCH   6  22
BRANCH   8  27
ATOM     27  C   UNL     1      -1.693  11.937  19.166  0.00  0.00    +0.000 C 
ATOM     28  O   UNL     1      -1.312  12.936  18.566  0.00  0.00    +0.000 OA
ATOM     29  N   UNL     1      -2.496  10.945  18.628  0.00  0.00    +0.000 N 
ATOM     30  H   UNL     1      -2.853  10.248  19.267  0.00  0.00    +0.000 HD
BRANCH  29  31
ATOM     31  C   UNL     1      -2.894  10.764  17.279  0.00  0.00    +0.000 A 
ATOM     32  C   UNL     1      -2.235   9.990  16.328  0.00  0.00    +0.000 A 
ATOM     33  C   UNL     1      -2.745   9.915  15.027  0.00  0.00    +0.000 A 
ATOM     34  C   UNL     1      -3.906  10.601  14.712  0.00  0.00    +0.000 A 
ATOM     35  N   UNL     1      -4.579  11.352  15.602  0.00  0.00    +0.000 NA
ATOM     36  C   UNL     1      -4.053  11.416  16.849  0.00  0.00    +0.000 A 
ENDBRANCH  29  31
ENDBRANCH   8  27
TORSDOF 8
ENDMDL
MODEL 7
REMARK VINA RESULT:      -7.8      2.999      3.955
REMARK  Name = 
REMARK  9 active torsions:
REMARK  status: ('A' for Active; 'I' for Inactive)
REMARK    1  A    between atoms: C_1  and  O_2
REMARK    2  A    between atoms: O_2  and  C_3
REMARK    3  A    between atoms: C_3  and  C_4
REMARK    4  A    between atoms: C_4  and  O_5
REMARK    5  A    between atoms: O_5  and  C_6
REMARK    6  A    between atoms: C_9  and  C_10
REMARK    7  A    between atoms: C_15  and  C_16
REMARK    8  A    between atoms: C_22  and  C_23
REMARK    9  A    between atoms: N_25  and  C_26
REMARK                            x       y       z     vdW  Elec       q    Type
REMARK                         _______ _______ _______ _____ _____    ______ ____
ROOT
ATOM      1  C   UNL     1       0.747   9.415  21.229  0.00  0.00    +0.000 A 
ATOM      2  C   UNL     1       0.064   8.966  22.353  0.00  0.00    +0.000 A 
ATOM      3  C   UNL     1      -0.770   9.848  23.040  0.00  0.00    +0.000 A 
ATOM      4  C   UNL     1      -0.930  11.162  22.622  0.00  0.00    +0.000 A 
ATOM      5  N   UNL     1      -1.892  11.885  23.192  0.00  0.00    +0.000 NA
ATOM      6  C   UNL     1      -2.051  13.161  22.783  0.00  0.00    +0.000 A 
ATOM      7  C   UNL     1      -1.160  13.825  21.965  0.00  0.00    +0.000 A 
ATOM      8  C   UNL     1      -0.330  13.035  21.189  0.00  0.00    +0.000 A 
ATOM      9  C   UNL     1      -0.164  11.671  21.551  0.00  0.00    +0.000 A 
ATOM     10  C   UNL     1       0.699  10.781  20.908  0.00  0.00    +0.000 A 
ENDROOT
BRANCH   1  14
ATOM     11  C   UNL     1       2.579   6.646  18.546  0.00  0.00    +0.000 A 
ATOM     12  C   UNL     1       2.300   6.300  19.866  0.00  0.00    +0.000 A 
ATOM     13  C   UNL     1       1.750   7.235  20.724  0.00  0.00    +0.000 A 
ATOM     14  C   UNL     1       1.411   8.516  20.274  0.00  0.00    +0.000 A 
ATOM     15  C   UNL     1       1.697   8.870  18.951  0.00  0.00    +0.000 A 
ATOM     16  C   UNL     1       2.283   7.935  18.092  0.00  0.00    +0.000 A 
BRANCH  11  17
ATOM     17  O   UNL     1       3.137   5.798  17.630  0.00  0.00    +0.000 OA
BRANCH  17  18
ATOM     18  C   UNL     1       3.466   4.510  18.152  0.00  0.00    +0.000 C 
BRANCH  18  19
ATOM     19  C   UNL     1       2.813   3.429  17.319  0.00  0.00    +0.000 C 
BRANCH  19  21
ATOM     20  C   UNL     1       1.064   2.858  18.780  0.00  0.00    +0.000 C 
ATOM     21  O   UNL     1       1.411   3.495  17.562  0.00  0.00    +0.000 OA
ENDBRANCH  19  21
ENDBRANCH  18  19
ENDBRANCH  17  18
ENDBRANCH  11  17
ENDBRANCH   1  14
BRANCH   6  22
ATOM     22  C   UNL     1      -3.425  13.642  22.779  0.00  0.00    +0.000 A 
ATOM     23  C   UNL     1      -4.487  13.503  21.908  0.00  0.00    +0.000 A 
ATOM     24  C   UNL     1      -5.634  13.962  22.598  0.00  0.00    +0.000 A 
ATOM     25  C   UNL     1      -5.215  14.300  23.863  0.00  0.00    +0.000 A 
ATOM     26  O   UNL     1      -3.878  14.116  23.980  0.00  0.00    +0.000 OA
ENDBRANCH   6  22
BRANCH   8  27
ATOM     27  C   UNL     1       0.154  13.706  19.918  0.00  0.00    +0.000 C 
ATOM     28  O   UNL     1      -0.487  13.538  18.887  0.00  0.00    +0.000 OA
ATOM     29  N   UNL     1       1.353  14.395  20.005  0.00  0.00    +0.000 N 
ATOM     30  H   UNL     1       1.849  14.341  20.884  0.00  0.00    +0.000 HD
BRANCH  29  31
ATOM     31  C   UNL     1       1.993  15.182  19.015  0.00  0.00    +0.000 A 
ATOM     32  C   UNL     1       2.989  14.750  18.145  0.00  0.00    +0.000 A 
ATOM     33  C   UNL     1       3.536  15.650  17.222  0.00  0.00    +0.000 A 
ATOM     34  C   UNL     1       3.067  16.951  17.182  0.00  0.00    +0.000 A 
ATOM     35  N   UNL     1       2.099  17.408  17.999  0.00  0.00    +0.000 NA
ATOM     36  C   UNL     1       1.599  16.518  18.889  0.00  0.00    +0.000 A 
ENDBRANCH  29  31
ENDBRANCH   8  27
TORSDOF 8
ENDMDL
MODEL 8
REMARK VINA RESULT:      -7.8      3.161      4.265
REMARK  Name = 
REMARK  9 active torsions:
REMARK  status: ('A' for Active; 'I' for Inactive)
REMARK    1  A    between atoms: C_1  and  O_2
REMARK    2  A    between atoms: O_2  and  C_3
REMARK    3  A    between atoms: C_3  and  C_4
REMARK    4  A    between atoms: C_4  and  O_5
REMARK    5  A    between atoms: O_5  and  C_6
REMARK    6  A    between atoms: C_9  and  C_10
REMARK    7  A    between atoms: C_15  and  C_16
REMARK    8  A    between atoms: C_22  and  C_23
REMARK    9  A    between atoms: N_25  and  C_26
REMARK                            x       y       z     vdW  Elec       q    Type
REMARK                         _______ _______ _______ _____ _____    ______ ____
ROOT
ATOM      1  C   UNL     1       1.133   8.866  20.926  0.00  0.00    +0.000 A 
ATOM      2  C   UNL     1       0.472   8.330  22.024  0.00  0.00    +0.000 A 
ATOM      3  C   UNL     1      -0.403   9.135  22.753  0.00  0.00    +0.000 A 
ATOM      4  C   UNL     1      -0.626  10.460  22.401  0.00  0.00    +0.000 A 
ATOM      5  N   UNL     1      -1.620  11.106  23.005  0.00  0.00    +0.000 NA
ATOM      6  C   UNL     1      -1.840  12.393  22.660  0.00  0.00    +0.000 A 
ATOM      7  C   UNL     1      -0.982  13.138  21.879  0.00  0.00    +0.000 A 
ATOM      8  C   UNL     1      -0.116  12.428  21.065  0.00  0.00    +0.000 A 
ATOM      9  C   UNL     1       0.115  11.058  21.359  0.00  0.00    +0.000 A 
ATOM     10  C   UNL     1       1.020  10.243  20.673  0.00  0.00    +0.000 A 
ENDROOT
BRANCH   1  14
ATOM     11  C   UNL     1       3.277   6.663  17.965  0.00  0.00    +0.000 A 
ATOM     12  C   UNL     1       2.872   7.976  17.739  0.00  0.00    +0.000 A 
ATOM     13  C   UNL     1       2.137   8.647  18.700  0.00  0.00    +0.000 A 
ATOM     14  C   UNL     1       1.839   8.049  19.928  0.00  0.00    +0.000 A 
ATOM     15  C   UNL     1       2.237   6.727  20.156  0.00  0.00    +0.000 A 
ATOM     16  C   UNL     1       2.952   6.037  19.172  0.00  0.00    +0.000 A 
BRANCH  11  17
ATOM     17  O   UNL     1       3.990   5.914  17.070  0.00  0.00    +0.000 OA
BRANCH  17  18
ATOM     18  C   UNL     1       5.068   6.616  16.451  0.00  0.00    +0.000 C 
BRANCH  18  19
ATOM     19  C   UNL     1       6.200   5.660  16.140  0.00  0.00    +0.000 C 
BRANCH  19  21
ATOM     20  C   UNL     1       7.318   7.118  17.605  0.00  0.00    +0.000 C 
ATOM     21  O   UNL     1       7.419   6.340  16.425  0.00  0.00    +0.000 OA
ENDBRANCH  19  21
ENDBRANCH  18  19
ENDBRANCH  17  18
ENDBRANCH  11  17
ENDBRANCH   1  14
BRANCH   6  22
ATOM     22  C   UNL     1      -3.235  12.807  22.677  0.00  0.00    +0.000 A 
ATOM     23  C   UNL     1      -4.221  12.897  21.716  0.00  0.00    +0.000 A 
ATOM     24  C   UNL     1      -5.440  13.092  22.407  0.00  0.00    +0.000 A 
ATOM     25  C   UNL     1      -5.135  13.055  23.746  0.00  0.00    +0.000 A 
ATOM     26  O   UNL     1      -3.802  12.889  23.921  0.00  0.00    +0.000 OA
ENDBRANCH   6  22
BRANCH   8  27
ATOM     27  C   UNL     1       0.335  13.185  19.831  0.00  0.00    +0.000 C 
ATOM     28  O   UNL     1      -0.194  12.921  18.757  0.00  0.00    +0.000 OA
ATOM     29  N   UNL     1       1.390  14.066  20.001  0.00  0.00    +0.000 N 
ATOM     30  H   UNL     1       1.826  14.089  20.914  0.00  0.00    +0.000 HD
BRANCH  29  31
ATOM     31  C   UNL     1       1.956  14.961  19.058  0.00  0.00    +0.000 A 
ATOM     32  C   UNL     1       3.004  14.677  18.188  0.00  0.00    +0.000 A 
ATOM     33  C   UNL     1       3.464  15.671  17.315  0.00  0.00    +0.000 A 
ATOM     34  C   UNL     1       2.857  16.915  17.322  0.00  0.00    +0.000 A 
ATOM     35  N   UNL     1       1.835  17.229  18.140  0.00  0.00    +0.000 NA
ATOM     36  C   UNL     1       1.422  16.251  18.982  0.00  0.00    +0.000 A 
ENDBRANCH  29  31
ENDBRANCH   8  27
TORSDOF 8
ENDMDL
MODEL 9
REMARK VINA RESULT:      -7.8      2.955      3.855
REMARK  Name = 
REMARK  9 active torsions:
REMARK  status: ('A' for Active; 'I' for Inactive)
REMARK    1  A    between atoms: C_1  and  O_2
REMARK    2  A    between atoms: O_2  and  C_3
REMARK    3  A    between atoms: C_3  and  C_4
REMARK    4  A    between atoms: C_4  and  O_5
REMARK    5  A    between atoms: O_5  and  C_6
REMARK    6  A    between atoms: C_9  and  C_10
REMARK    7  A    between atoms: C_15  and  C_16
REMARK    8  A    between atoms: C_22  and  C_23
REMARK    9  A    between atoms: N_25  and  C_26
REMARK                            x       y       z     vdW  Elec       q    Type
REMARK                         _______ _______ _______ _____ _____    ______ ____
ROOT
ATOM      1  C   UNL     1       0.810   9.299  21.183  0.00  0.00    +0.000 A 
ATOM      2  C   UNL     1       0.133   8.817  22.296  0.00  0.00    +0.000 A 
ATOM      3  C   UNL     1      -0.716   9.670  23.001  0.00  0.00    +0.000 A 
ATOM      4  C   UNL     1      -0.899  10.989  22.609  0.00  0.00    +0.000 A 
ATOM      5  N   UNL     1      -1.873  11.684  23.192  0.00  0.00    +0.000 NA
ATOM      6  C   UNL     1      -2.053  12.966  22.809  0.00  0.00    +0.000 A 
ATOM      7  C   UNL     1      -1.173  13.661  22.006  0.00  0.00    +0.000 A 
ATOM      8  C   UNL     1      -0.329  12.901  21.215  0.00  0.00    +0.000 A 
ATOM      9  C   UNL     1      -0.141  11.533  21.549  0.00  0.00    +0.000 A 
ATOM     10  C   UNL     1       0.738  10.671  20.889  0.00  0.00    +0.000 A 
ENDROOT
BRANCH   1  14
ATOM     11  C   UNL     1       2.871   6.946  18.280  0.00  0.00    +0.000 A 
ATOM     12  C   UNL     1       2.428   8.234  17.987  0.00  0.00    +0.000 A 
ATOM     13  C   UNL     1       1.721   8.952  18.933  0.00  0.00    +0.000 A 
ATOM     14  C   UNL     1       1.489   8.431  20.210  0.00  0.00    +0.000 A 
ATOM     15  C   UNL     1       1.926   7.135  20.506  0.00  0.00    +0.000 A 
ATOM     16  C   UNL     1       2.613   6.395  19.538  0.00  0.00    +0.000 A 
BRANCH  11  17
ATOM     17  O   UNL     1       3.562   6.153  17.405  0.00  0.00    +0.000 OA
BRANCH  17  18
ATOM     18  C   UNL     1       3.991   4.910  17.960  0.00  0.00    +0.000 C 
BRANCH  18  19
ATOM     19  C   UNL     1       3.718   3.784  16.985  0.00  0.00    +0.000 C 
BRANCH  19  21
ATOM     20  C   UNL     1       3.329   1.811  18.201  0.00  0.00    +0.000 C 
ATOM     21  O   UNL     1       2.737   2.939  17.578  0.00  0.00    +0.000 OA
ENDBRANCH  19  21
ENDBRANCH  18  19
ENDBRANCH  17  18
ENDBRANCH  11  17
ENDBRANCH   1  14
BRANCH   6  22
ATOM     22  C   UNL     1      -3.435  13.423  22.813  0.00  0.00    +0.000 A 
ATOM     23  C   UNL     1      -4.080  14.529  22.300  0.00  0.00    +0.000 A 
ATOM     24  C   UNL     1      -5.467  14.261  22.385  0.00  0.00    +0.000 A 
ATOM     25  C   UNL     1      -5.584  12.989  22.892  0.00  0.00    +0.000 A 
ATOM     26  O   UNL     1      -4.360  12.475  23.161  0.00  0.00    +0.000 OA
ENDBRANCH   6  22
BRANCH   8  27
ATOM     27  C   UNL     1       0.144  13.606  19.959  0.00  0.00    +0.000 C 
ATOM     28  O   UNL     1      -0.521  13.488  18.936  0.00  0.00    +0.000 OA
ATOM     29  N   UNL     1       1.359  14.265  20.044  0.00  0.00    +0.000 N 
ATOM     30  H   UNL     1       1.872  14.170  20.911  0.00  0.00    +0.000 HD
BRANCH  29  31
ATOM     31  C   UNL     1       1.998  15.073  19.070  0.00  0.00    +0.000 A 
ATOM     32  C   UNL     1       2.958  14.648  18.157  0.00  0.00    +0.000 A 
ATOM     33  C   UNL     1       3.508  15.568  17.256  0.00  0.00    +0.000 A 
ATOM     34  C   UNL     1       3.075  16.883  17.279  0.00  0.00    +0.000 A 
ATOM     35  N   UNL     1       2.142  17.334  18.138  0.00  0.00    +0.000 NA
ATOM     36  C   UNL     1       1.639  16.423  19.006  0.00  0.00    +0.000 A 
ENDBRANCH  29  31
ENDBRANCH   8  27
TORSDOF 8
ENDMDL
