MODEL 1
REMARK VINA RESULT:      -7.4      0.000      0.000
REMARK  Name = 
REMARK  6 active torsions:
REMARK  status: ('A' for Active; 'I' for Inactive)
REMARK    1  A    between atoms: C_1  and  C_2
REMARK    2  A    between atoms: C_3  and  C_4
REMARK    3  A    between atoms: C_4  and  N_5
REMARK    4  A    between atoms: C_12  and  C_13
REMARK    5  A    between atoms: C_18  and  C_19
REMARK    6  A    between atoms: N_23  and  C_24
REMARK                            x       y       z     vdW  Elec       q    Type
REMARK                         _______ _______ _______ _____ _____    ______ ____
ROOT
ATOM      1  C   UNL     1       1.627   6.627  19.699  0.00  0.00    +0.000 C 
ATOM      2  C   UNL     1       2.675   6.811  18.647  0.00  0.00    +0.000 A 
ATOM      3  C   UNL     1       3.036   8.027  18.071  0.00  0.00    +0.000 A 
ATOM      4  C   UNL     1       4.080   7.744  17.171  0.00  0.00    +0.000 A 
ATOM      5  C   UNL     1       4.262   6.375  17.064  0.00  0.00    +0.000 A 
ATOM      6  N   UNL     1       3.412   5.774  18.034  0.00  0.00    +0.000 N 
ENDROOT
BRANCH   6   7
ATOM      7  C   UNL     1       3.348   4.366  18.376  0.00  0.00    +0.000 A 
ATOM      8  C   UNL     1       4.163   3.828  19.385  0.00  0.00    +0.000 A 
ATOM      9  C   UNL     1       4.220   2.446  19.608  0.00  0.00    +0.000 A 
ATOM     10  C   UNL     1       3.484   1.589  18.804  0.00  0.00    +0.000 A 
ATOM     11  F   UNL     1       3.601   0.265  18.965  0.00  0.00    +0.000 F 
ATOM     12  C   UNL     1       2.645   2.095  17.824  0.00  0.00    +0.000 A 
ATOM     13  C   UNL     1       2.544   3.481  17.639  0.00  0.00    +0.000 A 
ENDBRANCH   6   7
BRANCH   5  14
ATOM     14  C   UNL     1       5.279   5.712  16.202  0.00  0.00    +0.000 A 
ATOM     15  C   UNL     1       4.873   5.177  14.962  0.00  0.00    +0.000 A 
ATOM     16  C   UNL     1       5.783   4.629  14.056  0.00  0.00    +0.000 A 
ATOM     17  C   UNL     1       7.119   4.514  14.407  0.00  0.00    +0.000 A 
ATOM     18  C   UNL     1       7.531   4.942  15.662  0.00  0.00    +0.000 A 
ATOM     19  C   UNL     1       6.635   5.557  16.576  0.00  0.00    +0.000 A 
BRANCH  19  20
ATOM     20  C   UNL     1       7.249   5.953  17.902  0.00  0.00    +0.000 C 
ATOM     21  F   UNL     1       6.410   6.075  18.962  0.00  0.00    +0.000 F 
ATOM     22  F   UNL     1       8.212   5.056  18.292  0.00  0.00    +0.000 F 
ATOM     23  F   UNL     1       7.893   7.150  17.830  0.00  0.00    +0.000 F 
ENDBRANCH  19  20
ENDBRANCH   5  14
BRANCH   3  24
ATOM     24  C   UNL     1       2.499   9.400  18.375  0.00  0.00    +0.000 C 
BRANCH  24  25
ATOM     25  N   UNL     1       1.070   9.377  18.767  0.00  0.00    +0.000 NA
ATOM     26  C   UNL     1       0.213   9.878  17.663  0.00  0.00    +0.000 C 
ATOM     27  C   UNL     1      -1.286  10.009  17.975  0.00  0.00    +0.000 C 
ATOM     28  S   UNL     1      -1.611  11.148  19.350  0.00  0.00    +0.000 S 
ATOM     29  C   UNL     1      -0.506  10.342  20.539  0.00  0.00    +0.000 C 
ATOM     30  C   UNL     1       0.918  10.209  19.985  0.00  0.00    +0.000 C 
ENDBRANCH  24  25
ENDBRANCH   3  24
TORSDOF 5
ENDMDL
MODEL 2
REMARK VINA RESULT:      -7.0      5.305      8.702
REMARK  Name = 
REMARK  6 active torsions:
REMARK  status: ('A' for Active; 'I' for Inactive)
REMARK    1  A    between atoms: C_1  and  C_2
REMARK    2  A    between atoms: C_3  and  C_4
REMARK    3  A    between atoms: C_4  and  N_5
REMARK    4  A    between atoms: C_12  and  C_13
REMARK    5  A    between atoms: C_18  and  C_19
REMARK    6  A    between atoms: N_23  and  C_24
REMARK                            x       y       z     vdW  Elec       q    Type
REMARK                         _______ _______ _______ _____ _____    ______ ____
ROOT
ATOM      1  C   UNL     1      -1.188  14.834  19.995  0.00  0.00    +0.000 C 
ATOM      2  C   UNL     1      -1.128  13.349  19.818  0.00  0.00    +0.000 A 
ATOM      3  C   UNL     1      -2.223  12.489  19.838  0.00  0.00    +0.000 A 
ATOM      4  C   UNL     1      -1.717  11.199  19.591  0.00  0.00    +0.000 A 
ATOM      5  C   UNL     1      -0.333  11.223  19.578  0.00  0.00    +0.000 A 
ATOM      6  N   UNL     1       0.053  12.589  19.670  0.00  0.00    +0.000 N 
ENDROOT
BRANCH   6   7
ATOM      7  C   UNL     1       1.401  13.118  19.572  0.00  0.00    +0.000 A 
ATOM      8  C   UNL     1       2.129  13.460  20.723  0.00  0.00    +0.000 A 
ATOM      9  C   UNL     1       3.362  14.118  20.628  0.00  0.00    +0.000 A 
ATOM     10  C   UNL     1       3.862  14.464  19.383  0.00  0.00    +0.000 A 
ATOM     11  F   UNL     1       5.001  15.164  19.297  0.00  0.00    +0.000 F 
ATOM     12  C   UNL     1       3.182  14.108  18.230  0.00  0.00    +0.000 A 
ATOM     13  C   UNL     1       1.975  13.399  18.322  0.00  0.00    +0.000 A 
ENDBRANCH   6   7
BRANCH   5  14
ATOM     14  C   UNL     1       0.541  10.039  19.347  0.00  0.00    +0.000 A 
ATOM     15  C   UNL     1       0.957   9.749  18.031  0.00  0.00    +0.000 A 
ATOM     16  C   UNL     1       1.855   8.718  17.746  0.00  0.00    +0.000 A 
ATOM     17  C   UNL     1       2.290   7.884  18.765  0.00  0.00    +0.000 A 
ATOM     18  C   UNL     1       1.820   8.085  20.056  0.00  0.00    +0.000 A 
ATOM     19  C   UNL     1       0.954   9.163  20.379  0.00  0.00    +0.000 A 
BRANCH  19  20
ATOM     20  C   UNL     1       0.530   9.227  21.830  0.00  0.00    +0.000 C 
ATOM     21  F   UNL     1       1.405   8.751  22.753  0.00  0.00    +0.000 F 
ATOM     22  F   UNL     1       0.253  10.516  22.212  0.00  0.00    +0.000 F 
ATOM     23  F   UNL     1      -0.622   8.538  22.059  0.00  0.00    +0.000 F 
ENDBRANCH  19  20
ENDBRANCH   5  14
BRANCH   3  24
ATOM     24  C   UNL     1      -3.678  12.834  20.006  0.00  0.00    +0.000 C 
BRANCH  24  25
ATOM     25  N   UNL     1      -3.987  13.350  21.362  0.00  0.00    +0.000 NA
ATOM     26  C   UNL     1      -3.430  12.453  22.405  0.00  0.00    +0.000 C 
ATOM     27  C   UNL     1      -3.769  12.815  23.861  0.00  0.00    +0.000 C 
ATOM     28  S   UNL     1      -5.557  12.816  24.174  0.00  0.00    +0.000 S 
ATOM     29  C   UNL     1      -5.992  13.956  22.833  0.00  0.00    +0.000 C 
ATOM     30  C   UNL     1      -5.460  13.464  21.482  0.00  0.00    +0.000 C 
ENDBRANCH  24  25
ENDBRANCH   3  24
TORSDOF 5
ENDMDL
MODEL 3
REMARK VINA RESULT:      -7.0      3.653      7.473
REMARK  Name = 
REMARK  6 active torsions:
REMARK  status: ('A' for Active; 'I' for Inactive)
REMARK    1  A    between atoms: C_1  and  C_2
REMARK    2  A    between atoms: C_3  and  C_4
REMARK    3  A    between atoms: C_4  and  N_5
REMARK    4  A    between atoms: C_12  and  C_13
REMARK    5  A    between atoms: C_18  and  C_19
REMARK    6  A    between atoms: N_23  and  C_24
REMARK                            x       y       z     vdW  Elec       q    Type
REMARK                         _______ _______ _______ _____ _____    ______ ____
ROOT
ATOM      1  C   UNL     1       5.049   7.512  16.610  0.00  0.00    +0.000 C 
ATOM      2  C   UNL     1       4.774   6.248  17.362  0.00  0.00    +0.000 A 
ATOM      3  C   UNL     1       5.503   5.066  17.249  0.00  0.00    +0.000 A 
ATOM      4  C   UNL     1       4.930   4.159  18.159  0.00  0.00    +0.000 A 
ATOM      5  C   UNL     1       3.778   4.697  18.710  0.00  0.00    +0.000 A 
ATOM      6  N   UNL     1       3.696   6.041  18.251  0.00  0.00    +0.000 N 
ENDROOT
BRANCH   6   7
ATOM      7  C   UNL     1       2.724   7.038  18.659  0.00  0.00    +0.000 A 
ATOM      8  C   UNL     1       2.261   8.009  17.756  0.00  0.00    +0.000 A 
ATOM      9  C   UNL     1       1.449   9.067  18.187  0.00  0.00    +0.000 A 
ATOM     10  C   UNL     1       1.118   9.177  19.528  0.00  0.00    +0.000 A 
ATOM     11  F   UNL     1       0.410  10.231  19.951  0.00  0.00    +0.000 F 
ATOM     12  C   UNL     1       1.532   8.214  20.434  0.00  0.00    +0.000 A 
ATOM     13  C   UNL     1       2.298   7.124  19.994  0.00  0.00    +0.000 A 
ENDBRANCH   6   7
BRANCH   5  14
ATOM     14  C   UNL     1       2.911   4.017  19.711  0.00  0.00    +0.000 A 
ATOM     15  C   UNL     1       3.261   4.092  21.075  0.00  0.00    +0.000 A 
ATOM     16  C   UNL     1       2.446   3.567  22.080  0.00  0.00    +0.000 A 
ATOM     17  C   UNL     1       1.301   2.865  21.741  0.00  0.00    +0.000 A 
ATOM     18  C   UNL     1       0.982   2.690  20.401  0.00  0.00    +0.000 A 
ATOM     19  C   UNL     1       1.763   3.266  19.364  0.00  0.00    +0.000 A 
BRANCH  19  20
ATOM     20  C   UNL     1       1.279   2.966  17.961  0.00  0.00    +0.000 C 
ATOM     21  F   UNL     1       2.144   2.332  17.129  0.00  0.00    +0.000 F 
ATOM     22  F   UNL     1       0.147   2.191  17.980  0.00  0.00    +0.000 F 
ATOM     23  F   UNL     1       0.919   4.096  17.291  0.00  0.00    +0.000 F 
ENDBRANCH  19  20
ENDBRANCH   5  14
BRANCH   3  24
ATOM     24  C   UNL     1       6.714   4.795  16.398  0.00  0.00    +0.000 C 
BRANCH  24  25
ATOM     25  N   UNL     1       6.423   4.895  14.947  0.00  0.00    +0.000 NA
ATOM     26  C   UNL     1       5.675   3.702  14.478  0.00  0.00    +0.000 C 
ATOM     27  C   UNL     1       5.400   3.626  12.967  0.00  0.00    +0.000 C 
ATOM     28  S   UNL     1       6.928   3.616  11.986  0.00  0.00    +0.000 S 
ATOM     29  C   UNL     1       7.633   5.123  12.703  0.00  0.00    +0.000 C 
ATOM     30  C   UNL     1       7.714   5.035  14.232  0.00  0.00    +0.000 C 
ENDBRANCH  24  25
ENDBRANCH   3  24
TORSDOF 5
ENDMDL
MODEL 4
REMARK VINA RESULT:      -7.0      6.548      9.435
REMARK  Name = 
REMARK  6 active torsions:
REMARK  status: ('A' for Active; 'I' for Inactive)
REMARK    1  A    between atoms: C_1  and  C_2
REMARK    2  A    between atoms: C_3  and  C_4
REMARK    3  A    between atoms: C_4  and  N_5
REMARK    4  A    between atoms: C_12  and  C_13
REMARK    5  A    between atoms: C_18  and  C_19
REMARK    6  A    between atoms: N_23  and  C_24
REMARK                            x       y       z     vdW  Elec       q    Type
REMARK                         _______ _______ _______ _____ _____    ______ ____
ROOT
ATOM      1  C   UNL     1       1.429  15.304  21.705  0.00  0.00    +0.000 C 
ATOM      2  C   UNL     1       1.127  14.474  20.497  0.00  0.00    +0.000 A 
ATOM      3  C   UNL     1       1.772  14.576  19.266  0.00  0.00    +0.000 A 
ATOM      4  C   UNL     1       1.207  13.587  18.440  0.00  0.00    +0.000 A 
ATOM      5  C   UNL     1       0.130  12.991  19.076  0.00  0.00    +0.000 A 
ATOM      6  N   UNL     1       0.101  13.509  20.401  0.00  0.00    +0.000 N 
ENDROOT
BRANCH   6   7
ATOM      7  C   UNL     1      -0.777  13.089  21.476  0.00  0.00    +0.000 A 
ATOM      8  C   UNL     1      -0.571  11.873  22.147  0.00  0.00    +0.000 A 
ATOM      9  C   UNL     1      -1.506  11.390  23.072  0.00  0.00    +0.000 A 
ATOM     10  C   UNL     1      -2.668  12.106  23.312  0.00  0.00    +0.000 A 
ATOM     11  F   UNL     1      -3.597  11.605  24.136  0.00  0.00    +0.000 F 
ATOM     12  C   UNL     1      -2.881  13.327  22.692  0.00  0.00    +0.000 A 
ATOM     13  C   UNL     1      -1.919  13.837  21.808  0.00  0.00    +0.000 A 
ENDBRANCH   6   7
BRANCH   5  14
ATOM     14  C   UNL     1      -0.708  11.903  18.501  0.00  0.00    +0.000 A 
ATOM     15  C   UNL     1      -2.043  12.191  18.144  0.00  0.00    +0.000 A 
ATOM     16  C   UNL     1      -2.859  11.254  17.508  0.00  0.00    +0.000 A 
ATOM     17  C   UNL     1      -2.394   9.966  17.297  0.00  0.00    +0.000 A 
ATOM     18  C   UNL     1      -1.118   9.625  17.728  0.00  0.00    +0.000 A 
ATOM     19  C   UNL     1      -0.248  10.577  18.321  0.00  0.00    +0.000 A 
BRANCH  19  20
ATOM     20  C   UNL     1       1.100  10.033  18.741  0.00  0.00    +0.000 C 
ATOM     21  F   UNL     1       1.464  10.209  20.037  0.00  0.00    +0.000 F 
ATOM     22  F   UNL     1       1.185   8.682  18.513  0.00  0.00    +0.000 F 
ATOM     23  F   UNL     1       2.119  10.576  18.019  0.00  0.00    +0.000 F 
ENDBRANCH  19  20
ENDBRANCH   5  14
BRANCH   3  24
ATOM     24  C   UNL     1       2.903  15.489  18.878  0.00  0.00    +0.000 C 
BRANCH  24  25
ATOM     25  N   UNL     1       4.232  14.859  19.064  0.00  0.00    +0.000 NA
ATOM     26  C   UNL     1       4.939  15.456  20.224  0.00  0.00    +0.000 C 
ATOM     27  C   UNL     1       6.377  14.968  20.466  0.00  0.00    +0.000 C 
ATOM     28  S   UNL     1       7.467  15.300  19.053  0.00  0.00    +0.000 S 
ATOM     29  C   UNL     1       6.432  14.485  17.809  0.00  0.00    +0.000 C 
ATOM     30  C   UNL     1       5.004  15.044  17.811  0.00  0.00    +0.000 C 
ENDBRANCH  24  25
ENDBRANCH   3  24
TORSDOF 5
ENDMDL
MODEL 5
REMARK VINA RESULT:      -6.9      4.908      8.126
REMARK  Name = 
REMARK  6 active torsions:
REMARK  status: ('A' for Active; 'I' for Inactive)
REMARK    1  A    between atoms: C_1  and  C_2
REMARK    2  A    between atoms: C_3  and  C_4
REMARK    3  A    between atoms: C_4  and  N_5
REMARK    4  A    between atoms: C_12  and  C_13
REMARK    5  A    between atoms: C_18  and  C_19
REMARK    6  A    between atoms: N_23  and  C_24
REMARK                            x       y       z     vdW  Elec       q    Type
REMARK                         _______ _______ _______ _____ _____    ______ ____
ROOT
ATOM      1  C   UNL     1      -1.306  14.037  18.715  0.00  0.00    +0.000 C 
ATOM      2  C   UNL     1      -1.084  12.561  18.622  0.00  0.00    +0.000 A 
ATOM      3  C   UNL     1      -2.053  11.619  18.280  0.00  0.00    +0.000 A 
ATOM      4  C   UNL     1      -1.405  10.370  18.273  0.00  0.00    +0.000 A 
ATOM      5  C   UNL     1      -0.112  10.499  18.751  0.00  0.00    +0.000 A 
ATOM      6  N   UNL     1       0.121  11.891  18.928  0.00  0.00    +0.000 N 
ENDROOT
BRANCH   6   7
ATOM      7  C   UNL     1       1.375  12.521  19.297  0.00  0.00    +0.000 A 
ATOM      8  C   UNL     1       1.666  12.824  20.637  0.00  0.00    +0.000 A 
ATOM      9  C   UNL     1       2.799  13.573  20.979  0.00  0.00    +0.000 A 
ATOM     10  C   UNL     1       3.634  14.050  19.981  0.00  0.00    +0.000 A 
ATOM     11  F   UNL     1       4.671  14.834  20.302  0.00  0.00    +0.000 F 
ATOM     12  C   UNL     1       3.390  13.737  18.653  0.00  0.00    +0.000 A 
ATOM     13  C   UNL     1       2.288  12.939  18.315  0.00  0.00    +0.000 A 
ENDBRANCH   6   7
BRANCH   5  14
ATOM     14  C   UNL     1       0.866   9.384  18.886  0.00  0.00    +0.000 A 
ATOM     15  C   UNL     1       1.577   8.962  17.742  0.00  0.00    +0.000 A 
ATOM     16  C   UNL     1       2.580   7.994  17.807  0.00  0.00    +0.000 A 
ATOM     17  C   UNL     1       2.836   7.348  19.007  0.00  0.00    +0.000 A 
ATOM     18  C   UNL     1       2.084   7.673  20.128  0.00  0.00    +0.000 A 
ATOM     19  C   UNL     1       1.101   8.696  20.100  0.00  0.00    +0.000 A 
BRANCH  19  20
ATOM     20  C   UNL     1       0.368   8.912  21.407  0.00  0.00    +0.000 C 
ATOM     21  F   UNL     1      -0.149  10.147  21.632  0.00  0.00    +0.000 F 
ATOM     22  F   UNL     1      -0.684   8.040  21.537  0.00  0.00    +0.000 F 
ATOM     23  F   UNL     1       1.163   8.667  22.486  0.00  0.00    +0.000 F 
ENDBRANCH  19  20
ENDBRANCH   5  14
BRANCH   3  24
ATOM     24  C   UNL     1      -3.492  11.853  17.910  0.00  0.00    +0.000 C 
BRANCH  24  25
ATOM     25  N   UNL     1      -4.430  11.439  18.981  0.00  0.00    +0.000 NA
ATOM     26  C   UNL     1      -5.690  10.911  18.402  0.00  0.00    +0.000 C 
ATOM     27  C   UNL     1      -6.795  10.544  19.406  0.00  0.00    +0.000 C 
ATOM     28  S   UNL     1      -7.319  11.964  20.408  0.00  0.00    +0.000 S 
ATOM     29  C   UNL     1      -5.666  12.407  21.003  0.00  0.00    +0.000 C 
ATOM     30  C   UNL     1      -4.687  12.619  19.842  0.00  0.00    +0.000 C 
ENDBRANCH  24  25
ENDBRANCH   3  24
TORSDOF 5
ENDMDL
MODEL 6
REMARK VINA RESULT:      -6.9      0.681      1.108
REMARK  Name = 
REMARK  6 active torsions:
REMARK  status: ('A' for Active; 'I' for Inactive)
REMARK    1  A    between atoms: C_1  and  C_2
REMARK    2  A    between atoms: C_3  and  C_4
REMARK    3  A    between atoms: C_4  and  N_5
REMARK    4  A    between atoms: C_12  and  C_13
REMARK    5  A    between atoms: C_18  and  C_19
REMARK    6  A    between atoms: N_23  and  C_24
REMARK                            x       y       z     vdW  Elec       q    Type
REMARK                         _______ _______ _______ _____ _____    ______ ____
ROOT
ATOM      1  C   UNL     1       1.271   6.996  19.627  0.00  0.00    +0.000 C 
ATOM      2  C   UNL     1       2.403   7.074  18.653  0.00  0.00    +0.000 A 
ATOM      3  C   UNL     1       2.884   8.242  18.066  0.00  0.00    +0.000 A 
ATOM      4  C   UNL     1       3.971   7.861  17.258  0.00  0.00    +0.000 A 
ATOM      5  C   UNL     1       4.070   6.480  17.210  0.00  0.00    +0.000 A 
ATOM      6  N   UNL     1       3.113   5.970  18.131  0.00  0.00    +0.000 N 
ENDROOT
BRANCH   6   7
ATOM      7  C   UNL     1       2.932   4.583  18.513  0.00  0.00    +0.000 A 
ATOM      8  C   UNL     1       2.122   3.723  17.755  0.00  0.00    +0.000 A 
ATOM      9  C   UNL     1       1.816   2.432  18.207  0.00  0.00    +0.000 A 
ATOM     10  C   UNL     1       2.294   2.003  19.435  0.00  0.00    +0.000 A 
ATOM     11  F   UNL     1       1.936   0.801  19.903  0.00  0.00    +0.000 F 
ATOM     12  C   UNL     1       3.125   2.818  20.188  0.00  0.00    +0.000 A 
ATOM     13  C   UNL     1       3.477   4.088  19.709  0.00  0.00    +0.000 A 
ENDBRANCH   6   7
BRANCH   5  14
ATOM     14  C   UNL     1       5.101   5.722  16.449  0.00  0.00    +0.000 A 
ATOM     15  C   UNL     1       4.748   5.151  15.208  0.00  0.00    +0.000 A 
ATOM     16  C   UNL     1       5.683   4.512  14.392  0.00  0.00    +0.000 A 
ATOM     17  C   UNL     1       6.984   4.341  14.838  0.00  0.00    +0.000 A 
ATOM     18  C   UNL     1       7.336   4.806  16.099  0.00  0.00    +0.000 A 
ATOM     19  C   UNL     1       6.419   5.511  16.921  0.00  0.00    +0.000 A 
BRANCH  19  20
ATOM     20  C   UNL     1       6.966   5.936  18.267  0.00  0.00    +0.000 C 
ATOM     21  F   UNL     1       6.138   5.823  19.337  0.00  0.00    +0.000 F 
ATOM     22  F   UNL     1       8.093   5.224  18.593  0.00  0.00    +0.000 F 
ATOM     23  F   UNL     1       7.361   7.240  18.271  0.00  0.00    +0.000 F 
ENDBRANCH  19  20
ENDBRANCH   5  14
BRANCH   3  24
ATOM     24  C   UNL     1       2.418   9.656  18.283  0.00  0.00    +0.000 C 
BRANCH  24  25
ATOM     25  N   UNL     1       1.048   9.723  18.847  0.00  0.00    +0.000 NA
ATOM     26  C   UNL     1       0.059  10.043  17.788  0.00  0.00    +0.000 C 
ATOM     27  C   UNL     1      -1.392  10.248  18.255  0.00  0.00    +0.000 C 
ATOM     28  S   UNL     1      -1.549  11.609  19.445  0.00  0.00    +0.000 S 
ATOM     29  C   UNL     1      -0.300  11.000  20.609  0.00  0.00    +0.000 C 
ATOM     30  C   UNL     1       1.044  10.753  19.914  0.00  0.00    +0.000 C 
ENDBRANCH  24  25
ENDBRANCH   3  24
TORSDOF 5
ENDMDL
MODEL 7
REMARK VINA RESULT:      -6.8      7.022      9.916
REMARK  Name = 
REMARK  6 active torsions:
REMARK  status: ('A' for Active; 'I' for Inactive)
REMARK    1  A    between atoms: C_1  and  C_2
REMARK    2  A    between atoms: C_3  and  C_4
REMARK    3  A    between atoms: C_4  and  N_5
REMARK    4  A    between atoms: C_12  and  C_13
REMARK    5  A    between atoms: C_18  and  C_19
REMARK    6  A    between atoms: N_23  and  C_24
REMARK                            x       y       z     vdW  Elec       q    Type
REMARK                         _______ _______ _______ _____ _____    ______ ____
ROOT
ATOM      1  C   UNL     1      -0.293  15.708  21.631  0.00  0.00    +0.000 C 
ATOM      2  C   UNL     1      -0.387  14.822  20.429  0.00  0.00    +0.000 A 
ATOM      3  C   UNL     1       0.266  15.034  19.217  0.00  0.00    +0.000 A 
ATOM      4  C   UNL     1      -0.068  13.944  18.392  0.00  0.00    +0.000 A 
ATOM      5  C   UNL     1      -1.027  13.155  19.006  0.00  0.00    +0.000 A 
ATOM      6  N   UNL     1      -1.200  13.673  20.320  0.00  0.00    +0.000 N 
ENDROOT
BRANCH   6   7
ATOM      7  C   UNL     1      -2.015  13.101  21.376  0.00  0.00    +0.000 A 
ATOM      8  C   UNL     1      -3.335  13.531  21.585  0.00  0.00    +0.000 A 
ATOM      9  C   UNL     1      -4.067  13.099  22.699  0.00  0.00    +0.000 A 
ATOM     10  C   UNL     1      -3.474  12.259  23.627  0.00  0.00    +0.000 A 
ATOM     11  F   UNL     1      -4.146  11.912  24.732  0.00  0.00    +0.000 F 
ATOM     12  C   UNL     1      -2.185  11.791  23.428  0.00  0.00    +0.000 A 
ATOM     13  C   UNL     1      -1.472  12.178  22.284  0.00  0.00    +0.000 A 
ENDBRANCH   6   7
BRANCH   5  14
ATOM     14  C   UNL     1      -1.617  11.918  18.425  0.00  0.00    +0.000 A 
ATOM     15  C   UNL     1      -2.966  11.938  18.012  0.00  0.00    +0.000 A 
ATOM     16  C   UNL     1      -3.562  10.853  17.368  0.00  0.00    +0.000 A 
ATOM     17  C   UNL     1      -2.850   9.675  17.204  0.00  0.00    +0.000 A 
ATOM     18  C   UNL     1      -1.551   9.592  17.689  0.00  0.00    +0.000 A 
ATOM     19  C   UNL     1      -0.905  10.703  18.293  0.00  0.00    +0.000 A 
BRANCH  19  20
ATOM     20  C   UNL     1       0.505  10.435  18.776  0.00  0.00    +0.000 C 
ATOM     21  F   UNL     1       1.497  11.193  18.243  0.00  0.00    +0.000 F 
ATOM     22  F   UNL     1       0.605  10.595  20.135  0.00  0.00    +0.000 F 
ATOM     23  F   UNL     1       0.889   9.149  18.544  0.00  0.00    +0.000 F 
ENDBRANCH  19  20
ENDBRANCH   5  14
BRANCH   3  24
ATOM     24  C   UNL     1       1.209  16.147  18.847  0.00  0.00    +0.000 C 
BRANCH  24  25
ATOM     25  N   UNL     1       2.614  15.847  19.214  0.00  0.00    +0.000 NA
ATOM     26  C   UNL     1       3.198  16.957  20.007  0.00  0.00    +0.000 C 
ATOM     27  C   UNL     1       4.688  16.824  20.364  0.00  0.00    +0.000 C 
ATOM     28  S   UNL     1       5.745  16.716  18.892  0.00  0.00    +0.000 S 
ATOM     29  C   UNL     1       4.871  15.328  18.122  0.00  0.00    +0.000 C 
ATOM     30  C   UNL     1       3.375  15.624  17.960  0.00  0.00    +0.000 C 
ENDBRANCH  24  25
ENDBRANCH   3  24
TORSDOF 5
ENDMDL
MODEL 8
REMARK VINA RESULT:      -6.8      2.229      4.959
REMARK  Name = 
REMARK  6 active torsions:
REMARK  status: ('A' for Active; 'I' for Inactive)
REMARK    1  A    between atoms: C_1  and  C_2
REMARK    2  A    between atoms: C_3  and  C_4
REMARK    3  A    between atoms: C_4  and  N_5
REMARK    4  A    between atoms: C_12  and  C_13
REMARK    5  A    between atoms: C_18  and  C_19
REMARK    6  A    between atoms: N_23  and  C_24
REMARK                            x       y       z     vdW  Elec       q    Type
REMARK                         _______ _______ _______ _____ _____    ______ ____
ROOT
ATOM      1  C   UNL     1       3.725   8.673  17.295  0.00  0.00    +0.000 C 
ATOM      2  C   UNL     1       2.911   7.805  18.201  0.00  0.00    +0.000 A 
ATOM      3  C   UNL     1       1.726   8.181  18.830  0.00  0.00    +0.000 A 
ATOM      4  C   UNL     1       1.281   7.054  19.544  0.00  0.00    +0.000 A 
ATOM      5  C   UNL     1       2.237   6.052  19.500  0.00  0.00    +0.000 A 
ATOM      6  N   UNL     1       3.253   6.496  18.609  0.00  0.00    +0.000 N 
ENDROOT
BRANCH   6   7
ATOM      7  C   UNL     1       4.400   5.734  18.152  0.00  0.00    +0.000 A 
ATOM      8  C   UNL     1       5.518   5.544  18.980  0.00  0.00    +0.000 A 
ATOM      9  C   UNL     1       6.688   4.949  18.488  0.00  0.00    +0.000 A 
ATOM     10  C   UNL     1       6.757   4.567  17.157  0.00  0.00    +0.000 A 
ATOM     11  F   UNL     1       7.901   4.073  16.668  0.00  0.00    +0.000 F 
ATOM     12  C   UNL     1       5.656   4.711  16.327  0.00  0.00    +0.000 A 
ATOM     13  C   UNL     1       4.467   5.254  16.834  0.00  0.00    +0.000 A 
ENDBRANCH   6   7
BRANCH   5  14
ATOM     14  C   UNL     1       2.108   4.717  20.147  0.00  0.00    +0.000 A 
ATOM     15  C   UNL     1       2.488   4.578  21.498  0.00  0.00    +0.000 A 
ATOM     16  C   UNL     1       2.304   3.386  22.202  0.00  0.00    +0.000 A 
ATOM     17  C   UNL     1       1.821   2.266  21.544  0.00  0.00    +0.000 A 
ATOM     18  C   UNL     1       1.530   2.346  20.189  0.00  0.00    +0.000 A 
ATOM     19  C   UNL     1       1.652   3.563  19.467  0.00  0.00    +0.000 A 
BRANCH  19  20
ATOM     20  C   UNL     1       1.305   3.469  17.997  0.00  0.00    +0.000 C 
ATOM     21  F   UNL     1       1.023   4.628  17.350  0.00  0.00    +0.000 F 
ATOM     22  F   UNL     1       2.321   2.884  17.282  0.00  0.00    +0.000 F 
ATOM     23  F   UNL     1       0.220   2.676  17.776  0.00  0.00    +0.000 F 
ENDBRANCH  19  20
ENDBRANCH   5  14
BRANCH   3  24
ATOM     24  C   UNL     1       0.992   9.491  18.730  0.00  0.00    +0.000 C 
BRANCH  24  25
ATOM     25  N   UNL     1       1.001  10.247  20.006  0.00  0.00    +0.000 NA
ATOM     26  C   UNL     1      -0.219   9.955  20.799  0.00  0.00    +0.000 C 
ATOM     27  C   UNL     1      -0.390  10.756  22.100  0.00  0.00    +0.000 C 
ATOM     28  S   UNL     1      -0.459  12.546  21.807  0.00  0.00    +0.000 S 
ATOM     29  C   UNL     1       1.091  12.653  20.874  0.00  0.00    +0.000 C 
ATOM     30  C   UNL     1       1.098  11.690  19.680  0.00  0.00    +0.000 C 
ENDBRANCH  24  25
ENDBRANCH   3  24
TORSDOF 5
ENDMDL
MODEL 9
REMARK VINA RESULT:      -6.7      5.846      9.144
REMARK  Name = 
REMARK  6 active torsions:
REMARK  status: ('A' for Active; 'I' for Inactive)
REMARK    1  A    between atoms: C_1  and  C_2
REMARK    2  A    between atoms: C_3  and  C_4
REMARK    3  A    between atoms: C_4  and  N_5
REMARK    4  A    between atoms: C_12  and  C_13
REMARK    5  A    between atoms: C_18  and  C_19
REMARK    6  A    between atoms: N_23  and  C_24
REMARK                            x       y       z     vdW  Elec       q    Type
REMARK                         _______ _______ _______ _____ _____    ______ ____
ROOT
ATOM      1  C   UNL     1      -0.416  15.292  18.564  0.00  0.00    +0.000 C 
ATOM      2  C   UNL     1       0.368  14.154  19.138  0.00  0.00    +0.000 A 
ATOM      3  C   UNL     1       1.744  14.152  19.356  0.00  0.00    +0.000 A 
ATOM      4  C   UNL     1       2.049  12.910  19.943  0.00  0.00    +0.000 A 
ATOM      5  C   UNL     1       0.930  12.094  19.945  0.00  0.00    +0.000 A 
ATOM      6  N   UNL     1      -0.155  12.889  19.484  0.00  0.00    +0.000 N 
ENDROOT
BRANCH   6   7
ATOM      7  C   UNL     1      -1.552  12.502  19.429  0.00  0.00    +0.000 A 
ATOM      8  C   UNL     1      -2.068  11.806  18.324  0.00  0.00    +0.000 A 
ATOM      9  C   UNL     1      -3.444  11.573  18.195  0.00  0.00    +0.000 A 
ATOM     10  C   UNL     1      -4.316  12.058  19.156  0.00  0.00    +0.000 A 
ATOM     11  F   UNL     1      -5.636  11.905  18.992  0.00  0.00    +0.000 F 
ATOM     12  C   UNL     1      -3.832  12.717  20.275  0.00  0.00    +0.000 A 
ATOM     13  C   UNL     1      -2.450  12.901  20.432  0.00  0.00    +0.000 A 
ENDBRANCH   6   7
BRANCH   5  14
ATOM     14  C   UNL     1       0.883  10.707  20.486  0.00  0.00    +0.000 A 
ATOM     15  C   UNL     1       0.697  10.525  21.872  0.00  0.00    +0.000 A 
ATOM     16  C   UNL     1       0.542   9.260  22.441  0.00  0.00    +0.000 A 
ATOM     17  C   UNL     1       0.666   8.130  21.648  0.00  0.00    +0.000 A 
ATOM     18  C   UNL     1       0.948   8.275  20.296  0.00  0.00    +0.000 A 
ATOM     19  C   UNL     1       1.049   9.553  19.685  0.00  0.00    +0.000 A 
BRANCH  19  20
ATOM     20  C   UNL     1       1.371   9.528  18.206  0.00  0.00    +0.000 C 
ATOM     21  F   UNL     1       1.865   8.370  17.698  0.00  0.00    +0.000 F 
ATOM     22  F   UNL     1       0.264   9.821  17.450  0.00  0.00    +0.000 F 
ATOM     23  F   UNL     1       2.289  10.475  17.866  0.00  0.00    +0.000 F 
ENDBRANCH  19  20
ENDBRANCH   5  14
BRANCH   3  24
ATOM     24  C   UNL     1       2.731  15.260  19.105  0.00  0.00    +0.000 C 
BRANCH  24  25
ATOM     25  N   UNL     1       4.137  14.810  19.240  0.00  0.00    +0.000 NA
ATOM     26  C   UNL     1       4.855  15.623  20.252  0.00  0.00    +0.000 C 
ATOM     27  C   UNL     1       6.356  15.332  20.415  0.00  0.00    +0.000 C 
ATOM     28  S   UNL     1       7.284  15.601  18.879  0.00  0.00    +0.000 S 
ATOM     29  C   UNL     1       6.261  14.526  17.839  0.00  0.00    +0.000 C 
ATOM     30  C   UNL     1       4.781  14.919  17.908  0.00  0.00    +0.000 C 
ENDBRANCH  24  25
ENDBRANCH   3  24
TORSDOF 5
ENDMDL
