MODEL 1
REMARK VINA RESULT:      -9.4      0.000      0.000
REMARK  Name = 
REMARK  8 active torsions:
REMARK  status: ('A' for Active; 'I' for Inactive)
REMARK    1  A    between atoms: C_5  and  C_6
REMARK    2  A    between atoms: C_6  and  C_7
REMARK    3  A    between atoms: C_6  and  C_26
REMARK    4  A    between atoms: C_7  and  C_8
REMARK    5  A    between atoms: C_8  and  C_9
REMARK    6  A    between atoms: C_9  and  N_10
REMARK    7  A    between atoms: N_10  and  C_11
REMARK    8  A    between atoms: C_11  and  C_12
REMARK                            x       y       z     vdW  Elec       q    Type
REMARK                         _______ _______ _______ _____ _____    ______ ____
ROOT
ATOM      1  C   UNL     1       1.505   9.793  18.174  0.00  0.00    +0.000 C 
ENDROOT
BRANCH   1   2
ATOM      2  N   UNL     1       0.600   9.741  19.340  0.00  0.00    +0.000 NA
ATOM      3  H   UNL     1       0.731   8.840  19.821  0.00  0.00    +0.000 HD
BRANCH   2   4
ATOM      4  C   UNL     1       0.884  10.844  20.293  0.00  0.00    +0.000 C 
BRANCH   4   5
ATOM      5  C   UNL     1      -0.198  12.010  20.566  0.00  0.00    +0.000 C 
ATOM      6  C   UNL     1      -0.353  12.120  22.065  0.00  0.00    +0.000 C 
ATOM      7  C   UNL     1      -0.800  13.570  22.262  0.00  0.00    +0.000 C 
ATOM      8  C   UNL     1      -2.228  13.508  22.166  0.00  0.00    +0.000 A 
ATOM      9  N   UNL     1      -3.121  14.167  22.895  0.00  0.00    +0.000 N 
ATOM     10  C   UNL     1      -3.906  13.038  23.143  0.00  0.00    +0.000 A 
ATOM     11  C   UNL     1      -4.244  12.581  24.434  0.00  0.00    +0.000 A 
ATOM     12  C   UNL     1      -5.564  12.403  24.733  0.00  0.00    +0.000 A 
ATOM     13  C   UNL     1      -6.391  12.771  23.710  0.00  0.00    +0.000 A 
ATOM     14  F   UNL     1      -7.690  12.977  24.003  0.00  0.00    +0.000 F 
ATOM     15  C   UNL     1      -5.866  12.947  22.351  0.00  0.00    +0.000 A 
ATOM     16  C   UNL     1      -4.483  12.820  21.828  0.00  0.00    +0.000 A 
ATOM     17  C   UNL     1      -2.988  12.690  21.313  0.00  0.00    +0.000 A 
ATOM     18  C   UNL     1      -1.881  12.206  20.040  0.00  0.00    +0.000 C 
ATOM     19  H   UNL     1      -3.559  14.969  22.454  0.00  0.00    +0.000 HD
ENDBRANCH   4   5
ENDBRANCH   2   4
ENDBRANCH   1   2
BRANCH   1  20
ATOM     20  C   UNL     1       1.816   8.406  17.570  0.00  0.00    +0.000 C 
BRANCH  20  21
ATOM     21  C   UNL     1       2.494   7.387  18.533  0.00  0.00    +0.000 C 
BRANCH  21  22
ATOM     22  C   UNL     1       2.619   5.886  18.033  0.00  0.00    +0.000 C 
BRANCH  22  27
ATOM     23  F   UNL     1       0.900   2.283  22.102  0.00  0.00    +0.000 F 
ATOM     24  C   UNL     1       1.338   3.101  21.135  0.00  0.00    +0.000 A 
ATOM     25  C   UNL     1       0.828   2.988  19.851  0.00  0.00    +0.000 A 
ATOM     26  C   UNL     1       1.298   3.832  18.836  0.00  0.00    +0.000 A 
ATOM     27  C   UNL     1       2.198   4.876  19.125  0.00  0.00    +0.000 A 
ATOM     28  C   UNL     1       2.714   4.935  20.433  0.00  0.00    +0.000 A 
ATOM     29  C   UNL     1       2.304   4.046  21.427  0.00  0.00    +0.000 A 
ENDBRANCH  22  27
BRANCH  22  30
ATOM     30  C   UNL     1       3.978   5.554  17.385  0.00  0.00    +0.000 A 
ATOM     31  C   UNL     1       5.006   6.517  17.342  0.00  0.00    +0.000 A 
ATOM     32  C   UNL     1       6.179   6.292  16.614  0.00  0.00    +0.000 A 
ATOM     33  C   UNL     1       6.373   5.072  15.985  0.00  0.00    +0.000 A 
ATOM     34  F   UNL     1       7.482   4.863  15.266  0.00  0.00    +0.000 F 
ATOM     35  C   UNL     1       5.423   4.069  16.083  0.00  0.00    +0.000 A 
ATOM     36  C   UNL     1       4.239   4.304  16.785  0.00  0.00    +0.000 A 
ENDBRANCH  22  30
ENDBRANCH  21  22
ENDBRANCH  20  21
ENDBRANCH   1  20
TORSDOF 8
ENDMDL
MODEL 2
REMARK VINA RESULT:      -9.3      8.088     11.956
REMARK  Name = 
REMARK  8 active torsions:
REMARK  status: ('A' for Active; 'I' for Inactive)
REMARK    1  A    between atoms: C_5  and  C_6
REMARK    2  A    between atoms: C_6  and  C_7
REMARK    3  A    between atoms: C_6  and  C_26
REMARK    4  A    between atoms: C_7  and  C_8
REMARK    5  A    between atoms: C_8  and  C_9
REMARK    6  A    between atoms: C_9  and  N_10
REMARK    7  A    between atoms: N_10  and  C_11
REMARK    8  A    between atoms: C_11  and  C_12
REMARK                            x       y       z     vdW  Elec       q    Type
REMARK                         _______ _______ _______ _____ _____    ______ ____
ROOT
ATOM      1  C   UNL     1       8.930  10.573  18.796  0.00  0.00    +0.000 C 
ENDROOT
BRANCH   1   2
ATOM      2  N   UNL     1       8.908   9.098  18.874  0.00  0.00    +0.000 NA
ATOM      3  H   UNL     1       8.586   8.821  19.812  0.00  0.00    +0.000 HD
BRANCH   2   4
ATOM      4  C   UNL     1       7.993   8.517  17.859  0.00  0.00    +0.000 C 
BRANCH   4   5
ATOM      5  C   UNL     1       7.690   6.933  17.820  0.00  0.00    +0.000 C 
ATOM      6  C   UNL     1       6.540   6.731  16.860  0.00  0.00    +0.000 C 
ATOM      7  C   UNL     1       6.746   5.298  16.366  0.00  0.00    +0.000 C 
ATOM      8  C   UNL     1       6.032   4.499  17.317  0.00  0.00    +0.000 A 
ATOM      9  N   UNL     1       5.284   3.427  17.079  0.00  0.00    +0.000 N 
ATOM     10  C   UNL     1       4.222   3.863  17.876  0.00  0.00    +0.000 A 
ATOM     11  C   UNL     1       2.898   4.011  17.413  0.00  0.00    +0.000 A 
ATOM     12  C   UNL     1       1.901   3.364  18.084  0.00  0.00    +0.000 A 
ATOM     13  C   UNL     1       2.369   2.590  19.107  0.00  0.00    +0.000 A 
ATOM     14  F   UNL     1       1.545   1.646  19.602  0.00  0.00    +0.000 F 
ATOM     15  C   UNL     1       3.730   2.780  19.625  0.00  0.00    +0.000 A 
ATOM     16  C   UNL     1       4.802   3.713  19.199  0.00  0.00    +0.000 A 
ATOM     17  C   UNL     1       5.927   4.714  18.702  0.00  0.00    +0.000 A 
ATOM     18  C   UNL     1       7.264   5.779  19.099  0.00  0.00    +0.000 C 
ATOM     19  H   UNL     1       5.704   2.528  17.289  0.00  0.00    +0.000 HD
ENDBRANCH   4   5
ENDBRANCH   2   4
ENDBRANCH   1   2
BRANCH   1  20
ATOM     20  C   UNL     1      10.353  11.167  18.708  0.00  0.00    +0.000 C 
BRANCH  20  21
ATOM     21  C   UNL     1      10.999  11.574  20.066  0.00  0.00    +0.000 C 
BRANCH  21  22
ATOM     22  C   UNL     1      10.836  13.086  20.523  0.00  0.00    +0.000 C 
BRANCH  22  27
ATOM     23  F   UNL     1       6.997  13.631  24.700  0.00  0.00    +0.000 F 
ATOM     24  C   UNL     1       7.867  13.515  23.688  0.00  0.00    +0.000 A 
ATOM     25  C   UNL     1       8.656  14.598  23.328  0.00  0.00    +0.000 A 
ATOM     26  C   UNL     1       9.554  14.482  22.258  0.00  0.00    +0.000 A 
ATOM     27  C   UNL     1       9.755  13.244  21.616  0.00  0.00    +0.000 A 
ATOM     28  C   UNL     1       8.913  12.181  21.991  0.00  0.00    +0.000 A 
ATOM     29  C   UNL     1       7.964  12.317  23.005  0.00  0.00    +0.000 A 
ENDBRANCH  22  27
BRANCH  22  30
ATOM     30  C   UNL     1      10.673  14.078  19.353  0.00  0.00    +0.000 A 
ATOM     31  C   UNL     1      11.804  14.623  18.713  0.00  0.00    +0.000 A 
ATOM     32  C   UNL     1      11.677  15.646  17.768  0.00  0.00    +0.000 A 
ATOM     33  C   UNL     1      10.416  16.083  17.394  0.00  0.00    +0.000 A 
ATOM     34  F   UNL     1      10.292  17.081  16.510  0.00  0.00    +0.000 F 
ATOM     35  C   UNL     1       9.280  15.506  17.937  0.00  0.00    +0.000 A 
ATOM     36  C   UNL     1       9.407  14.505  18.902  0.00  0.00    +0.000 A 
ENDBRANCH  22  30
ENDBRANCH  21  22
ENDBRANCH  20  21
ENDBRANCH   1  20
TORSDOF 8
ENDMDL
MODEL 3
REMARK VINA RESULT:      -9.2      4.352      6.586
REMARK  Name = 
REMARK  8 active torsions:
REMARK  status: ('A' for Active; 'I' for Inactive)
REMARK    1  A    between atoms: C_5  and  C_6
REMARK    2  A    between atoms: C_6  and  C_7
REMARK    3  A    between atoms: C_6  and  C_26
REMARK    4  A    between atoms: C_7  and  C_8
REMARK    5  A    between atoms: C_8  and  C_9
REMARK    6  A    between atoms: C_9  and  N_10
REMARK    7  A    between atoms: N_10  and  C_11
REMARK    8  A    between atoms: C_11  and  C_12
REMARK                            x       y       z     vdW  Elec       q    Type
REMARK                         _______ _______ _______ _____ _____    ______ ____
ROOT
ATOM      1  C   UNL     1       4.080   3.414  18.693  0.00  0.00    +0.000 C 
ENDROOT
BRANCH   1   2
ATOM      2  N   UNL     1       3.479   4.196  19.793  0.00  0.00    +0.000 NA
ATOM      3  H   UNL     1       3.899   3.891  20.683  0.00  0.00    +0.000 HD
BRANCH   2   4
ATOM      4  C   UNL     1       3.722   5.650  19.617  0.00  0.00    +0.000 C 
BRANCH   4   5
ATOM      5  C   UNL     1       2.509   6.665  19.295  0.00  0.00    +0.000 C 
ATOM      6  C   UNL     1       3.025   7.654  18.275  0.00  0.00    +0.000 C 
ATOM      7  C   UNL     1       1.754   8.099  17.550  0.00  0.00    +0.000 C 
ATOM      8  C   UNL     1       1.288   9.212  18.323  0.00  0.00    +0.000 A 
ATOM      9  N   UNL     1       0.761  10.347  17.878  0.00  0.00    +0.000 N 
ATOM     10  C   UNL     1       1.549  11.156  18.700  0.00  0.00    +0.000 A 
ATOM     11  C   UNL     1       2.386  12.187  18.223  0.00  0.00    +0.000 A 
ATOM     12  C   UNL     1       2.225  13.441  18.737  0.00  0.00    +0.000 A 
ATOM     13  C   UNL     1       1.193  13.519  19.627  0.00  0.00    +0.000 A 
ATOM     14  F   UNL     1       0.716  14.744  19.923  0.00  0.00    +0.000 F 
ATOM     15  C   UNL     1       0.623  12.302  20.218  0.00  0.00    +0.000 A 
ATOM     16  C   UNL     1       0.960  10.874  19.997  0.00  0.00    +0.000 A 
ATOM     17  C   UNL     1       1.340   9.359  19.719  0.00  0.00    +0.000 A 
ATOM     18  C   UNL     1       1.553   7.732  20.341  0.00  0.00    +0.000 C 
ATOM     19  H   UNL     1      -0.248  10.432  17.944  0.00  0.00    +0.000 HD
ENDBRANCH   4   5
ENDBRANCH   2   4
ENDBRANCH   1   2
BRANCH   1  20
ATOM     20  C   UNL     1       3.387   3.631  17.329  0.00  0.00    +0.000 C 
BRANCH  20  21
ATOM     21  C   UNL     1       4.107   4.611  16.355  0.00  0.00    +0.000 C 
BRANCH  21  22
ATOM     22  C   UNL     1       5.672   4.423  16.162  0.00  0.00    +0.000 C 
BRANCH  22  27
ATOM     23  F   UNL     1       8.809   8.149  19.123  0.00  0.00    +0.000 F 
ATOM     24  C   UNL     1       8.039   7.277  18.459  0.00  0.00    +0.000 A 
ATOM     25  C   UNL     1       7.174   7.730  17.473  0.00  0.00    +0.000 A 
ATOM     26  C   UNL     1       6.356   6.820  16.790  0.00  0.00    +0.000 A 
ATOM     27  C   UNL     1       6.483   5.434  17.005  0.00  0.00    +0.000 A 
ATOM     28  C   UNL     1       7.348   5.020  18.034  0.00  0.00    +0.000 A 
ATOM     29  C   UNL     1       8.107   5.932  18.769  0.00  0.00    +0.000 A 
ENDBRANCH  22  27
BRANCH  22  30
ATOM     30  C   UNL     1       6.116   4.363  14.686  0.00  0.00    +0.000 A 
ATOM     31  C   UNL     1       5.394   3.595  13.750  0.00  0.00    +0.000 A 
ATOM     32  C   UNL     1       5.876   3.395  12.453  0.00  0.00    +0.000 A 
ATOM     33  C   UNL     1       7.044   4.023  12.050  0.00  0.00    +0.000 A 
ATOM     34  F   UNL     1       7.521   3.813  10.817  0.00  0.00    +0.000 F 
ATOM     35  C   UNL     1       7.730   4.859  12.915  0.00  0.00    +0.000 A 
ATOM     36  C   UNL     1       7.265   5.035  14.220  0.00  0.00    +0.000 A 
ENDBRANCH  22  30
ENDBRANCH  21  22
ENDBRANCH  20  21
ENDBRANCH   1  20
TORSDOF 8
ENDMDL
MODEL 4
REMARK VINA RESULT:      -9.0      4.157     11.039
REMARK  Name = 
REMARK  8 active torsions:
REMARK  status: ('A' for Active; 'I' for Inactive)
REMARK    1  A    between atoms: C_5  and  C_6
REMARK    2  A    between atoms: C_6  and  C_7
REMARK    3  A    between atoms: C_6  and  C_26
REMARK    4  A    between atoms: C_7  and  C_8
REMARK    5  A    between atoms: C_8  and  C_9
REMARK    6  A    between atoms: C_9  and  N_10
REMARK    7  A    between atoms: N_10  and  C_11
REMARK    8  A    between atoms: C_11  and  C_12
REMARK                            x       y       z     vdW  Elec       q    Type
REMARK                         _______ _______ _______ _____ _____    ______ ____
ROOT
ATOM      1  C   UNL     1       1.218   8.334  21.734  0.00  0.00    +0.000 C 
ENDROOT
BRANCH   1   2
ATOM      2  N   UNL     1       1.835   7.545  20.648  0.00  0.00    +0.000 NA
ATOM      3  H   UNL     1       2.857   7.672  20.686  0.00  0.00    +0.000 HD
BRANCH   2   4
ATOM      4  C   UNL     1       1.522   6.100  20.785  0.00  0.00    +0.000 C 
BRANCH   4   5
ATOM      5  C   UNL     1       2.092   5.020  19.730  0.00  0.00    +0.000 C 
ATOM      6  C   UNL     1       3.581   4.922  19.967  0.00  0.00    +0.000 C 
ATOM      7  C   UNL     1       3.918   3.511  19.482  0.00  0.00    +0.000 C 
ATOM      8  C   UNL     1       4.198   3.682  18.087  0.00  0.00    +0.000 A 
ATOM      9  N   UNL     1       5.149   3.093  17.371  0.00  0.00    +0.000 N 
ATOM     10  C   UNL     1       5.570   4.278  16.763  0.00  0.00    +0.000 A 
ATOM     11  C   UNL     1       6.895   4.761  16.811  0.00  0.00    +0.000 A 
ATOM     12  C   UNL     1       7.525   5.039  15.633  0.00  0.00    +0.000 A 
ATOM     13  C   UNL     1       6.763   4.735  14.542  0.00  0.00    +0.000 A 
ATOM     14  F   UNL     1       7.389   4.628  13.354  0.00  0.00    +0.000 F 
ATOM     15  C   UNL     1       5.317   4.518  14.677  0.00  0.00    +0.000 A 
ATOM     16  C   UNL     1       4.448   4.539  15.880  0.00  0.00    +0.000 A 
ATOM     17  C   UNL     1       3.557   4.555  17.192  0.00  0.00    +0.000 A 
ATOM     18  C   UNL     1       2.029   4.952  17.958  0.00  0.00    +0.000 C 
ATOM     19  H   UNL     1       4.855   2.326  16.775  0.00  0.00    +0.000 HD
ENDBRANCH   4   5
ENDBRANCH   2   4
ENDBRANCH   1   2
BRANCH   1  20
ATOM     20  C   UNL     1       0.146   9.331  21.242  0.00  0.00    +0.000 C 
BRANCH  20  21
ATOM     21  C   UNL     1       0.352   9.889  19.803  0.00  0.00    +0.000 C 
BRANCH  21  22
ATOM     22  C   UNL     1      -0.398  11.238  19.433  0.00  0.00    +0.000 C 
BRANCH  22  27
ATOM     23  F   UNL     1      -4.559  10.508  15.607  0.00  0.00    +0.000 F 
ATOM     24  C   UNL     1      -3.600  10.646  16.531  0.00  0.00    +0.000 A 
ATOM     25  C   UNL     1      -2.413   9.940  16.406  0.00  0.00    +0.000 A 
ATOM     26  C   UNL     1      -1.415  10.071  17.381  0.00  0.00    +0.000 A 
ATOM     27  C   UNL     1      -1.550  11.002  18.430  0.00  0.00    +0.000 A 
ATOM     28  C   UNL     1      -2.782  11.674  18.538  0.00  0.00    +0.000 A 
ATOM     29  C   UNL     1      -3.807  11.486  17.609  0.00  0.00    +0.000 A 
ENDBRANCH  22  27
BRANCH  22  30
ATOM     30  C   UNL     1       0.547  12.385  19.019  0.00  0.00    +0.000 A 
ATOM     31  C   UNL     1       1.834  12.108  18.515  0.00  0.00    +0.000 A 
ATOM     32  C   UNL     1       2.760  13.132  18.295  0.00  0.00    +0.000 A 
ATOM     33  C   UNL     1       2.388  14.451  18.500  0.00  0.00    +0.000 A 
ATOM     34  F   UNL     1       3.280  15.431  18.315  0.00  0.00    +0.000 F 
ATOM     35  C   UNL     1       1.102  14.766  18.908  0.00  0.00    +0.000 A 
ATOM     36  C   UNL     1       0.185  13.741  19.157  0.00  0.00    +0.000 A 
ENDBRANCH  22  30
ENDBRANCH  21  22
ENDBRANCH  20  21
ENDBRANCH   1  20
TORSDOF 8
ENDMDL
MODEL 5
REMARK VINA RESULT:      -8.9      7.765     10.967
REMARK  Name = 
REMARK  8 active torsions:
REMARK  status: ('A' for Active; 'I' for Inactive)
REMARK    1  A    between atoms: C_5  and  C_6
REMARK    2  A    between atoms: C_6  and  C_7
REMARK    3  A    between atoms: C_6  and  C_26
REMARK    4  A    between atoms: C_7  and  C_8
REMARK    5  A    between atoms: C_8  and  C_9
REMARK    6  A    between atoms: C_9  and  N_10
REMARK    7  A    between atoms: N_10  and  C_11
REMARK    8  A    between atoms: C_11  and  C_12
REMARK                            x       y       z     vdW  Elec       q    Type
REMARK                         _______ _______ _______ _____ _____    ______ ____
ROOT
ATOM      1  C   UNL     1       7.474   7.639  17.845  0.00  0.00    +0.000 C 
ENDROOT
BRANCH   1   2
ATOM      2  N   UNL     1       8.233   8.885  17.617  0.00  0.00    +0.000 NA
ATOM      3  H   UNL     1       7.619   9.566  17.148  0.00  0.00    +0.000 HD
BRANCH   2   4
ATOM      4  C   UNL     1       8.710   9.468  18.897  0.00  0.00    +0.000 C 
BRANCH   4   5
ATOM      5  C   UNL     1       9.866  10.594  18.920  0.00  0.00    +0.000 C 
ATOM      6  C   UNL     1       9.397  11.683  19.858  0.00  0.00    +0.000 C 
ATOM      7  C   UNL     1      10.705  12.309  20.346  0.00  0.00    +0.000 C 
ATOM      8  C   UNL     1      10.982  13.328  19.378  0.00  0.00    +0.000 A 
ATOM      9  N   UNL     1      11.463  14.546  19.595  0.00  0.00    +0.000 N 
ATOM     10  C   UNL     1      10.518  15.178  18.783  0.00  0.00    +0.000 A 
ATOM     11  C   UNL     1       9.663  16.210  19.225  0.00  0.00    +0.000 A 
ATOM     12  C   UNL     1       9.657  17.386  18.532  0.00  0.00    +0.000 A 
ATOM     13  C   UNL     1      10.565  17.402  17.512  0.00  0.00    +0.000 A 
ATOM     14  F   UNL     1      10.900  18.601  16.996  0.00  0.00    +0.000 F 
ATOM     15  C   UNL     1      11.158  16.154  17.019  0.00  0.00    +0.000 A 
ATOM     16  C   UNL     1      10.968  14.753  17.470  0.00  0.00    +0.000 A 
ATOM     17  C   UNL     1      10.750  13.272  17.993  0.00  0.00    +0.000 A 
ATOM     18  C   UNL     1      10.599  11.562  17.626  0.00  0.00    +0.000 C 
ATOM     19  H   UNL     1      12.446  14.687  19.387  0.00  0.00    +0.000 HD
ENDBRANCH   4   5
ENDBRANCH   2   4
ENDBRANCH   1   2
BRANCH   1  20
ATOM     20  C   UNL     1       6.201   7.523  16.978  0.00  0.00    +0.000 C 
BRANCH  20  21
ATOM     21  C   UNL     1       5.063   6.636  17.565  0.00  0.00    +0.000 C 
BRANCH  21  22
ATOM     22  C   UNL     1       5.183   5.067  17.355  0.00  0.00    +0.000 C 
BRANCH  22  27
ATOM     23  F   UNL     1       6.980   3.959  12.061  0.00  0.00    +0.000 F 
ATOM     24  C   UNL     1       6.564   4.175  13.315  0.00  0.00    +0.000 A 
ATOM     25  C   UNL     1       7.475   4.556  14.289  0.00  0.00    +0.000 A 
ATOM     26  C   UNL     1       7.042   4.766  15.606  0.00  0.00    +0.000 A 
ATOM     27  C   UNL     1       5.673   4.711  15.933  0.00  0.00    +0.000 A 
ATOM     28  C   UNL     1       4.788   4.290  14.923  0.00  0.00    +0.000 A 
ATOM     29  C   UNL     1       5.228   4.006  13.630  0.00  0.00    +0.000 A 
ENDBRANCH  22  27
BRANCH  22  30
ATOM     30  C   UNL     1       3.927   4.281  17.783  0.00  0.00    +0.000 A 
ATOM     31  C   UNL     1       4.015   2.912  18.110  0.00  0.00    +0.000 A 
ATOM     32  C   UNL     1       2.866   2.148  18.336  0.00  0.00    +0.000 A 
ATOM     33  C   UNL     1       1.622   2.757  18.316  0.00  0.00    +0.000 A 
ATOM     34  F   UNL     1       0.518   2.022  18.506  0.00  0.00    +0.000 F 
ATOM     35  C   UNL     1       1.505   4.118  18.089  0.00  0.00    +0.000 A 
ATOM     36  C   UNL     1       2.650   4.876  17.833  0.00  0.00    +0.000 A 
ENDBRANCH  22  30
ENDBRANCH  21  22
ENDBRANCH  20  21
ENDBRANCH   1  20
TORSDOF 8
ENDMDL
MODEL 6
REMARK VINA RESULT:      -8.8      7.758     10.356
REMARK  Name = 
REMARK  8 active torsions:
REMARK  status: ('A' for Active; 'I' for Inactive)
REMARK    1  A    between atoms: C_5  and  C_6
REMARK    2  A    between atoms: C_6  and  C_7
REMARK    3  A    between atoms: C_6  and  C_26
REMARK    4  A    between atoms: C_7  and  C_8
REMARK    5  A    between atoms: C_8  and  C_9
REMARK    6  A    between atoms: C_9  and  N_10
REMARK    7  A    between atoms: N_10  and  C_11
REMARK    8  A    between atoms: C_11  and  C_12
REMARK                            x       y       z     vdW  Elec       q    Type
REMARK                         _______ _______ _______ _____ _____    ______ ____
ROOT
ATOM      1  C   UNL     1       8.247   7.028  18.710  0.00  0.00    +0.000 C 
ENDROOT
BRANCH   1   2
ATOM      2  N   UNL     1       7.977   7.860  17.519  0.00  0.00    +0.000 NA
ATOM      3  H   UNL     1       7.197   7.441  16.992  0.00  0.00    +0.000 HD
BRANCH   2   4
ATOM      4  C   UNL     1       7.610   9.247  17.902  0.00  0.00    +0.000 C 
BRANCH   4   5
ATOM      5  C   UNL     1       8.714  10.424  17.930  0.00  0.00    +0.000 C 
ATOM      6  C   UNL     1       9.232  10.503  19.347  0.00  0.00    +0.000 C 
ATOM      7  C   UNL     1      10.637  11.082  19.171  0.00  0.00    +0.000 C 
ATOM      8  C   UNL     1      10.435  12.500  19.215  0.00  0.00    +0.000 A 
ATOM      9  N   UNL     1      11.199  13.412  19.805  0.00  0.00    +0.000 N 
ATOM     10  C   UNL     1      10.128  14.064  20.420  0.00  0.00    +0.000 A 
ATOM     11  C   UNL     1      10.030  14.279  21.811  0.00  0.00    +0.000 A 
ATOM     12  C   UNL     1       9.838  15.555  22.256  0.00  0.00    +0.000 A 
ATOM     13  C   UNL     1       9.832  16.472  21.244  0.00  0.00    +0.000 A 
ATOM     14  F   UNL     1      10.008  17.767  21.575  0.00  0.00    +0.000 F 
ATOM     15  C   UNL     1       9.658  16.046  19.850  0.00  0.00    +0.000 A 
ATOM     16  C   UNL     1       9.500  14.689  19.271  0.00  0.00    +0.000 A 
ATOM     17  C   UNL     1       9.350  13.221  18.689  0.00  0.00    +0.000 A 
ATOM     18  C   UNL     1       8.616  12.146  17.512  0.00  0.00    +0.000 C 
ATOM     19  H   UNL     1      11.806  13.953  19.197  0.00  0.00    +0.000 HD
ENDBRANCH   4   5
ENDBRANCH   2   4
ENDBRANCH   1   2
BRANCH   1  20
ATOM     20  C   UNL     1       7.329   5.791  18.821  0.00  0.00    +0.000 C 
BRANCH  20  21
ATOM     21  C   UNL     1       6.074   5.796  17.899  0.00  0.00    +0.000 C 
BRANCH  21  22
ATOM     22  C   UNL     1       5.687   4.430  17.191  0.00  0.00    +0.000 C 
BRANCH  22  27
ATOM     23  F   UNL     1       7.154   4.248  11.686  0.00  0.00    +0.000 F 
ATOM     24  C   UNL     1       6.787   4.330  12.971  0.00  0.00    +0.000 A 
ATOM     25  C   UNL     1       5.620   3.712  13.397  0.00  0.00    +0.000 A 
ATOM     26  C   UNL     1       5.227   3.812  14.738  0.00  0.00    +0.000 A 
ATOM     27  C   UNL     1       6.060   4.431  15.690  0.00  0.00    +0.000 A 
ATOM     28  C   UNL     1       7.217   5.071  15.211  0.00  0.00    +0.000 A 
ATOM     29  C   UNL     1       7.571   5.039  13.862  0.00  0.00    +0.000 A 
ENDBRANCH  22  27
BRANCH  22  30
ATOM     30  C   UNL     1       4.238   3.975  17.460  0.00  0.00    +0.000 A 
ATOM     31  C   UNL     1       3.195   4.919  17.549  0.00  0.00    +0.000 A 
ATOM     32  C   UNL     1       1.911   4.542  17.957  0.00  0.00    +0.000 A 
ATOM     33  C   UNL     1       1.634   3.207  18.205  0.00  0.00    +0.000 A 
ATOM     34  F   UNL     1       0.413   2.846  18.620  0.00  0.00    +0.000 F 
ATOM     35  C   UNL     1       2.612   2.240  18.038  0.00  0.00    +0.000 A 
ATOM     36  C   UNL     1       3.901   2.620  17.660  0.00  0.00    +0.000 A 
ENDBRANCH  22  30
ENDBRANCH  21  22
ENDBRANCH  20  21
ENDBRANCH   1  20
TORSDOF 8
ENDMDL
MODEL 7
REMARK VINA RESULT:      -8.8      6.166      9.643
REMARK  Name = 
REMARK  8 active torsions:
REMARK  status: ('A' for Active; 'I' for Inactive)
REMARK    1  A    between atoms: C_5  and  C_6
REMARK    2  A    between atoms: C_6  and  C_7
REMARK    3  A    between atoms: C_6  and  C_26
REMARK    4  A    between atoms: C_7  and  C_8
REMARK    5  A    between atoms: C_8  and  C_9
REMARK    6  A    between atoms: C_9  and  N_10
REMARK    7  A    between atoms: N_10  and  C_11
REMARK    8  A    between atoms: C_11  and  C_12
REMARK                            x       y       z     vdW  Elec       q    Type
REMARK                         _______ _______ _______ _____ _____    ______ ____
ROOT
ATOM      1  C   UNL     1       7.177   6.675  17.295  0.00  0.00    +0.000 C 
ENDROOT
BRANCH   1   2
ATOM      2  N   UNL     1       7.782   7.988  16.992  0.00  0.00    +0.000 NA
ATOM      3  H   UNL     1       7.091   8.562  16.485  0.00  0.00    +0.000 HD
BRANCH   2   4
ATOM      4  C   UNL     1       8.182   8.698  18.233  0.00  0.00    +0.000 C 
BRANCH   4   5
ATOM      5  C   UNL     1       8.965  10.108  18.171  0.00  0.00    +0.000 C 
ATOM      6  C   UNL     1       9.536  10.351  19.549  0.00  0.00    +0.000 C 
ATOM      7  C   UNL     1      10.744  11.248  19.271  0.00  0.00    +0.000 C 
ATOM      8  C   UNL     1      10.205  12.575  19.312  0.00  0.00    +0.000 A 
ATOM      9  N   UNL     1      10.759  13.662  19.837  0.00  0.00    +0.000 N 
ATOM     10  C   UNL     1       9.602  14.051  20.516  0.00  0.00    +0.000 A 
ATOM     11  C   UNL     1       9.543  14.275  21.908  0.00  0.00    +0.000 A 
ATOM     12  C   UNL     1       9.074  15.479  22.350  0.00  0.00    +0.000 A 
ATOM     13  C   UNL     1       8.781  16.338  21.330  0.00  0.00    +0.000 A 
ATOM     14  F   UNL     1       8.656  17.645  21.633  0.00  0.00    +0.000 F 
ATOM     15  C   UNL     1       8.628  15.843  19.956  0.00  0.00    +0.000 A 
ATOM     16  C   UNL     1       8.769  14.473  19.405  0.00  0.00    +0.000 A 
ATOM     17  C   UNL     1       8.946  12.997  18.852  0.00  0.00    +0.000 A 
ATOM     18  C   UNL     1       8.423  11.742  17.741  0.00  0.00    +0.000 C 
ATOM     19  H   UNL     1      11.176  14.316  19.183  0.00  0.00    +0.000 HD
ENDBRANCH   4   5
ENDBRANCH   2   4
ENDBRANCH   1   2
BRANCH   1  20
ATOM     20  C   UNL     1       5.676   6.589  16.943  0.00  0.00    +0.000 C 
BRANCH  20  21
ATOM     21  C   UNL     1       4.708   7.300  17.935  0.00  0.00    +0.000 C 
BRANCH  21  22
ATOM     22  C   UNL     1       3.174   6.898  17.868  0.00  0.00    +0.000 C 
BRANCH  22  27
ATOM     23  F   UNL     1      -0.327  10.678  20.304  0.00  0.00    +0.000 F 
ATOM     24  C   UNL     1       0.531   9.815  19.747  0.00  0.00    +0.000 A 
ATOM     25  C   UNL     1       0.968   8.712  20.466  0.00  0.00    +0.000 A 
ATOM     26  C   UNL     1       1.879   7.817  19.888  0.00  0.00    +0.000 A 
ATOM     27  C   UNL     1       2.270   7.955  18.542  0.00  0.00    +0.000 A 
ATOM     28  C   UNL     1       1.829   9.103  17.859  0.00  0.00    +0.000 A 
ATOM     29  C   UNL     1       0.983  10.037  18.459  0.00  0.00    +0.000 A 
ENDBRANCH  22  27
BRANCH  22  30
ATOM     30  C   UNL     1       2.885   5.457  18.336  0.00  0.00    +0.000 A 
ATOM     31  C   UNL     1       1.810   4.727  17.788  0.00  0.00    +0.000 A 
ATOM     32  C   UNL     1       1.432   3.489  18.318  0.00  0.00    +0.000 A 
ATOM     33  C   UNL     1       2.170   2.929  19.348  0.00  0.00    +0.000 A 
ATOM     34  F   UNL     1       1.795   1.757  19.875  0.00  0.00    +0.000 F 
ATOM     35  C   UNL     1       3.287   3.577  19.850  0.00  0.00    +0.000 A 
ATOM     36  C   UNL     1       3.647   4.827  19.341  0.00  0.00    +0.000 A 
ENDBRANCH  22  30
ENDBRANCH  21  22
ENDBRANCH  20  21
ENDBRANCH   1  20
TORSDOF 8
ENDMDL
MODEL 8
REMARK VINA RESULT:      -8.7      0.710      4.092
REMARK  Name = 
REMARK  8 active torsions:
REMARK  status: ('A' for Active; 'I' for Inactive)
REMARK    1  A    between atoms: C_5  and  C_6
REMARK    2  A    between atoms: C_6  and  C_7
REMARK    3  A    between atoms: C_6  and  C_26
REMARK    4  A    between atoms: C_7  and  C_8
REMARK    5  A    between atoms: C_8  and  C_9
REMARK    6  A    between atoms: C_9  and  N_10
REMARK    7  A    between atoms: N_10  and  C_11
REMARK    8  A    between atoms: C_11  and  C_12
REMARK                            x       y       z     vdW  Elec       q    Type
REMARK                         _______ _______ _______ _____ _____    ______ ____
ROOT
ATOM      1  C   UNL     1       1.377   9.626  17.990  0.00  0.00    +0.000 C 
ENDROOT
BRANCH   1   2
ATOM      2  N   UNL     1       0.275  10.206  18.784  0.00  0.00    +0.000 NA
ATOM      3  H   UNL     1      -0.101   9.479  19.410  0.00  0.00    +0.000 HD
BRANCH   2   4
ATOM      4  C   UNL     1       0.745  11.352  19.604  0.00  0.00    +0.000 C 
BRANCH   4   5
ATOM      5  C   UNL     1      -0.286  12.470  20.143  0.00  0.00    +0.000 C 
ATOM      6  C   UNL     1      -0.304  12.358  21.650  0.00  0.00    +0.000 C 
ATOM      7  C   UNL     1      -0.704  13.765  22.098  0.00  0.00    +0.000 C 
ATOM      8  C   UNL     1      -2.136  13.724  22.125  0.00  0.00    +0.000 A 
ATOM      9  N   UNL     1      -2.948  14.273  23.022  0.00  0.00    +0.000 N 
ATOM     10  C   UNL     1      -3.728  13.124  23.173  0.00  0.00    +0.000 A 
ATOM     11  C   UNL     1      -3.956  12.482  24.408  0.00  0.00    +0.000 A 
ATOM     12  C   UNL     1      -5.247  12.268  24.797  0.00  0.00    +0.000 A 
ATOM     13  C   UNL     1      -6.156  12.787  23.920  0.00  0.00    +0.000 A 
ATOM     14  F   UNL     1      -7.419  12.954  24.358  0.00  0.00    +0.000 F 
ATOM     15  C   UNL     1      -5.752  13.160  22.559  0.00  0.00    +0.000 A 
ATOM     16  C   UNL     1      -4.424  13.104  21.899  0.00  0.00    +0.000 A 
ATOM     17  C   UNL     1      -2.985  13.045  21.235  0.00  0.00    +0.000 A 
ATOM     18  C   UNL     1      -2.006  12.750  19.808  0.00  0.00    +0.000 C 
ATOM     19  H   UNL     1      -3.409  15.133  22.746  0.00  0.00    +0.000 HD
ENDBRANCH   4   5
ENDBRANCH   2   4
ENDBRANCH   1   2
BRANCH   1  20
ATOM     20  C   UNL     1       2.043   8.402  18.657  0.00  0.00    +0.000 C 
BRANCH  20  21
ATOM     21  C   UNL     1       2.466   7.255  17.692  0.00  0.00    +0.000 C 
BRANCH  21  22
ATOM     22  C   UNL     1       3.463   6.158  18.260  0.00  0.00    +0.000 C 
BRANCH  22  27
ATOM     23  F   UNL     1       6.593   3.936  14.047  0.00  0.00    +0.000 F 
ATOM     24  C   UNL     1       5.896   4.465  15.061  0.00  0.00    +0.000 A 
ATOM     25  C   UNL     1       5.621   5.825  15.076  0.00  0.00    +0.000 A 
ATOM     26  C   UNL     1       4.907   6.381  16.145  0.00  0.00    +0.000 A 
ATOM     27  C   UNL     1       4.358   5.561  17.150  0.00  0.00    +0.000 A 
ATOM     28  C   UNL     1       4.686   4.193  17.114  0.00  0.00    +0.000 A 
ATOM     29  C   UNL     1       5.463   3.650  16.090  0.00  0.00    +0.000 A 
ENDBRANCH  22  27
BRANCH  22  30
ATOM     30  C   UNL     1       2.781   5.089  19.137  0.00  0.00    +0.000 A 
ATOM     31  C   UNL     1       1.658   4.381  18.662  0.00  0.00    +0.000 A 
ATOM     32  C   UNL     1       0.929   3.533  19.501  0.00  0.00    +0.000 A 
ATOM     33  C   UNL     1       1.357   3.321  20.802  0.00  0.00    +0.000 A 
ATOM     34  F   UNL     1       0.646   2.530  21.616  0.00  0.00    +0.000 F 
ATOM     35  C   UNL     1       2.508   3.929  21.275  0.00  0.00    +0.000 A 
ATOM     36  C   UNL     1       3.220   4.800  20.446  0.00  0.00    +0.000 A 
ENDBRANCH  22  30
ENDBRANCH  21  22
ENDBRANCH  20  21
ENDBRANCH   1  20
TORSDOF 8
ENDMDL
MODEL 9
REMARK VINA RESULT:      -8.7      0.887      1.065
REMARK  Name = 
REMARK  8 active torsions:
REMARK  status: ('A' for Active; 'I' for Inactive)
REMARK    1  A    between atoms: C_5  and  C_6
REMARK    2  A    between atoms: C_6  and  C_7
REMARK    3  A    between atoms: C_6  and  C_26
REMARK    4  A    between atoms: C_7  and  C_8
REMARK    5  A    between atoms: C_8  and  C_9
REMARK    6  A    between atoms: C_9  and  N_10
REMARK    7  A    between atoms: N_10  and  C_11
REMARK    8  A    between atoms: C_11  and  C_12
REMARK                            x       y       z     vdW  Elec       q    Type
REMARK                         _______ _______ _______ _____ _____    ______ ____
ROOT
ATOM      1  C   UNL     1       1.072   9.536  18.031  0.00  0.00    +0.000 C 
ENDROOT
BRANCH   1   2
ATOM      2  N   UNL     1       1.442  10.192  19.301  0.00  0.00    +0.000 NA
ATOM      3  H   UNL     1       1.750  11.154  19.100  0.00  0.00    +0.000 HD
BRANCH   2   4
ATOM      4  C   UNL     1       0.292  10.239  20.240  0.00  0.00    +0.000 C 
BRANCH   4   5
ATOM      5  C   UNL     1      -0.380  11.644  20.662  0.00  0.00    +0.000 C 
ATOM      6  C   UNL     1      -1.163  11.390  21.931  0.00  0.00    +0.000 C 
ATOM      7  C   UNL     1      -1.183  12.762  22.607  0.00  0.00    +0.000 C 
ATOM      8  C   UNL     1      -2.351  13.394  22.069  0.00  0.00    +0.000 A 
ATOM      9  N   UNL     1      -3.230  14.158  22.709  0.00  0.00    +0.000 N 
ATOM     10  C   UNL     1      -4.343  13.499  22.181  0.00  0.00    +0.000 A 
ATOM     11  C   UNL     1      -5.356  12.909  22.967  0.00  0.00    +0.000 A 
ATOM     12  C   UNL     1      -6.649  13.284  22.743  0.00  0.00    +0.000 A 
ATOM     13  C   UNL     1      -6.760  14.260  21.795  0.00  0.00    +0.000 A 
ATOM     14  F   UNL     1      -7.915  14.951  21.744  0.00  0.00    +0.000 F 
ATOM     15  C   UNL     1      -5.645  14.546  20.884  0.00  0.00    +0.000 A 
ATOM     16  C   UNL     1      -4.290  13.948  20.801  0.00  0.00    +0.000 A 
ATOM     17  C   UNL     1      -2.846  13.294  20.757  0.00  0.00    +0.000 A 
ATOM     18  C   UNL     1      -1.486  12.732  19.800  0.00  0.00    +0.000 C 
ATOM     19  H   UNL     1      -3.149  15.158  22.562  0.00  0.00    +0.000 HD
ENDBRANCH   4   5
ENDBRANCH   2   4
ENDBRANCH   1   2
BRANCH   1  20
ATOM     20  C   UNL     1       2.109   8.501  17.543  0.00  0.00    +0.000 C 
BRANCH  20  21
ATOM     21  C   UNL     1       2.513   7.410  18.580  0.00  0.00    +0.000 C 
BRANCH  21  22
ATOM     22  C   UNL     1       2.613   5.914  18.058  0.00  0.00    +0.000 C 
BRANCH  22  27
ATOM     23  F   UNL     1       0.910   2.269  22.096  0.00  0.00    +0.000 F 
ATOM     24  C   UNL     1       1.346   3.099  21.139  0.00  0.00    +0.000 A 
ATOM     25  C   UNL     1       0.900   2.944  19.834  0.00  0.00    +0.000 A 
ATOM     26  C   UNL     1       1.369   3.801  18.830  0.00  0.00    +0.000 A 
ATOM     27  C   UNL     1       2.198   4.895  19.145  0.00  0.00    +0.000 A 
ATOM     28  C   UNL     1       2.652   4.997  20.473  0.00  0.00    +0.000 A 
ATOM     29  C   UNL     1       2.247   4.097  21.460  0.00  0.00    +0.000 A 
ENDBRANCH  22  27
BRANCH  22  30
ATOM     30  C   UNL     1       3.958   5.576  17.384  0.00  0.00    +0.000 A 
ATOM     31  C   UNL     1       4.998   6.525  17.343  0.00  0.00    +0.000 A 
ATOM     32  C   UNL     1       6.157   6.297  16.594  0.00  0.00    +0.000 A 
ATOM     33  C   UNL     1       6.324   5.087  15.940  0.00  0.00    +0.000 A 
ATOM     34  F   UNL     1       7.420   4.875  15.201  0.00  0.00    +0.000 F 
ATOM     35  C   UNL     1       5.362   4.095  16.034  0.00  0.00    +0.000 A 
ATOM     36  C   UNL     1       4.192   4.334  16.758  0.00  0.00    +0.000 A 
ENDBRANCH  22  30
ENDBRANCH  21  22
ENDBRANCH  20  21
ENDBRANCH   1  20
TORSDOF 8
ENDMDL
