MODEL 1
REMARK VINA RESULT:      -9.5      0.000      0.000
REMARK  Name = 
REMARK  8 active torsions:
REMARK  status: ('A' for Active; 'I' for Inactive)
REMARK    1  A    between atoms: C_1  and  N_2
REMARK    2  A    between atoms: N_2  and  C_3
REMARK    3  A    between atoms: C_3  and  C_4
REMARK    4  A    between atoms: C_4  and  C_5
REMARK    5  A    between atoms: C_11  and  C_13
REMARK    6  A    between atoms: C_13  and  C_14
REMARK    7  A    between atoms: C_14  and  C_15
REMARK    8  A    between atoms: C_20  and  C_22
REMARK                            x       y       z     vdW  Elec       q    Type
REMARK                         _______ _______ _______ _____ _____    ______ ____
ROOT
ATOM      1  C   UNL     1       3.080   2.163  19.312  0.00  0.00    +0.000 C 
ATOM      2  C   UNL     1       2.829   2.083  17.794  0.00  0.00    +0.000 C 
ATOM      3  C   UNL     1       2.594   3.459  17.181  0.00  0.00    +0.000 C 
ATOM      4  C   UNL     1       1.527   4.239  17.939  0.00  0.00    +0.000 C 
ATOM      5  N   UNL     1       1.782   4.269  19.386  0.00  0.00    +0.000 N 
ATOM      6  C   UNL     1       2.036   5.378  20.194  0.00  0.00    +0.000 C 
ATOM      7  O   UNL     1       2.326   5.280  21.392  0.00  0.00    +0.000 OA
ATOM      8  C   UNL     1       1.927   2.939  19.978  0.00  0.00    +0.000 C 
ENDROOT
BRANCH   6   9
ATOM      9  C   UNL     1       2.017   6.770  19.643  0.00  0.00    +0.000 A 
ATOM     10  C   UNL     1       2.629   7.010  18.398  0.00  0.00    +0.000 A 
ATOM     11  C   UNL     1       2.600   8.288  17.826  0.00  0.00    +0.000 A 
ATOM     12  C   UNL     1       1.935   9.320  18.481  0.00  0.00    +0.000 A 
ATOM     13  C   UNL     1       1.328   9.083  19.717  0.00  0.00    +0.000 A 
ATOM     14  C   UNL     1       1.446   7.841  20.332  0.00  0.00    +0.000 A 
ATOM     15  O   UNL     1       0.585  10.020  20.391  0.00  0.00    +0.000 OA
ATOM     16  C   UNL     1       0.256  11.126  19.540  0.00  0.00    +0.000 C 
ATOM     17  C   UNL     1       1.491  11.572  18.778  0.00  0.00    +0.000 C 
ATOM     18  O   UNL     1       1.916  10.547  17.869  0.00  0.00    +0.000 OA
ENDBRANCH   6   9
BRANCH   1  19
ATOM     19  C   UNL     1       4.467   2.779  19.594  0.00  0.00    +0.000 C 
BRANCH  19  20
ATOM     20  C   UNL     1       5.080   3.509  18.396  0.00  0.00    +0.000 C 
BRANCH  20  23
ATOM     21  C   UNL     1       7.552   6.390  18.481  0.00  0.00    +0.000 C 
ATOM     22  N   UNL     1       6.960   5.116  18.094  0.00  0.00    +0.000 N 
ATOM     23  C   UNL     1       5.826   4.758  18.831  0.00  0.00    +0.000 C 
ATOM     24  O   UNL     1       5.452   5.421  19.805  0.00  0.00    +0.000 OA
BRANCH  22  25
ATOM     25  C   UNL     1       7.333   4.490  16.809  0.00  0.00    +0.000 C 
BRANCH  25  26
ATOM     26  C   UNL     1       6.173   4.257  15.837  0.00  0.00    +0.000 C 
BRANCH  26  27
ATOM     27  C   UNL     1       6.595   4.399  14.398  0.00  0.00    +0.000 A 
ATOM     28  C   UNL     1       5.994   3.636  13.401  0.00  0.00    +0.000 A 
ATOM     29  C   UNL     1       6.460   3.756  12.094  0.00  0.00    +0.000 A 
ATOM     30  C   UNL     1       7.503   4.633  11.819  0.00  0.00    +0.000 A 
ATOM     31  C   UNL     1       8.033   5.366  12.866  0.00  0.00    +0.000 A 
ATOM     32  N   UNL     1       7.599   5.272  14.141  0.00  0.00    +0.000 NA
ENDBRANCH  26  27
ENDBRANCH  25  26
ENDBRANCH  22  25
ENDBRANCH  20  23
ENDBRANCH  19  20
ENDBRANCH   1  19
TORSDOF 7
ENDMDL
MODEL 2
REMARK VINA RESULT:      -8.9      2.782      4.671
REMARK  Name = 
REMARK  8 active torsions:
REMARK  status: ('A' for Active; 'I' for Inactive)
REMARK    1  A    between atoms: C_1  and  N_2
REMARK    2  A    between atoms: N_2  and  C_3
REMARK    3  A    between atoms: C_3  and  C_4
REMARK    4  A    between atoms: C_4  and  C_5
REMARK    5  A    between atoms: C_11  and  C_13
REMARK    6  A    between atoms: C_13  and  C_14
REMARK    7  A    between atoms: C_14  and  C_15
REMARK    8  A    between atoms: C_20  and  C_22
REMARK                            x       y       z     vdW  Elec       q    Type
REMARK                         _______ _______ _______ _____ _____    ______ ____
ROOT
ATOM      1  C   UNL     1       2.554   5.888  19.156  0.00  0.00    +0.000 C 
ATOM      2  C   UNL     1       2.069   5.618  20.594  0.00  0.00    +0.000 C 
ATOM      3  C   UNL     1       1.004   6.617  21.034  0.00  0.00    +0.000 C 
ATOM      4  C   UNL     1       1.448   8.055  20.796  0.00  0.00    +0.000 C 
ATOM      5  N   UNL     1       1.931   8.268  19.425  0.00  0.00    +0.000 N 
ATOM      6  C   UNL     1       1.401   9.108  18.444  0.00  0.00    +0.000 C 
ATOM      7  O   UNL     1       1.838   9.144  17.288  0.00  0.00    +0.000 OA
ATOM      8  C   UNL     1       3.008   7.355  19.040  0.00  0.00    +0.000 C 
ENDROOT
BRANCH   6   9
ATOM      9  C   UNL     1       0.227   9.994  18.722  0.00  0.00    +0.000 A 
ATOM     10  C   UNL     1      -0.868   9.960  17.838  0.00  0.00    +0.000 A 
ATOM     11  C   UNL     1      -2.003  10.743  18.082  0.00  0.00    +0.000 A 
ATOM     12  C   UNL     1      -2.059  11.537  19.223  0.00  0.00    +0.000 A 
ATOM     13  C   UNL     1      -0.973  11.572  20.101  0.00  0.00    +0.000 A 
ATOM     14  C   UNL     1       0.194  10.875  19.804  0.00  0.00    +0.000 A 
ATOM     15  O   UNL     1      -0.976  12.263  21.287  0.00  0.00    +0.000 OA
ATOM     16  C   UNL     1      -2.306  12.663  21.646  0.00  0.00    +0.000 C 
ATOM     17  C   UNL     1      -3.004  13.264  20.440  0.00  0.00    +0.000 C 
ATOM     18  O   UNL     1      -3.202  12.267  19.428  0.00  0.00    +0.000 OA
ENDBRANCH   6   9
BRANCH   1  19
ATOM     19  C   UNL     1       1.453   5.512  18.141  0.00  0.00    +0.000 C 
BRANCH  19  20
ATOM     20  C   UNL     1       1.867   4.424  17.147  0.00  0.00    +0.000 C 
BRANCH  20  23
ATOM     21  C   UNL     1       3.461   1.343  18.693  0.00  0.00    +0.000 C 
ATOM     22  N   UNL     1       3.342   2.567  17.910  0.00  0.00    +0.000 N 
ATOM     23  C   UNL     1       2.044   3.082  17.836  0.00  0.00    +0.000 C 
ATOM     24  O   UNL     1       1.076   2.466  18.297  0.00  0.00    +0.000 OA
BRANCH  22  25
ATOM     25  C   UNL     1       4.552   3.342  17.566  0.00  0.00    +0.000 C 
BRANCH  25  26
ATOM     26  C   UNL     1       5.368   3.840  18.763  0.00  0.00    +0.000 C 
BRANCH  26  27
ATOM     27  C   UNL     1       6.163   5.077  18.437  0.00  0.00    +0.000 A 
ATOM     28  C   UNL     1       5.800   5.898  17.374  0.00  0.00    +0.000 A 
ATOM     29  C   UNL     1       6.601   6.996  17.072  0.00  0.00    +0.000 A 
ATOM     30  C   UNL     1       7.732   7.248  17.839  0.00  0.00    +0.000 A 
ATOM     31  C   UNL     1       8.012   6.392  18.890  0.00  0.00    +0.000 A 
ATOM     32  N   UNL     1       7.252   5.321  19.207  0.00  0.00    +0.000 NA
ENDBRANCH  26  27
ENDBRANCH  25  26
ENDBRANCH  22  25
ENDBRANCH  20  23
ENDBRANCH  19  20
ENDBRANCH   1  19
TORSDOF 7
ENDMDL
MODEL 3
REMARK VINA RESULT:      -8.9      2.715      4.775
REMARK  Name = 
REMARK  8 active torsions:
REMARK  status: ('A' for Active; 'I' for Inactive)
REMARK    1  A    between atoms: C_1  and  N_2
REMARK    2  A    between atoms: N_2  and  C_3
REMARK    3  A    between atoms: C_3  and  C_4
REMARK    4  A    between atoms: C_4  and  C_5
REMARK    5  A    between atoms: C_11  and  C_13
REMARK    6  A    between atoms: C_13  and  C_14
REMARK    7  A    between atoms: C_14  and  C_15
REMARK    8  A    between atoms: C_20  and  C_22
REMARK                            x       y       z     vdW  Elec       q    Type
REMARK                         _______ _______ _______ _____ _____    ______ ____
ROOT
ATOM      1  C   UNL     1       2.602   5.869  19.111  0.00  0.00    +0.000 C 
ATOM      2  C   UNL     1       2.143   5.598  20.557  0.00  0.00    +0.000 C 
ATOM      3  C   UNL     1       1.073   6.586  21.010  0.00  0.00    +0.000 C 
ATOM      4  C   UNL     1       1.497   8.028  20.761  0.00  0.00    +0.000 C 
ATOM      5  N   UNL     1       1.956   8.243  19.382  0.00  0.00    +0.000 N 
ATOM      6  C   UNL     1       1.402   9.073  18.407  0.00  0.00    +0.000 C 
ATOM      7  O   UNL     1       1.821   9.111  17.244  0.00  0.00    +0.000 OA
ATOM      8  C   UNL     1       3.038   7.341  18.983  0.00  0.00    +0.000 C 
ENDROOT
BRANCH   6   9
ATOM      9  C   UNL     1       0.223   9.947  18.701  0.00  0.00    +0.000 A 
ATOM     10  C   UNL     1       0.390  11.029  19.586  0.00  0.00    +0.000 A 
ATOM     11  C   UNL     1      -0.676  11.896  19.858  0.00  0.00    +0.000 A 
ATOM     12  C   UNL     1      -1.900  11.702  19.226  0.00  0.00    +0.000 A 
ATOM     13  C   UNL     1      -2.067  10.628  18.348  0.00  0.00    +0.000 A 
ATOM     14  C   UNL     1      -1.041   9.709  18.158  0.00  0.00    +0.000 A 
ATOM     15  O   UNL     1      -3.212  10.411  17.622  0.00  0.00    +0.000 OA
ATOM     16  C   UNL     1      -4.059  11.567  17.638  0.00  0.00    +0.000 C 
ATOM     17  C   UNL     1      -4.174  12.100  19.055  0.00  0.00    +0.000 C 
ATOM     18  O   UNL     1      -2.905  12.591  19.509  0.00  0.00    +0.000 OA
ENDBRANCH   6   9
BRANCH   1  19
ATOM     19  C   UNL     1       1.491   5.478  18.114  0.00  0.00    +0.000 C 
BRANCH  19  20
ATOM     20  C   UNL     1       1.873   4.333  17.172  0.00  0.00    +0.000 C 
BRANCH  20  23
ATOM     21  C   UNL     1       3.643   1.423  18.851  0.00  0.00    +0.000 C 
ATOM     22  N   UNL     1       3.448   2.587  17.997  0.00  0.00    +0.000 N 
ATOM     23  C   UNL     1       2.128   3.046  17.938  0.00  0.00    +0.000 C 
ATOM     24  O   UNL     1       1.203   2.425  18.474  0.00  0.00    +0.000 OA
BRANCH  22  25
ATOM     25  C   UNL     1       4.613   3.384  17.559  0.00  0.00    +0.000 C 
BRANCH  25  26
ATOM     26  C   UNL     1       5.500   3.916  18.689  0.00  0.00    +0.000 C 
BRANCH  26  27
ATOM     27  C   UNL     1       6.258   5.154  18.287  0.00  0.00    +0.000 A 
ATOM     28  C   UNL     1       7.369   5.575  19.010  0.00  0.00    +0.000 A 
ATOM     29  C   UNL     1       8.000   6.759  18.638  0.00  0.00    +0.000 A 
ATOM     30  C   UNL     1       7.512   7.483  17.558  0.00  0.00    +0.000 A 
ATOM     31  C   UNL     1       6.412   6.985  16.882  0.00  0.00    +0.000 A 
ATOM     32  N   UNL     1       5.782   5.839  17.218  0.00  0.00    +0.000 NA
ENDBRANCH  26  27
ENDBRANCH  25  26
ENDBRANCH  22  25
ENDBRANCH  20  23
ENDBRANCH  19  20
ENDBRANCH   1  19
TORSDOF 7
ENDMDL
MODEL 4
REMARK VINA RESULT:      -8.8      3.384      6.312
REMARK  Name = 
REMARK  8 active torsions:
REMARK  status: ('A' for Active; 'I' for Inactive)
REMARK    1  A    between atoms: C_1  and  N_2
REMARK    2  A    between atoms: N_2  and  C_3
REMARK    3  A    between atoms: C_3  and  C_4
REMARK    4  A    between atoms: C_4  and  C_5
REMARK    5  A    between atoms: C_11  and  C_13
REMARK    6  A    between atoms: C_13  and  C_14
REMARK    7  A    between atoms: C_14  and  C_15
REMARK    8  A    between atoms: C_20  and  C_22
REMARK                            x       y       z     vdW  Elec       q    Type
REMARK                         _______ _______ _______ _____ _____    ______ ____
ROOT
ATOM      1  C   UNL     1       1.519   9.089  21.749  0.00  0.00    +0.000 C 
ATOM      2  C   UNL     1       0.640   9.275  23.001  0.00  0.00    +0.000 C 
ATOM      3  C   UNL     1      -0.783   9.689  22.642  0.00  0.00    +0.000 C 
ATOM      4  C   UNL     1      -0.802  10.884  21.697  0.00  0.00    +0.000 C 
ATOM      5  N   UNL     1       0.070  10.684  20.531  0.00  0.00    +0.000 N 
ATOM      6  C   UNL     1      -0.291  10.622  19.184  0.00  0.00    +0.000 C 
ATOM      7  O   UNL     1       0.518  10.360  18.286  0.00  0.00    +0.000 OA
ATOM      8  C   UNL     1       1.453  10.365  20.887  0.00  0.00    +0.000 C 
ENDROOT
BRANCH   6   9
ATOM      9  C   UNL     1      -1.707  10.827  18.743  0.00  0.00    +0.000 A 
ATOM     10  C   UNL     1      -2.254   9.936  17.800  0.00  0.00    +0.000 A 
ATOM     11  C   UNL     1      -3.587  10.067  17.389  0.00  0.00    +0.000 A 
ATOM     12  C   UNL     1      -4.383  11.066  17.940  0.00  0.00    +0.000 A 
ATOM     13  C   UNL     1      -3.841  11.950  18.876  0.00  0.00    +0.000 A 
ATOM     14  C   UNL     1      -2.491  11.885  19.205  0.00  0.00    +0.000 A 
ATOM     15  O   UNL     1      -4.573  12.911  19.527  0.00  0.00    +0.000 OA
ATOM     16  C   UNL     1      -5.980  12.682  19.368  0.00  0.00    +0.000 C 
ATOM     17  C   UNL     1      -6.288  12.379  17.912  0.00  0.00    +0.000 C 
ATOM     18  O   UNL     1      -5.686  11.137  17.522  0.00  0.00    +0.000 OA
ENDBRANCH   6   9
BRANCH   1  19
ATOM     19  C   UNL     1       1.097   7.818  20.982  0.00  0.00    +0.000 C 
BRANCH  19  20
ATOM     20  C   UNL     1       2.218   6.789  20.814  0.00  0.00    +0.000 C 
BRANCH  20  23
ATOM     21  C   UNL     1       1.651   4.160  18.132  0.00  0.00    +0.000 C 
ATOM     22  N   UNL     1       2.039   5.431  18.733  0.00  0.00    +0.000 N 
ATOM     23  C   UNL     1       1.727   5.547  20.091  0.00  0.00    +0.000 C 
ATOM     24  O   UNL     1       1.067   4.683  20.680  0.00  0.00    +0.000 OA
BRANCH  22  25
ATOM     25  C   UNL     1       2.990   6.318  18.032  0.00  0.00    +0.000 C 
BRANCH  25  26
ATOM     26  C   UNL     1       4.116   5.601  17.280  0.00  0.00    +0.000 C 
BRANCH  26  27
ATOM     27  C   UNL     1       5.480   5.992  17.785  0.00  0.00    +0.000 A 
ATOM     28  C   UNL     1       6.229   6.966  17.131  0.00  0.00    +0.000 A 
ATOM     29  C   UNL     1       7.510   7.250  17.598  0.00  0.00    +0.000 A 
ATOM     30  C   UNL     1       8.003   6.563  18.701  0.00  0.00    +0.000 A 
ATOM     31  C   UNL     1       7.186   5.623  19.303  0.00  0.00    +0.000 A 
ATOM     32  N   UNL     1       5.940   5.329  18.874  0.00  0.00    +0.000 NA
ENDBRANCH  26  27
ENDBRANCH  25  26
ENDBRANCH  22  25
ENDBRANCH  20  23
ENDBRANCH  19  20
ENDBRANCH   1  19
TORSDOF 7
ENDMDL
MODEL 5
REMARK VINA RESULT:      -8.7      5.371     11.349
REMARK  Name = 
REMARK  8 active torsions:
REMARK  status: ('A' for Active; 'I' for Inactive)
REMARK    1  A    between atoms: C_1  and  N_2
REMARK    2  A    between atoms: N_2  and  C_3
REMARK    3  A    between atoms: C_3  and  C_4
REMARK    4  A    between atoms: C_4  and  C_5
REMARK    5  A    between atoms: C_11  and  C_13
REMARK    6  A    between atoms: C_13  and  C_14
REMARK    7  A    between atoms: C_14  and  C_15
REMARK    8  A    between atoms: C_20  and  C_22
REMARK                            x       y       z     vdW  Elec       q    Type
REMARK                         _______ _______ _______ _____ _____    ______ ____
ROOT
ATOM      1  C   UNL     1      -2.449  12.315  18.799  0.00  0.00    +0.000 C 
ATOM      2  C   UNL     1      -3.284  11.288  18.009  0.00  0.00    +0.000 C 
ATOM      3  C   UNL     1      -2.640   9.906  18.012  0.00  0.00    +0.000 C 
ATOM      4  C   UNL     1      -1.178   9.965  17.586  0.00  0.00    +0.000 C 
ATOM      5  N   UNL     1      -0.420  10.975  18.339  0.00  0.00    +0.000 N 
ATOM      6  C   UNL     1       0.663  10.778  19.197  0.00  0.00    +0.000 C 
ATOM      7  O   UNL     1       1.173  11.696  19.851  0.00  0.00    +0.000 OA
ATOM      8  C   UNL     1      -1.004  12.314  18.264  0.00  0.00    +0.000 C 
ENDROOT
BRANCH   6   9
ATOM      9  C   UNL     1       1.252   9.419  19.416  0.00  0.00    +0.000 A 
ATOM     10  C   UNL     1       0.983   8.756  20.628  0.00  0.00    +0.000 A 
ATOM     11  C   UNL     1       1.481   7.467  20.858  0.00  0.00    +0.000 A 
ATOM     12  C   UNL     1       2.222   6.828  19.869  0.00  0.00    +0.000 A 
ATOM     13  C   UNL     1       2.489   7.486  18.666  0.00  0.00    +0.000 A 
ATOM     14  C   UNL     1       2.083   8.803  18.479  0.00  0.00    +0.000 A 
ATOM     15  O   UNL     1       3.141   6.901  17.608  0.00  0.00    +0.000 OA
ATOM     16  C   UNL     1       3.219   5.479  17.775  0.00  0.00    +0.000 C 
ATOM     17  C   UNL     1       3.665   5.152  19.188  0.00  0.00    +0.000 C 
ATOM     18  O   UNL     1       2.667   5.559  20.135  0.00  0.00    +0.000 OA
ENDBRANCH   6   9
BRANCH   1  19
ATOM     19  C   UNL     1      -2.535  12.024  20.312  0.00  0.00    +0.000 C 
BRANCH  19  20
ATOM     20  C   UNL     1      -3.376  13.036  21.095  0.00  0.00    +0.000 C 
BRANCH  20  23
ATOM     21  C   UNL     1      -4.809  12.455  24.564  0.00  0.00    +0.000 C 
ATOM     22  N   UNL     1      -4.695  12.979  23.209  0.00  0.00    +0.000 N 
ATOM     23  C   UNL     1      -3.507  12.636  22.555  0.00  0.00    +0.000 C 
ATOM     24  O   UNL     1      -2.593  12.046  23.142  0.00  0.00    +0.000 OA
BRANCH  22  25
ATOM     25  C   UNL     1      -5.893  13.493  22.514  0.00  0.00    +0.000 C 
BRANCH  25  26
ATOM     26  C   UNL     1      -6.910  12.428  22.094  0.00  0.00    +0.000 C 
BRANCH  26  27
ATOM     27  C   UNL     1      -6.925  12.208  20.604  0.00  0.00    +0.000 A 
ATOM     28  C   UNL     1      -6.943  10.921  20.074  0.00  0.00    +0.000 A 
ATOM     29  C   UNL     1      -6.893  10.766  18.691  0.00  0.00    +0.000 A 
ATOM     30  C   UNL     1      -6.833  11.892  17.880  0.00  0.00    +0.000 A 
ATOM     31  C   UNL     1      -6.836  13.135  18.487  0.00  0.00    +0.000 A 
ATOM     32  N   UNL     1      -6.886  13.316  19.824  0.00  0.00    +0.000 NA
ENDBRANCH  26  27
ENDBRANCH  25  26
ENDBRANCH  22  25
ENDBRANCH  20  23
ENDBRANCH  19  20
ENDBRANCH   1  19
TORSDOF 7
ENDMDL
MODEL 6
REMARK VINA RESULT:      -8.7      3.284      5.789
REMARK  Name = 
REMARK  8 active torsions:
REMARK  status: ('A' for Active; 'I' for Inactive)
REMARK    1  A    between atoms: C_1  and  N_2
REMARK    2  A    between atoms: N_2  and  C_3
REMARK    3  A    between atoms: C_3  and  C_4
REMARK    4  A    between atoms: C_4  and  C_5
REMARK    5  A    between atoms: C_11  and  C_13
REMARK    6  A    between atoms: C_13  and  C_14
REMARK    7  A    between atoms: C_14  and  C_15
REMARK    8  A    between atoms: C_20  and  C_22
REMARK                            x       y       z     vdW  Elec       q    Type
REMARK                         _______ _______ _______ _____ _____    ______ ____
ROOT
ATOM      1  C   UNL     1       1.460   8.925  21.879  0.00  0.00    +0.000 C 
ATOM      2  C   UNL     1       0.497   9.284  23.028  0.00  0.00    +0.000 C 
ATOM      3  C   UNL     1      -0.850   9.775  22.512  0.00  0.00    +0.000 C 
ATOM      4  C   UNL     1      -0.687  10.884  21.480  0.00  0.00    +0.000 C 
ATOM      5  N   UNL     1       0.259  10.520  20.416  0.00  0.00    +0.000 N 
ATOM      6  C   UNL     1       0.008  10.373  19.051  0.00  0.00    +0.000 C 
ATOM      7  O   UNL     1       0.865   9.975  18.253  0.00  0.00    +0.000 OA
ATOM      8  C   UNL     1       1.575  10.125  20.920  0.00  0.00    +0.000 C 
ENDROOT
BRANCH   6   9
ATOM      9  C   UNL     1      -1.343  10.650  18.469  0.00  0.00    +0.000 A 
ATOM     10  C   UNL     1      -1.725   9.968  17.298  0.00  0.00    +0.000 A 
ATOM     11  C   UNL     1      -2.994  10.166  16.741  0.00  0.00    +0.000 A 
ATOM     12  C   UNL     1      -3.896  11.021  17.369  0.00  0.00    +0.000 A 
ATOM     13  C   UNL     1      -3.518  11.698  18.531  0.00  0.00    +0.000 A 
ATOM     14  C   UNL     1      -2.223  11.581  19.024  0.00  0.00    +0.000 A 
ATOM     15  O   UNL     1      -4.368  12.495  19.256  0.00  0.00    +0.000 OA
ATOM     16  C   UNL     1      -5.730  12.289  18.860  0.00  0.00    +0.000 C 
ATOM     17  C   UNL     1      -5.830  12.291  17.345  0.00  0.00    +0.000 C 
ATOM     18  O   UNL     1      -5.133  11.163  16.797  0.00  0.00    +0.000 OA
ENDBRANCH   6   9
BRANCH   1  19
ATOM     19  C   UNL     1       0.997   7.631  21.177  0.00  0.00    +0.000 C 
BRANCH  19  20
ATOM     20  C   UNL     1       2.057   6.999  20.272  0.00  0.00    +0.000 C 
BRANCH  20  23
ATOM     21  C   UNL     1       2.933   3.318  19.953  0.00  0.00    +0.000 C 
ATOM     22  N   UNL     1       3.059   4.763  19.818  0.00  0.00    +0.000 N 
ATOM     23  C   UNL     1       1.946   5.484  20.260  0.00  0.00    +0.000 C 
ATOM     24  O   UNL     1       0.906   4.916  20.614  0.00  0.00    +0.000 OA
BRANCH  22  25
ATOM     25  C   UNL     1       4.386   5.369  19.582  0.00  0.00    +0.000 C 
BRANCH  25  26
ATOM     26  C   UNL     1       5.398   4.465  18.871  0.00  0.00    +0.000 C 
BRANCH  26  27
ATOM     27  C   UNL     1       5.534   4.797  17.409  0.00  0.00    +0.000 A 
ATOM     28  C   UNL     1       5.080   6.015  16.910  0.00  0.00    +0.000 A 
ATOM     29  C   UNL     1       5.171   6.253  15.541  0.00  0.00    +0.000 A 
ATOM     30  C   UNL     1       5.713   5.278  14.713  0.00  0.00    +0.000 A 
ATOM     31  C   UNL     1       6.155   4.102  15.292  0.00  0.00    +0.000 A 
ATOM     32  N   UNL     1       6.083   3.845  16.616  0.00  0.00    +0.000 NA
ENDBRANCH  26  27
ENDBRANCH  25  26
ENDBRANCH  22  25
ENDBRANCH  20  23
ENDBRANCH  19  20
ENDBRANCH   1  19
TORSDOF 7
ENDMDL
MODEL 7
REMARK VINA RESULT:      -8.6      3.221      5.868
REMARK  Name = 
REMARK  8 active torsions:
REMARK  status: ('A' for Active; 'I' for Inactive)
REMARK    1  A    between atoms: C_1  and  N_2
REMARK    2  A    between atoms: N_2  and  C_3
REMARK    3  A    between atoms: C_3  and  C_4
REMARK    4  A    between atoms: C_4  and  C_5
REMARK    5  A    between atoms: C_11  and  C_13
REMARK    6  A    between atoms: C_13  and  C_14
REMARK    7  A    between atoms: C_14  and  C_15
REMARK    8  A    between atoms: C_20  and  C_22
REMARK                            x       y       z     vdW  Elec       q    Type
REMARK                         _______ _______ _______ _____ _____    ______ ____
ROOT
ATOM      1  C   UNL     1       1.545   8.700  21.614  0.00  0.00    +0.000 C 
ATOM      2  C   UNL     1       0.651   9.121  22.797  0.00  0.00    +0.000 C 
ATOM      3  C   UNL     1      -0.692   9.671  22.330  0.00  0.00    +0.000 C 
ATOM      4  C   UNL     1      -0.520  10.756  21.274  0.00  0.00    +0.000 C 
ATOM      5  N   UNL     1       0.360  10.331  20.177  0.00  0.00    +0.000 N 
ATOM      6  C   UNL     1       0.044  10.178  18.827  0.00  0.00    +0.000 C 
ATOM      7  O   UNL     1       0.846   9.727  18.000  0.00  0.00    +0.000 OA
ATOM      8  C   UNL     1       1.676   9.879  20.631  0.00  0.00    +0.000 C 
ENDROOT
BRANCH   6   9
ATOM      9  C   UNL     1      -1.315  10.512  18.298  0.00  0.00    +0.000 A 
ATOM     10  C   UNL     1      -1.759   9.869  17.126  0.00  0.00    +0.000 A 
ATOM     11  C   UNL     1      -3.040  10.122  16.619  0.00  0.00    +0.000 A 
ATOM     12  C   UNL     1      -3.889  10.992  17.295  0.00  0.00    +0.000 A 
ATOM     13  C   UNL     1      -3.450  11.631  18.457  0.00  0.00    +0.000 A 
ATOM     14  C   UNL     1      -2.143  11.460  18.902  0.00  0.00    +0.000 A 
ATOM     15  O   UNL     1      -4.247  12.440  19.228  0.00  0.00    +0.000 OA
ATOM     16  C   UNL     1      -5.628  12.288  18.875  0.00  0.00    +0.000 C 
ATOM     17  C   UNL     1      -5.779  12.326  17.365  0.00  0.00    +0.000 C 
ATOM     18  O   UNL     1      -5.140  11.188  16.769  0.00  0.00    +0.000 OA
ENDBRANCH   6   9
BRANCH   1  19
ATOM     19  C   UNL     1       0.991   7.420  20.953  0.00  0.00    +0.000 C 
BRANCH  19  20
ATOM     20  C   UNL     1       2.006   6.679  20.079  0.00  0.00    +0.000 C 
BRANCH  20  23
ATOM     21  C   UNL     1       2.145   2.894  19.809  0.00  0.00    +0.000 C 
ATOM     22  N   UNL     1       1.932   4.280  19.412  0.00  0.00    +0.000 N 
ATOM     23  C   UNL     1       2.085   5.208  20.447  0.00  0.00    +0.000 C 
ATOM     24  O   UNL     1       2.262   4.849  21.617  0.00  0.00    +0.000 OA
BRANCH  22  25
ATOM     25  C   UNL     1       1.926   4.644  17.980  0.00  0.00    +0.000 C 
BRANCH  25  26
ATOM     26  C   UNL     1       2.939   3.892  17.112  0.00  0.00    +0.000 C 
BRANCH  26  27
ATOM     27  C   UNL     1       4.249   4.626  16.996  0.00  0.00    +0.000 A 
ATOM     28  C   UNL     1       5.415   3.951  16.647  0.00  0.00    +0.000 A 
ATOM     29  C   UNL     1       6.613   4.659  16.613  0.00  0.00    +0.000 A 
ATOM     30  C   UNL     1       6.614   6.014  16.919  0.00  0.00    +0.000 A 
ATOM     31  C   UNL     1       5.408   6.612  17.240  0.00  0.00    +0.000 A 
ATOM     32  N   UNL     1       4.231   5.952  17.278  0.00  0.00    +0.000 NA
ENDBRANCH  26  27
ENDBRANCH  25  26
ENDBRANCH  22  25
ENDBRANCH  20  23
ENDBRANCH  19  20
ENDBRANCH   1  19
TORSDOF 7
ENDMDL
MODEL 8
REMARK VINA RESULT:      -8.4      0.846      1.467
REMARK  Name = 
REMARK  8 active torsions:
REMARK  status: ('A' for Active; 'I' for Inactive)
REMARK    1  A    between atoms: C_1  and  N_2
REMARK    2  A    between atoms: N_2  and  C_3
REMARK    3  A    between atoms: C_3  and  C_4
REMARK    4  A    between atoms: C_4  and  C_5
REMARK    5  A    between atoms: C_11  and  C_13
REMARK    6  A    between atoms: C_13  and  C_14
REMARK    7  A    between atoms: C_14  and  C_15
REMARK    8  A    between atoms: C_20  and  C_22
REMARK                            x       y       z     vdW  Elec       q    Type
REMARK                         _______ _______ _______ _____ _____    ______ ____
ROOT
ATOM      1  C   UNL     1       3.515   2.141  19.077  0.00  0.00    +0.000 C 
ATOM      2  C   UNL     1       3.075   2.265  17.605  0.00  0.00    +0.000 C 
ATOM      3  C   UNL     1       2.522   3.651  17.290  0.00  0.00    +0.000 C 
ATOM      4  C   UNL     1       1.449   4.070  18.288  0.00  0.00    +0.000 C 
ATOM      5  N   UNL     1       1.892   3.911  19.681  0.00  0.00    +0.000 N 
ATOM      6  C   UNL     1       2.059   4.899  20.652  0.00  0.00    +0.000 C 
ATOM      7  O   UNL     1       2.524   4.662  21.773  0.00  0.00    +0.000 OA
ATOM      8  C   UNL     1       2.347   2.555  19.993  0.00  0.00    +0.000 C 
ENDROOT
BRANCH   6   9
ATOM      9  C   UNL     1       1.722   6.331  20.378  0.00  0.00    +0.000 A 
ATOM     10  C   UNL     1       1.025   7.060  21.360  0.00  0.00    +0.000 A 
ATOM     11  C   UNL     1       0.725   8.413  21.163  0.00  0.00    +0.000 A 
ATOM     12  C   UNL     1       1.145   9.048  19.998  0.00  0.00    +0.000 A 
ATOM     13  C   UNL     1       1.835   8.326  19.022  0.00  0.00    +0.000 A 
ATOM     14  C   UNL     1       2.042   6.959  19.173  0.00  0.00    +0.000 A 
ATOM     15  O   UNL     1       2.354   8.891  17.883  0.00  0.00    +0.000 OA
ATOM     16  C   UNL     1       2.376  10.321  17.983  0.00  0.00    +0.000 C 
ATOM     17  C   UNL     1       1.043  10.819  18.512  0.00  0.00    +0.000 C 
ATOM     18  O   UNL     1       0.845  10.379  19.862  0.00  0.00    +0.000 OA
ENDBRANCH   6   9
BRANCH   1  19
ATOM     19  C   UNL     1       4.798   2.962  19.323  0.00  0.00    +0.000 C 
BRANCH  19  20
ATOM     20  C   UNL     1       4.647   4.457  19.035  0.00  0.00    +0.000 C 
BRANCH  20  23
ATOM     21  C   UNL     1       7.712   6.280  17.728  0.00  0.00    +0.000 C 
ATOM     22  N   UNL     1       6.476   5.508  17.708  0.00  0.00    +0.000 N 
ATOM     23  C   UNL     1       5.998   5.149  18.973  0.00  0.00    +0.000 C 
ATOM     24  O   UNL     1       6.651   5.372  19.998  0.00  0.00    +0.000 OA
BRANCH  22  25
ATOM     25  C   UNL     1       5.658   5.457  16.479  0.00  0.00    +0.000 C 
BRANCH  25  26
ATOM     26  C   UNL     1       5.749   4.148  15.689  0.00  0.00    +0.000 C 
BRANCH  26  27
ATOM     27  C   UNL     1       6.356   4.345  14.325  0.00  0.00    +0.000 A 
ATOM     28  C   UNL     1       5.898   3.617  13.230  0.00  0.00    +0.000 A 
ATOM     29  C   UNL     1       6.531   3.787  12.001  0.00  0.00    +0.000 A 
ATOM     30  C   UNL     1       7.593   4.677  11.898  0.00  0.00    +0.000 A 
ATOM     31  C   UNL     1       7.974   5.374  13.031  0.00  0.00    +0.000 A 
ATOM     32  N   UNL     1       7.377   5.232  14.234  0.00  0.00    +0.000 NA
ENDBRANCH  26  27
ENDBRANCH  25  26
ENDBRANCH  22  25
ENDBRANCH  20  23
ENDBRANCH  19  20
ENDBRANCH   1  19
TORSDOF 7
ENDMDL
MODEL 9
REMARK VINA RESULT:      -8.4      2.720      4.782
REMARK  Name = 
REMARK  8 active torsions:
REMARK  status: ('A' for Active; 'I' for Inactive)
REMARK    1  A    between atoms: C_1  and  N_2
REMARK    2  A    between atoms: N_2  and  C_3
REMARK    3  A    between atoms: C_3  and  C_4
REMARK    4  A    between atoms: C_4  and  C_5
REMARK    5  A    between atoms: C_11  and  C_13
REMARK    6  A    between atoms: C_13  and  C_14
REMARK    7  A    between atoms: C_14  and  C_15
REMARK    8  A    between atoms: C_20  and  C_22
REMARK                            x       y       z     vdW  Elec       q    Type
REMARK                         _______ _______ _______ _____ _____    ______ ____
ROOT
ATOM      1  C   UNL     1       2.756   5.911  19.303  0.00  0.00    +0.000 C 
ATOM      2  C   UNL     1       2.150   5.640  20.694  0.00  0.00    +0.000 C 
ATOM      3  C   UNL     1       0.967   6.556  20.990  0.00  0.00    +0.000 C 
ATOM      4  C   UNL     1       1.313   8.020  20.746  0.00  0.00    +0.000 C 
ATOM      5  N   UNL     1       1.916   8.237  19.423  0.00  0.00    +0.000 N 
ATOM      6  C   UNL     1       1.422   9.001  18.365  0.00  0.00    +0.000 C 
ATOM      7  O   UNL     1       1.972   9.043  17.258  0.00  0.00    +0.000 OA
ATOM      8  C   UNL     1       3.098   7.409  19.181  0.00  0.00    +0.000 C 
ENDROOT
BRANCH   6   9
ATOM      9  C   UNL     1       0.157   9.791  18.493  0.00  0.00    +0.000 A 
ATOM     10  C   UNL     1       0.084  10.790  19.482  0.00  0.00    +0.000 A 
ATOM     11  C   UNL     1      -1.065  11.580  19.611  0.00  0.00    +0.000 A 
ATOM     12  C   UNL     1      -2.130  11.395  18.734  0.00  0.00    +0.000 A 
ATOM     13  C   UNL     1      -2.059  10.403  17.753  0.00  0.00    +0.000 A 
ATOM     14  C   UNL     1      -0.961   9.551  17.693  0.00  0.00    +0.000 A 
ATOM     15  O   UNL     1      -3.026  10.206  16.800  0.00  0.00    +0.000 OA
ATOM     16  C   UNL     1      -3.929  11.318  16.746  0.00  0.00    +0.000 C 
ATOM     17  C   UNL     1      -4.347  11.709  18.152  0.00  0.00    +0.000 C 
ATOM     18  O   UNL     1      -3.222  12.209  18.888  0.00  0.00    +0.000 OA
ENDBRANCH   6   9
BRANCH   1  19
ATOM     19  C   UNL     1       1.801   5.416  18.197  0.00  0.00    +0.000 C 
BRANCH  19  20
ATOM     20  C   UNL     1       2.450   4.457  17.196  0.00  0.00    +0.000 C 
BRANCH  20  23
ATOM     21  C   UNL     1       3.599   1.271  18.914  0.00  0.00    +0.000 C 
ATOM     22  N   UNL     1       3.676   2.594  18.308  0.00  0.00    +0.000 N 
ATOM     23  C   UNL     1       2.481   3.035  17.731  0.00  0.00    +0.000 C 
ATOM     24  O   UNL     1       1.492   2.297  17.645  0.00  0.00    +0.000 OA
BRANCH  22  25
ATOM     25  C   UNL     1       4.811   3.485  18.624  0.00  0.00    +0.000 C 
BRANCH  25  26
ATOM     26  C   UNL     1       5.578   4.017  17.410  0.00  0.00    +0.000 C 
BRANCH  26  27
ATOM     27  C   UNL     1       6.415   5.224  17.747  0.00  0.00    +0.000 A 
ATOM     28  C   UNL     1       6.288   6.404  17.020  0.00  0.00    +0.000 A 
ATOM     29  C   UNL     1       7.126   7.473  17.327  0.00  0.00    +0.000 A 
ATOM     30  C   UNL     1       8.058   7.338  18.349  0.00  0.00    +0.000 A 
ATOM     31  C   UNL     1       8.107   6.137  19.034  0.00  0.00    +0.000 A 
ATOM     32  N   UNL     1       7.305   5.085  18.760  0.00  0.00    +0.000 NA
ENDBRANCH  26  27
ENDBRANCH  25  26
ENDBRANCH  22  25
ENDBRANCH  20  23
ENDBRANCH  19  20
ENDBRANCH   1  19
TORSDOF 7
ENDMDL
