MODEL 1
REMARK VINA RESULT:      -7.8      0.000      0.000
REMARK  Name = 
REMARK  11 active torsions:
REMARK  status: ('A' for Active; 'I' for Inactive)
REMARK    1  A    between atoms: C_1  and  C_2
REMARK    2  A    between atoms: C_2  and  O_3
REMARK    3  A    between atoms: O_3  and  C_4
REMARK    4  A    between atoms: C_9  and  N_10
REMARK    5  A    between atoms: C_11  and  C_13
REMARK    6  A    between atoms: C_13  and  S_14
REMARK    7  A    between atoms: S_14  and  C_17
REMARK    8  A    between atoms: C_17  and  C_18
REMARK    9  A    between atoms: C_20  and  C_21
REMARK   10  A    between atoms: C_24  and  C_25
REMARK   11  A    between atoms: C_29  and  C_30
REMARK                            x       y       z     vdW  Elec       q    Type
REMARK                         _______ _______ _______ _____ _____    ______ ____
ROOT
ATOM      1  S   UNL     1       1.507   4.146  19.955  0.00  0.00    +0.000 S 
ATOM      2  O   UNL     1       0.250   4.801  20.267  0.00  0.00    +0.000 OA
ATOM      3  O   UNL     1       1.877   2.921  20.647  0.00  0.00    +0.000 OA
ENDROOT
BRANCH   1   4
ATOM      4  C   UNL     1       1.558   3.812  18.212  0.00  0.00    +0.000 C 
BRANCH   4   6
ATOM      5  N   UNL     1       3.669   4.490  17.168  0.00  0.00    +0.000 N 
ATOM      6  C   UNL     1       2.963   3.484  17.794  0.00  0.00    +0.000 C 
ATOM      7  O   UNL     1       3.419   2.349  17.933  0.00  0.00    +0.000 OA
ATOM      8  H   UNL     1       3.199   5.371  16.970  0.00  0.00    +0.000 HD
BRANCH   5  14
ATOM      9  C   UNL     1       7.823   7.133  18.082  0.00  0.00    +0.000 C 
ATOM     10  O   UNL     1       8.557   6.857  19.032  0.00  0.00    +0.000 OA
ATOM     11  N   UNL     1       6.663   6.450  17.792  0.00  0.00    +0.000 N 
ATOM     12  C   UNL     1       6.212   5.402  18.693  0.00  0.00    +0.000 C 
ATOM     13  C   UNL     1       6.013   4.110  17.921  0.00  0.00    +0.000 C 
ATOM     14  C   UNL     1       5.057   4.310  16.738  0.00  0.00    +0.000 C 
ATOM     15  C   UNL     1       5.529   5.475  15.853  0.00  0.00    +0.000 C 
ATOM     16  C   UNL     1       5.790   6.744  16.659  0.00  0.00    +0.000 C 
BRANCH   9  17
ATOM     17  O   UNL     1       8.027   8.198  17.265  0.00  0.00    +0.000 OA
BRANCH  17  19
ATOM     18  C   UNL     1       9.101  10.175  18.042  0.00  0.00    +0.000 C 
ATOM     19  C   UNL     1       7.767   9.467  17.877  0.00  0.00    +0.000 C 
ENDBRANCH  17  19
ENDBRANCH   9  17
ENDBRANCH   5  14
ENDBRANCH   4   6
ENDBRANCH   1   4
BRANCH   1  20
ATOM     20  C   UNL     1       2.799   5.357  20.234  0.00  0.00    +0.000 C 
BRANCH  20  21
ATOM     21  C   UNL     1       2.275   6.735  20.136  0.00  0.00    +0.000 A 
ATOM     22  N   UNL     1       1.658   7.324  21.215  0.00  0.00    +0.000 NA
ATOM     23  C   UNL     1       1.220   8.480  20.748  0.00  0.00    +0.000 A 
ATOM     24  O   UNL     1       1.545   8.707  19.438  0.00  0.00    +0.000 OA
ATOM     25  C   UNL     1       2.238   7.593  19.057  0.00  0.00    +0.000 A 
ATOM     26  C   UNL     1       2.724   7.546  17.665  0.00  0.00    +0.000 C 
BRANCH  23  27
ATOM     27  C   UNL     1       0.378   9.474  21.404  0.00  0.00    +0.000 A 
ATOM     28  C   UNL     1      -0.003   9.286  22.740  0.00  0.00    +0.000 A 
ATOM     29  C   UNL     1      -0.877  10.179  23.368  0.00  0.00    +0.000 A 
ATOM     30  C   UNL     1      -1.390  11.276  22.669  0.00  0.00    +0.000 A 
ATOM     31  C   UNL     1      -2.377  12.205  23.311  0.00  0.00    +0.000 C 
ATOM     32  C   UNL     1      -0.994  11.482  21.343  0.00  0.00    +0.000 A 
ATOM     33  C   UNL     1      -0.116  10.592  20.718  0.00  0.00    +0.000 A 
ENDBRANCH  23  27
ENDBRANCH  20  21
ENDBRANCH   1  20
TORSDOF 8
ENDMDL
MODEL 2
REMARK VINA RESULT:      -7.4      3.401      5.002
REMARK  Name = 
REMARK  11 active torsions:
REMARK  status: ('A' for Active; 'I' for Inactive)
REMARK    1  A    between atoms: C_1  and  C_2
REMARK    2  A    between atoms: C_2  and  O_3
REMARK    3  A    between atoms: O_3  and  C_4
REMARK    4  A    between atoms: C_9  and  N_10
REMARK    5  A    between atoms: C_11  and  C_13
REMARK    6  A    between atoms: C_13  and  S_14
REMARK    7  A    between atoms: S_14  and  C_17
REMARK    8  A    between atoms: C_17  and  C_18
REMARK    9  A    between atoms: C_20  and  C_21
REMARK   10  A    between atoms: C_24  and  C_25
REMARK   11  A    between atoms: C_29  and  C_30
REMARK                            x       y       z     vdW  Elec       q    Type
REMARK                         _______ _______ _______ _____ _____    ______ ____
ROOT
ATOM      1  S   UNL     1       1.868   8.665  18.341  0.00  0.00    +0.000 S 
ATOM      2  O   UNL     1       3.221   8.524  17.835  0.00  0.00    +0.000 OA
ATOM      3  O   UNL     1       0.748   8.148  17.570  0.00  0.00    +0.000 OA
ENDROOT
BRANCH   1   4
ATOM      4  C   UNL     1       1.787   7.937  19.958  0.00  0.00    +0.000 C 
BRANCH   4   6
ATOM      5  N   UNL     1       3.641   6.406  19.483  0.00  0.00    +0.000 N 
ATOM      6  C   UNL     1       2.340   6.540  19.919  0.00  0.00    +0.000 C 
ATOM      7  O   UNL     1       1.632   5.568  20.185  0.00  0.00    +0.000 OA
ATOM      8  H   UNL     1       4.139   7.233  19.160  0.00  0.00    +0.000 HD
BRANCH   5  14
ATOM      9  C   UNL     1       6.658   4.343  16.060  0.00  0.00    +0.000 C 
ATOM     10  O   UNL     1       7.882   4.461  16.136  0.00  0.00    +0.000 OA
ATOM     11  N   UNL     1       5.782   4.900  16.964  0.00  0.00    +0.000 N 
ATOM     12  C   UNL     1       6.299   5.754  18.021  0.00  0.00    +0.000 C 
ATOM     13  C   UNL     1       5.837   5.235  19.372  0.00  0.00    +0.000 C 
ATOM     14  C   UNL     1       4.310   5.105  19.426  0.00  0.00    +0.000 C 
ATOM     15  C   UNL     1       3.798   4.259  18.249  0.00  0.00    +0.000 C 
ATOM     16  C   UNL     1       4.329   4.754  16.907  0.00  0.00    +0.000 C 
BRANCH   9  17
ATOM     17  O   UNL     1       6.030   3.725  15.028  0.00  0.00    +0.000 OA
BRANCH  17  19
ATOM     18  C   UNL     1       5.524   3.695  12.701  0.00  0.00    +0.000 C 
ATOM     19  C   UNL     1       6.583   4.023  13.739  0.00  0.00    +0.000 C 
ENDBRANCH  17  19
ENDBRANCH   9  17
ENDBRANCH   5  14
ENDBRANCH   4   6
ENDBRANCH   1   4
BRANCH   1  20
ATOM     20  C   UNL     1       1.601  10.418  18.606  0.00  0.00    +0.000 C 
BRANCH  20  21
ATOM     21  C   UNL     1       0.236  10.686  19.101  0.00  0.00    +0.000 A 
ATOM     22  N   UNL     1      -0.800  10.881  18.217  0.00  0.00    +0.000 NA
ATOM     23  C   UNL     1      -1.826  11.205  18.983  0.00  0.00    +0.000 A 
ATOM     24  O   UNL     1      -1.541  11.198  20.322  0.00  0.00    +0.000 OA
ATOM     25  C   UNL     1      -0.223  10.847  20.392  0.00  0.00    +0.000 A 
ATOM     26  C   UNL     1       0.379  10.758  21.735  0.00  0.00    +0.000 C 
BRANCH  23  27
ATOM     27  C   UNL     1      -3.159  11.648  18.592  0.00  0.00    +0.000 A 
ATOM     28  C   UNL     1      -3.997  12.249  19.542  0.00  0.00    +0.000 A 
ATOM     29  C   UNL     1      -5.308  12.607  19.217  0.00  0.00    +0.000 A 
ATOM     30  C   UNL     1      -5.809  12.368  17.934  0.00  0.00    +0.000 A 
ATOM     31  C   UNL     1      -7.233  12.689  17.590  0.00  0.00    +0.000 C 
ATOM     32  C   UNL     1      -4.970  11.791  16.974  0.00  0.00    +0.000 A 
ATOM     33  C   UNL     1      -3.657  11.438  17.298  0.00  0.00    +0.000 A 
ENDBRANCH  23  27
ENDBRANCH  20  21
ENDBRANCH   1  20
TORSDOF 8
ENDMDL
MODEL 3
REMARK VINA RESULT:      -7.2      4.990      8.738
REMARK  Name = 
REMARK  11 active torsions:
REMARK  status: ('A' for Active; 'I' for Inactive)
REMARK    1  A    between atoms: C_1  and  C_2
REMARK    2  A    between atoms: C_2  and  O_3
REMARK    3  A    between atoms: O_3  and  C_4
REMARK    4  A    between atoms: C_9  and  N_10
REMARK    5  A    between atoms: C_11  and  C_13
REMARK    6  A    between atoms: C_13  and  S_14
REMARK    7  A    between atoms: S_14  and  C_17
REMARK    8  A    between atoms: C_17  and  C_18
REMARK    9  A    between atoms: C_20  and  C_21
REMARK   10  A    between atoms: C_24  and  C_25
REMARK   11  A    between atoms: C_29  and  C_30
REMARK                            x       y       z     vdW  Elec       q    Type
REMARK                         _______ _______ _______ _____ _____    ______ ____
ROOT
ATOM      1  S   UNL     1       1.137  11.864  19.345  0.00  0.00    +0.000 S 
ATOM      2  O   UNL     1       2.233  11.999  18.402  0.00  0.00    +0.000 OA
ATOM      3  O   UNL     1       1.403  11.906  20.774  0.00  0.00    +0.000 OA
ENDROOT
BRANCH   1   4
ATOM      4  C   UNL     1      -0.077  13.108  18.988  0.00  0.00    +0.000 C 
BRANCH   4   6
ATOM      5  N   UNL     1       1.889  14.540  19.291  0.00  0.00    +0.000 N 
ATOM      6  C   UNL     1       0.590  14.447  18.841  0.00  0.00    +0.000 C 
ATOM      7  O   UNL     1      -0.031  15.423  18.416  0.00  0.00    +0.000 OA
ATOM      8  H   UNL     1       2.311  13.732  19.745  0.00  0.00    +0.000 HD
BRANCH   5  14
ATOM      9  C   UNL     1       6.809  15.390  18.906  0.00  0.00    +0.000 C 
ATOM     10  O   UNL     1       7.355  15.483  17.806  0.00  0.00    +0.000 OA
ATOM     11  N   UNL     1       5.465  15.143  19.071  0.00  0.00    +0.000 N 
ATOM     12  C   UNL     1       4.641  14.885  17.901  0.00  0.00    +0.000 C 
ATOM     13  C   UNL     1       3.467  15.848  17.876  0.00  0.00    +0.000 C 
ATOM     14  C   UNL     1       2.662  15.778  19.180  0.00  0.00    +0.000 C 
ATOM     15  C   UNL     1       3.581  15.982  20.394  0.00  0.00    +0.000 C 
ATOM     16  C   UNL     1       4.792  15.053  20.365  0.00  0.00    +0.000 C 
BRANCH   9  17
ATOM     17  O   UNL     1       7.486  15.432  20.082  0.00  0.00    +0.000 OA
BRANCH  17  19
ATOM     18  C   UNL     1       7.925  16.834  21.955  0.00  0.00    +0.000 C 
ATOM     19  C   UNL     1       7.964  16.734  20.440  0.00  0.00    +0.000 C 
ENDBRANCH  17  19
ENDBRANCH   9  17
ENDBRANCH   5  14
ENDBRANCH   4   6
ENDBRANCH   1   4
BRANCH   1  20
ATOM     20  C   UNL     1       0.331  10.306  18.972  0.00  0.00    +0.000 C 
BRANCH  20  21
ATOM     21  C   UNL     1       1.250   9.166  19.163  0.00  0.00    +0.000 A 
ATOM     22  N   UNL     1       1.990   8.683  18.109  0.00  0.00    +0.000 NA
ATOM     23  C   UNL     1       2.595   7.615  18.597  0.00  0.00    +0.000 A 
ATOM     24  O   UNL     1       2.330   7.385  19.921  0.00  0.00    +0.000 OA
ATOM     25  C   UNL     1       1.482   8.393  20.282  0.00  0.00    +0.000 A 
ATOM     26  C   UNL     1       1.012   8.408  21.680  0.00  0.00    +0.000 C 
BRANCH  23  27
ATOM     27  C   UNL     1       3.409   6.625  17.903  0.00  0.00    +0.000 A 
ATOM     28  C   UNL     1       4.482   7.046  17.104  0.00  0.00    +0.000 A 
ATOM     29  C   UNL     1       5.227   6.126  16.361  0.00  0.00    +0.000 A 
ATOM     30  C   UNL     1       4.912   4.765  16.400  0.00  0.00    +0.000 A 
ATOM     31  C   UNL     1       5.663   3.776  15.559  0.00  0.00    +0.000 C 
ATOM     32  C   UNL     1       3.859   4.335  17.215  0.00  0.00    +0.000 A 
ATOM     33  C   UNL     1       3.117   5.255  17.961  0.00  0.00    +0.000 A 
ENDBRANCH  23  27
ENDBRANCH  20  21
ENDBRANCH   1  20
TORSDOF 8
ENDMDL
MODEL 4
REMARK VINA RESULT:      -7.2      4.851      8.463
REMARK  Name = 
REMARK  11 active torsions:
REMARK  status: ('A' for Active; 'I' for Inactive)
REMARK    1  A    between atoms: C_1  and  C_2
REMARK    2  A    between atoms: C_2  and  O_3
REMARK    3  A    between atoms: O_3  and  C_4
REMARK    4  A    between atoms: C_9  and  N_10
REMARK    5  A    between atoms: C_11  and  C_13
REMARK    6  A    between atoms: C_13  and  S_14
REMARK    7  A    between atoms: S_14  and  C_17
REMARK    8  A    between atoms: C_17  and  C_18
REMARK    9  A    between atoms: C_20  and  C_21
REMARK   10  A    between atoms: C_24  and  C_25
REMARK   11  A    between atoms: C_29  and  C_30
REMARK                            x       y       z     vdW  Elec       q    Type
REMARK                         _______ _______ _______ _____ _____    ______ ____
ROOT
ATOM      1  S   UNL     1       0.978  12.436  19.883  0.00  0.00    +0.000 S 
ATOM      2  O   UNL     1       1.556  12.186  18.575  0.00  0.00    +0.000 OA
ATOM      3  O   UNL     1       1.845  12.571  21.044  0.00  0.00    +0.000 OA
ENDROOT
BRANCH   1   4
ATOM      4  C   UNL     1      -0.026  13.897  19.791  0.00  0.00    +0.000 C 
BRANCH   4   6
ATOM      5  N   UNL     1       2.088  14.997  19.216  0.00  0.00    +0.000 N 
ATOM      6  C   UNL     1       0.848  15.120  19.805  0.00  0.00    +0.000 C 
ATOM      7  O   UNL     1       0.495  16.147  20.387  0.00  0.00    +0.000 OA
ATOM      8  H   UNL     1       2.374  14.088  18.857  0.00  0.00    +0.000 HD
BRANCH   5  14
ATOM      9  C   UNL     1       7.075  15.176  18.793  0.00  0.00    +0.000 C 
ATOM     10  O   UNL     1       7.618  15.231  17.689  0.00  0.00    +0.000 OA
ATOM     11  N   UNL     1       5.710  15.111  18.968  0.00  0.00    +0.000 N 
ATOM     12  C   UNL     1       4.849  15.008  17.801  0.00  0.00    +0.000 C 
ATOM     13  C   UNL     1       3.818  16.124  17.824  0.00  0.00    +0.000 C 
ATOM     14  C   UNL     1       3.023  16.121  19.135  0.00  0.00    +0.000 C 
ATOM     15  C   UNL     1       3.972  16.153  20.343  0.00  0.00    +0.000 C 
ATOM     16  C   UNL     1       5.043  15.068  20.266  0.00  0.00    +0.000 C 
BRANCH   9  17
ATOM     17  O   UNL     1       7.761  15.083  19.960  0.00  0.00    +0.000 OA
BRANCH  17  19
ATOM     18  C   UNL     1      10.025  14.438  20.314  0.00  0.00    +0.000 C 
ATOM     19  C   UNL     1       8.616  13.937  20.050  0.00  0.00    +0.000 C 
ENDBRANCH  17  19
ENDBRANCH   9  17
ENDBRANCH   5  14
ENDBRANCH   4   6
ENDBRANCH   1   4
BRANCH   1  20
ATOM     20  C   UNL     1      -0.173  11.099  20.198  0.00  0.00    +0.000 C 
BRANCH  20  21
ATOM     21  C   UNL     1       0.534   9.849  20.542  0.00  0.00    +0.000 A 
ATOM     22  N   UNL     1       1.204   9.137  19.573  0.00  0.00    +0.000 NA
ATOM     23  C   UNL     1       1.608   8.043  20.194  0.00  0.00    +0.000 A 
ATOM     24  O   UNL     1       1.281   8.008  21.522  0.00  0.00    +0.000 OA
ATOM     25  C   UNL     1       0.609   9.176  21.744  0.00  0.00    +0.000 A 
ATOM     26  C   UNL     1       0.120   9.422  23.113  0.00  0.00    +0.000 C 
BRANCH  23  27
ATOM     27  C   UNL     1       2.256   6.862  19.638  0.00  0.00    +0.000 A 
ATOM     28  C   UNL     1       2.944   6.956  18.420  0.00  0.00    +0.000 A 
ATOM     29  C   UNL     1       3.503   5.823  17.823  0.00  0.00    +0.000 A 
ATOM     30  C   UNL     1       3.383   4.570  18.432  0.00  0.00    +0.000 A 
ATOM     31  C   UNL     1       3.923   3.337  17.772  0.00  0.00    +0.000 C 
ATOM     32  C   UNL     1       2.720   4.473  19.660  0.00  0.00    +0.000 A 
ATOM     33  C   UNL     1       2.165   5.608  20.259  0.00  0.00    +0.000 A 
ENDBRANCH  23  27
ENDBRANCH  20  21
ENDBRANCH   1  20
TORSDOF 8
ENDMDL
MODEL 5
REMARK VINA RESULT:      -7.1      3.687     10.487
REMARK  Name = 
REMARK  11 active torsions:
REMARK  status: ('A' for Active; 'I' for Inactive)
REMARK    1  A    between atoms: C_1  and  C_2
REMARK    2  A    between atoms: C_2  and  O_3
REMARK    3  A    between atoms: O_3  and  C_4
REMARK    4  A    between atoms: C_9  and  N_10
REMARK    5  A    between atoms: C_11  and  C_13
REMARK    6  A    between atoms: C_13  and  S_14
REMARK    7  A    between atoms: S_14  and  C_17
REMARK    8  A    between atoms: C_17  and  C_18
REMARK    9  A    between atoms: C_20  and  C_21
REMARK   10  A    between atoms: C_24  and  C_25
REMARK   11  A    between atoms: C_29  and  C_30
REMARK                            x       y       z     vdW  Elec       q    Type
REMARK                         _______ _______ _______ _____ _____    ______ ____
ROOT
ATOM      1  S   UNL     1       1.227   9.819  18.415  0.00  0.00    +0.000 S 
ATOM      2  O   UNL     1       1.561   9.076  17.214  0.00  0.00    +0.000 OA
ATOM      3  O   UNL     1       1.913  11.068  18.708  0.00  0.00    +0.000 OA
ENDROOT
BRANCH   1   4
ATOM      4  C   UNL     1      -0.516  10.153  18.412  0.00  0.00    +0.000 C 
BRANCH   4   6
ATOM      5  N   UNL     1      -1.006  11.533  20.377  0.00  0.00    +0.000 N 
ATOM      6  C   UNL     1      -0.780  11.503  19.018  0.00  0.00    +0.000 C 
ATOM      7  O   UNL     1      -0.870  12.509  18.313  0.00  0.00    +0.000 OA
ATOM      8  H   UNL     1      -1.039  10.655  20.890  0.00  0.00    +0.000 HD
BRANCH   5  14
ATOM      9  C   UNL     1      -4.382  12.807  23.850  0.00  0.00    +0.000 C 
ATOM     10  O   UNL     1      -4.134  12.692  25.051  0.00  0.00    +0.000 OA
ATOM     11  N   UNL     1      -3.498  12.459  22.853  0.00  0.00    +0.000 N 
ATOM     12  C   UNL     1      -2.233  11.838  23.210  0.00  0.00    +0.000 C 
ATOM     13  C   UNL     1      -1.084  12.630  22.612  0.00  0.00    +0.000 C 
ATOM     14  C   UNL     1      -1.245  12.787  21.095  0.00  0.00    +0.000 C 
ATOM     15  C   UNL     1      -2.624  13.376  20.757  0.00  0.00    +0.000 C 
ATOM     16  C   UNL     1      -3.761  12.607  21.423  0.00  0.00    +0.000 C 
BRANCH   9  17
ATOM     17  O   UNL     1      -5.588  13.204  23.370  0.00  0.00    +0.000 OA
BRANCH  17  19
ATOM     18  C   UNL     1      -7.785  12.381  22.964  0.00  0.00    +0.000 C 
ATOM     19  C   UNL     1      -6.710  12.589  24.016  0.00  0.00    +0.000 C 
ENDBRANCH  17  19
ENDBRANCH   9  17
ENDBRANCH   5  14
ENDBRANCH   4   6
ENDBRANCH   1   4
BRANCH   1  20
ATOM     20  C   UNL     1       1.485   8.704  19.795  0.00  0.00    +0.000 C 
BRANCH  20  21
ATOM     21  C   UNL     1       2.229   7.497  19.380  0.00  0.00    +0.000 A 
ATOM     22  N   UNL     1       3.120   7.553  18.333  0.00  0.00    +0.000 NA
ATOM     23  C   UNL     1       3.504   6.301  18.165  0.00  0.00    +0.000 A 
ATOM     24  O   UNL     1       2.953   5.427  19.063  0.00  0.00    +0.000 OA
ATOM     25  C   UNL     1       2.151   6.203  19.851  0.00  0.00    +0.000 A 
ATOM     26  C   UNL     1       1.408   5.525  20.929  0.00  0.00    +0.000 C 
BRANCH  23  27
ATOM     27  C   UNL     1       4.343   5.732  17.117  0.00  0.00    +0.000 A 
ATOM     28  C   UNL     1       4.936   6.578  16.168  0.00  0.00    +0.000 A 
ATOM     29  C   UNL     1       5.676   6.054  15.104  0.00  0.00    +0.000 A 
ATOM     30  C   UNL     1       5.834   4.671  14.966  0.00  0.00    +0.000 A 
ATOM     31  C   UNL     1       6.572   4.094  13.795  0.00  0.00    +0.000 C 
ATOM     32  C   UNL     1       5.265   3.823  15.922  0.00  0.00    +0.000 A 
ATOM     33  C   UNL     1       4.530   4.349  16.989  0.00  0.00    +0.000 A 
ENDBRANCH  23  27
ENDBRANCH  20  21
ENDBRANCH   1  20
TORSDOF 8
ENDMDL
MODEL 6
REMARK VINA RESULT:      -7.0      2.966      5.253
REMARK  Name = 
REMARK  11 active torsions:
REMARK  status: ('A' for Active; 'I' for Inactive)
REMARK    1  A    between atoms: C_1  and  C_2
REMARK    2  A    between atoms: C_2  and  O_3
REMARK    3  A    between atoms: O_3  and  C_4
REMARK    4  A    between atoms: C_9  and  N_10
REMARK    5  A    between atoms: C_11  and  C_13
REMARK    6  A    between atoms: C_13  and  S_14
REMARK    7  A    between atoms: S_14  and  C_17
REMARK    8  A    between atoms: C_17  and  C_18
REMARK    9  A    between atoms: C_20  and  C_21
REMARK   10  A    between atoms: C_24  and  C_25
REMARK   11  A    between atoms: C_29  and  C_30
REMARK                            x       y       z     vdW  Elec       q    Type
REMARK                         _______ _______ _______ _____ _____    ______ ____
ROOT
ATOM      1  S   UNL     1       0.776   9.806  20.144  0.00  0.00    +0.000 S 
ATOM      2  O   UNL     1       1.514   9.883  18.896  0.00  0.00    +0.000 OA
ATOM      3  O   UNL     1      -0.595   9.321  20.145  0.00  0.00    +0.000 OA
ENDROOT
BRANCH   1   4
ATOM      4  C   UNL     1       1.698   8.810  21.288  0.00  0.00    +0.000 C 
BRANCH   4   6
ATOM      5  N   UNL     1       2.632   7.007  19.915  0.00  0.00    +0.000 N 
ATOM      6  C   UNL     1       1.683   7.374  20.845  0.00  0.00    +0.000 C 
ATOM      7  O   UNL     1       0.811   6.598  21.238  0.00  0.00    +0.000 OA
ATOM      8  H   UNL     1       3.250   7.721  19.536  0.00  0.00    +0.000 HD
BRANCH   5  14
ATOM      9  C   UNL     1       5.986   4.786  16.933  0.00  0.00    +0.000 C 
ATOM     10  O   UNL     1       6.977   4.221  17.399  0.00  0.00    +0.000 OA
ATOM     11  N   UNL     1       5.041   5.424  17.704  0.00  0.00    +0.000 N 
ATOM     12  C   UNL     1       5.247   5.529  19.139  0.00  0.00    +0.000 C 
ATOM     13  C   UNL     1       4.046   4.957  19.874  0.00  0.00    +0.000 C 
ATOM     14  C   UNL     1       2.745   5.633  19.424  0.00  0.00    +0.000 C 
ATOM     15  C   UNL     1       2.603   5.567  17.895  0.00  0.00    +0.000 C 
ATOM     16  C   UNL     1       3.847   6.081  17.176  0.00  0.00    +0.000 C 
BRANCH   9  17
ATOM     17  O   UNL     1       5.760   4.922  15.602  0.00  0.00    +0.000 OA
BRANCH  17  19
ATOM     18  C   UNL     1       6.260   4.029  13.452  0.00  0.00    +0.000 C 
ATOM     19  C   UNL     1       6.848   4.492  14.773  0.00  0.00    +0.000 C 
ENDBRANCH  17  19
ENDBRANCH   9  17
ENDBRANCH   5  14
ENDBRANCH   4   6
ENDBRANCH   1   4
BRANCH   1  20
ATOM     20  C   UNL     1       0.786  11.454  20.847  0.00  0.00    +0.000 C 
BRANCH  20  21
ATOM     21  C   UNL     1      -0.553  12.075  20.784  0.00  0.00    +0.000 A 
ATOM     22  N   UNL     1      -1.368  12.087  21.893  0.00  0.00    +0.000 NA
ATOM     23  C   UNL     1      -2.504  12.600  21.456  0.00  0.00    +0.000 A 
ATOM     24  O   UNL     1      -2.476  12.965  20.137  0.00  0.00    +0.000 OA
ATOM     25  C   UNL     1      -1.217  12.643  19.717  0.00  0.00    +0.000 A 
ATOM     26  C   UNL     1      -0.885  12.923  18.308  0.00  0.00    +0.000 C 
BRANCH  23  27
ATOM     27  C   UNL     1      -3.776  12.738  22.155  0.00  0.00    +0.000 A 
ATOM     28  C   UNL     1      -4.920  13.126  21.442  0.00  0.00    +0.000 A 
ATOM     29  C   UNL     1      -6.134  13.347  22.100  0.00  0.00    +0.000 A 
ATOM     30  C   UNL     1      -6.226  13.187  23.485  0.00  0.00    +0.000 A 
ATOM     31  C   UNL     1      -7.505  13.482  24.211  0.00  0.00    +0.000 C 
ATOM     32  C   UNL     1      -5.095  12.777  24.199  0.00  0.00    +0.000 A 
ATOM     33  C   UNL     1      -3.883  12.551  23.540  0.00  0.00    +0.000 A 
ENDBRANCH  23  27
ENDBRANCH  20  21
ENDBRANCH   1  20
TORSDOF 8
ENDMDL
MODEL 7
REMARK VINA RESULT:      -6.9      5.043      8.972
REMARK  Name = 
REMARK  11 active torsions:
REMARK  status: ('A' for Active; 'I' for Inactive)
REMARK    1  A    between atoms: C_1  and  C_2
REMARK    2  A    between atoms: C_2  and  O_3
REMARK    3  A    between atoms: O_3  and  C_4
REMARK    4  A    between atoms: C_9  and  N_10
REMARK    5  A    between atoms: C_11  and  C_13
REMARK    6  A    between atoms: C_13  and  S_14
REMARK    7  A    between atoms: S_14  and  C_17
REMARK    8  A    between atoms: C_17  and  C_18
REMARK    9  A    between atoms: C_20  and  C_21
REMARK   10  A    between atoms: C_24  and  C_25
REMARK   11  A    between atoms: C_29  and  C_30
REMARK                            x       y       z     vdW  Elec       q    Type
REMARK                         _______ _______ _______ _____ _____    ______ ____
ROOT
ATOM      1  S   UNL     1       0.570  12.173  19.428  0.00  0.00    +0.000 S 
ATOM      2  O   UNL     1      -0.092  13.188  18.630  0.00  0.00    +0.000 OA
ATOM      3  O   UNL     1       2.022  12.076  19.418  0.00  0.00    +0.000 OA
ENDROOT
BRANCH   1   4
ATOM      4  C   UNL     1       0.057  12.353  21.118  0.00  0.00    +0.000 C 
BRANCH   4   6
ATOM      5  N   UNL     1       1.447  14.360  20.898  0.00  0.00    +0.000 N 
ATOM      6  C   UNL     1       0.515  13.681  21.653  0.00  0.00    +0.000 C 
ATOM      7  O   UNL     1       0.133  14.089  22.750  0.00  0.00    +0.000 OA
ATOM      8  H   UNL     1       1.818  13.917  20.060  0.00  0.00    +0.000 HD
BRANCH   5  14
ATOM      9  C   UNL     1       5.653  16.813  19.730  0.00  0.00    +0.000 C 
ATOM     10  O   UNL     1       5.695  17.585  18.770  0.00  0.00    +0.000 OA
ATOM     11  N   UNL     1       4.530  16.102  20.088  0.00  0.00    +0.000 N 
ATOM     12  C   UNL     1       3.343  16.181  19.251  0.00  0.00    +0.000 C 
ATOM     13  C   UNL     1       2.151  16.608  20.090  0.00  0.00    +0.000 C 
ATOM     14  C   UNL     1       1.953  15.676  21.292  0.00  0.00    +0.000 C 
ATOM     15  C   UNL     1       3.251  15.561  22.106  0.00  0.00    +0.000 C 
ATOM     16  C   UNL     1       4.450  15.200  21.234  0.00  0.00    +0.000 C 
BRANCH   9  17
ATOM     17  O   UNL     1       6.736  16.506  20.489  0.00  0.00    +0.000 OA
BRANCH  17  19
ATOM     18  C   UNL     1       8.720  15.222  20.777  0.00  0.00    +0.000 C 
ATOM     19  C   UNL     1       7.809  15.893  19.764  0.00  0.00    +0.000 C 
ENDBRANCH  17  19
ENDBRANCH   9  17
ENDBRANCH   5  14
ENDBRANCH   4   6
ENDBRANCH   1   4
BRANCH   1  20
ATOM     20  C   UNL     1      -0.099  10.594  18.905  0.00  0.00    +0.000 C 
BRANCH  20  21
ATOM     21  C   UNL     1       0.869   9.500  19.123  0.00  0.00    +0.000 A 
ATOM     22  N   UNL     1       1.544   8.944  18.060  0.00  0.00    +0.000 NA
ATOM     23  C   UNL     1       2.219   7.941  18.592  0.00  0.00    +0.000 A 
ATOM     24  O   UNL     1       2.062   7.825  19.947  0.00  0.00    +0.000 OA
ATOM     25  C   UNL     1       1.211   8.838  20.284  0.00  0.00    +0.000 A 
ATOM     26  C   UNL     1       0.847   8.967  21.707  0.00  0.00    +0.000 C 
BRANCH  23  27
ATOM     27  C   UNL     1       3.011   6.914  17.927  0.00  0.00    +0.000 A 
ATOM     28  C   UNL     1       2.646   5.566  18.053  0.00  0.00    +0.000 A 
ATOM     29  C   UNL     1       3.435   4.555  17.495  0.00  0.00    +0.000 A 
ATOM     30  C   UNL     1       4.607   4.873  16.803  0.00  0.00    +0.000 A 
ATOM     31  C   UNL     1       5.495   3.795  16.255  0.00  0.00    +0.000 C 
ATOM     32  C   UNL     1       4.964   6.217  16.653  0.00  0.00    +0.000 A 
ATOM     33  C   UNL     1       4.172   7.228  17.206  0.00  0.00    +0.000 A 
ENDBRANCH  23  27
ENDBRANCH  20  21
ENDBRANCH   1  20
TORSDOF 8
ENDMDL
MODEL 8
REMARK VINA RESULT:      -6.9      3.174      4.889
REMARK  Name = 
REMARK  11 active torsions:
REMARK  status: ('A' for Active; 'I' for Inactive)
REMARK    1  A    between atoms: C_1  and  C_2
REMARK    2  A    between atoms: C_2  and  O_3
REMARK    3  A    between atoms: O_3  and  C_4
REMARK    4  A    between atoms: C_9  and  N_10
REMARK    5  A    between atoms: C_11  and  C_13
REMARK    6  A    between atoms: C_13  and  S_14
REMARK    7  A    between atoms: S_14  and  C_17
REMARK    8  A    between atoms: C_17  and  C_18
REMARK    9  A    between atoms: C_20  and  C_21
REMARK   10  A    between atoms: C_24  and  C_25
REMARK   11  A    between atoms: C_29  and  C_30
REMARK                            x       y       z     vdW  Elec       q    Type
REMARK                         _______ _______ _______ _____ _____    ______ ____
ROOT
ATOM      1  S   UNL     1       1.458   8.445  20.591  0.00  0.00    +0.000 S 
ATOM      2  O   UNL     1       2.177   9.377  21.440  0.00  0.00    +0.000 OA
ATOM      3  O   UNL     1       1.937   8.174  19.245  0.00  0.00    +0.000 OA
ENDROOT
BRANCH   1   4
ATOM      4  C   UNL     1       1.327   6.890  21.437  0.00  0.00    +0.000 C 
BRANCH   4   6
ATOM      5  N   UNL     1       2.893   5.699  19.975  0.00  0.00    +0.000 N 
ATOM      6  C   UNL     1       1.614   5.763  20.485  0.00  0.00    +0.000 C 
ATOM      7  O   UNL     1       0.722   4.995  20.123  0.00  0.00    +0.000 OA
ATOM      8  H   UNL     1       3.556   6.434  20.216  0.00  0.00    +0.000 HD
BRANCH   5  14
ATOM      9  C   UNL     1       6.900   5.217  17.010  0.00  0.00    +0.000 C 
ATOM     10  O   UNL     1       7.923   4.658  17.408  0.00  0.00    +0.000 OA
ATOM     11  N   UNL     1       5.776   5.390  17.785  0.00  0.00    +0.000 N 
ATOM     12  C   UNL     1       5.805   4.980  19.180  0.00  0.00    +0.000 C 
ATOM     13  C   UNL     1       4.660   4.021  19.458  0.00  0.00    +0.000 C 
ATOM     14  C   UNL     1       3.311   4.634  19.061  0.00  0.00    +0.000 C 
ATOM     15  C   UNL     1       3.347   5.123  17.604  0.00  0.00    +0.000 C 
ATOM     16  C   UNL     1       4.544   6.029  17.328  0.00  0.00    +0.000 C 
BRANCH   9  17
ATOM     17  O   UNL     1       6.796   5.806  15.791  0.00  0.00    +0.000 OA
BRANCH  17  19
ATOM     18  C   UNL     1       5.713   4.251  14.350  0.00  0.00    +0.000 C 
ATOM     19  C   UNL     1       7.033   4.922  14.688  0.00  0.00    +0.000 C 
ENDBRANCH  17  19
ENDBRANCH   9  17
ENDBRANCH   5  14
ENDBRANCH   4   6
ENDBRANCH   1   4
BRANCH   1  20
ATOM     20  C   UNL     1      -0.225   9.053  20.474  0.00  0.00    +0.000 C 
BRANCH  20  21
ATOM     21  C   UNL     1      -0.284  10.515  20.679  0.00  0.00    +0.000 A 
ATOM     22  N   UNL     1       0.110  11.375  19.679  0.00  0.00    +0.000 NA
ATOM     23  C   UNL     1       0.039  12.572  20.234  0.00  0.00    +0.000 A 
ATOM     24  O   UNL     1      -0.415  12.558  21.525  0.00  0.00    +0.000 OA
ATOM     25  C   UNL     1      -0.638  11.238  21.798  0.00  0.00    +0.000 A 
ATOM     26  C   UNL     1      -1.139  10.905  23.144  0.00  0.00    +0.000 C 
BRANCH  23  27
ATOM     27  C   UNL     1       0.460  13.859  19.694  0.00  0.00    +0.000 A 
ATOM     28  C   UNL     1      -0.506  14.789  19.284  0.00  0.00    +0.000 A 
ATOM     29  C   UNL     1      -0.132  15.995  18.685  0.00  0.00    +0.000 A 
ATOM     30  C   UNL     1       1.218  16.294  18.481  0.00  0.00    +0.000 A 
ATOM     31  C   UNL     1       1.631  17.556  17.783  0.00  0.00    +0.000 C 
ATOM     32  C   UNL     1       2.189  15.382  18.909  0.00  0.00    +0.000 A 
ATOM     33  C   UNL     1       1.813  14.178  19.513  0.00  0.00    +0.000 A 
ENDBRANCH  23  27
ENDBRANCH  20  21
ENDBRANCH   1  20
TORSDOF 8
ENDMDL
MODEL 9
REMARK VINA RESULT:      -6.9      3.311      6.342
REMARK  Name = 
REMARK  11 active torsions:
REMARK  status: ('A' for Active; 'I' for Inactive)
REMARK    1  A    between atoms: C_1  and  C_2
REMARK    2  A    between atoms: C_2  and  O_3
REMARK    3  A    between atoms: O_3  and  C_4
REMARK    4  A    between atoms: C_9  and  N_10
REMARK    5  A    between atoms: C_11  and  C_13
REMARK    6  A    between atoms: C_13  and  S_14
REMARK    7  A    between atoms: S_14  and  C_17
REMARK    8  A    between atoms: C_17  and  C_18
REMARK    9  A    between atoms: C_20  and  C_21
REMARK   10  A    between atoms: C_24  and  C_25
REMARK   11  A    between atoms: C_29  and  C_30
REMARK                            x       y       z     vdW  Elec       q    Type
REMARK                         _______ _______ _______ _____ _____    ______ ____
ROOT
ATOM      1  S   UNL     1       0.229  10.281  18.541  0.00  0.00    +0.000 S 
ATOM      2  O   UNL     1       1.666  10.319  18.343  0.00  0.00    +0.000 OA
ATOM      3  O   UNL     1      -0.607   9.512  17.632  0.00  0.00    +0.000 OA
ENDROOT
BRANCH   1   4
ATOM      4  C   UNL     1      -0.103   9.710  20.188  0.00  0.00    +0.000 C 
BRANCH   4   6
ATOM      5  N   UNL     1       1.423   7.834  19.793  0.00  0.00    +0.000 N 
ATOM      6  C   UNL     1       1.017   8.826  20.660  0.00  0.00    +0.000 C 
ATOM      7  O   UNL     1       1.481   8.940  21.795  0.00  0.00    +0.000 OA
ATOM      8  H   UNL     1       0.921   7.710  18.917  0.00  0.00    +0.000 HD
BRANCH   5  14
ATOM      9  C   UNL     1       3.137   3.713  17.523  0.00  0.00    +0.000 C 
ATOM     10  O   UNL     1       4.036   3.776  16.683  0.00  0.00    +0.000 OA
ATOM     11  N   UNL     1       2.618   4.813  18.167  0.00  0.00    +0.000 N 
ATOM     12  C   UNL     1       3.076   6.140  17.788  0.00  0.00    +0.000 C 
ATOM     13  C   UNL     1       3.587   6.877  19.014  0.00  0.00    +0.000 C 
ATOM     14  C   UNL     1       2.523   6.924  20.118  0.00  0.00    +0.000 C 
ATOM     15  C   UNL     1       2.011   5.510  20.436  0.00  0.00    +0.000 C 
ATOM     16  C   UNL     1       1.569   4.761  19.182  0.00  0.00    +0.000 C 
BRANCH   9  17
ATOM     17  O   UNL     1       2.493   2.562  17.843  0.00  0.00    +0.000 OA
BRANCH  17  19
ATOM     18  C   UNL     1       4.040   1.986  19.558  0.00  0.00    +0.000 C 
ATOM     19  C   UNL     1       3.356   1.508  18.289  0.00  0.00    +0.000 C 
ENDBRANCH  17  19
ENDBRANCH   9  17
ENDBRANCH   5  14
ENDBRANCH   4   6
ENDBRANCH   1   4
BRANCH   1  20
ATOM     20  C   UNL     1      -0.336  11.982  18.514  0.00  0.00    +0.000 C 
BRANCH  20  21
ATOM     21  C   UNL     1      -1.791  12.070  18.757  0.00  0.00    +0.000 A 
ATOM     22  N   UNL     1      -2.270  12.571  19.946  0.00  0.00    +0.000 NA
ATOM     23  C   UNL     1      -3.577  12.397  19.869  0.00  0.00    +0.000 A 
ATOM     24  O   UNL     1      -3.994  11.848  18.686  0.00  0.00    +0.000 OA
ATOM     25  C   UNL     1      -2.846  11.659  17.970  0.00  0.00    +0.000 A 
ATOM     26  C   UNL     1      -2.981  11.066  16.626  0.00  0.00    +0.000 C 
BRANCH  23  27
ATOM     27  C   UNL     1      -4.593  12.620  20.890  0.00  0.00    +0.000 A 
ATOM     28  C   UNL     1      -4.216  13.115  22.147  0.00  0.00    +0.000 A 
ATOM     29  C   UNL     1      -5.155  13.259  23.171  0.00  0.00    +0.000 A 
ATOM     30  C   UNL     1      -6.492  12.909  22.960  0.00  0.00    +0.000 A 
ATOM     31  C   UNL     1      -7.497  13.000  24.069  0.00  0.00    +0.000 C 
ATOM     32  C   UNL     1      -6.880  12.438  21.700  0.00  0.00    +0.000 A 
ATOM     33  C   UNL     1      -5.940  12.298  20.675  0.00  0.00    +0.000 A 
ENDBRANCH  23  27
ENDBRANCH  20  21
ENDBRANCH   1  20
TORSDOF 8
ENDMDL
