MODEL 1
REMARK VINA RESULT:      -5.8      0.000      0.000
REMARK  Name = 
REMARK  2 active torsions:
REMARK  status: ('A' for Active; 'I' for Inactive)
REMARK    1  A    between atoms: C_1  and  C_2
REMARK    2  A    between atoms: C_6  and  C_7
REMARK                            x       y       z     vdW  Elec       q    Type
REMARK                         _______ _______ _______ _____ _____    ______ ____
ROOT
ATOM      1  C   UNL     1       2.322   6.037  18.121  0.00  0.00    +0.000 C 
ATOM      2  C   UNL     1       2.347   4.541  18.195  0.00  0.00    +0.000 A 
ATOM      3  C   UNL     1       1.169   3.780  18.502  0.00  0.00    +0.000 A 
ATOM      4  C   UNL     1       1.391   2.425  18.506  0.00  0.00    +0.000 A 
ATOM      5  S   UNL     1       3.013   2.052  18.163  0.00  0.00    +0.000 S 
ATOM      6  C   UNL     1       3.451   3.714  17.971  0.00  0.00    +0.000 A 
ENDROOT
BRANCH   6   7
ATOM      7  C   UNL     1       4.855   4.041  17.642  0.00  0.00    +0.000 A 
ATOM      8  C   UNL     1       5.346   4.020  16.329  0.00  0.00    +0.000 A 
ATOM      9  C   UNL     1       6.683   4.321  16.063  0.00  0.00    +0.000 A 
ATOM     10  C   UNL     1       7.503   4.659  17.123  0.00  0.00    +0.000 A 
ATOM     11  N   UNL     1       7.084   4.701  18.403  0.00  0.00    +0.000 NA
ATOM     12  C   UNL     1       5.782   4.384  18.626  0.00  0.00    +0.000 A 
ENDBRANCH   6   7
TORSDOF 1
ENDMDL
MODEL 2
REMARK VINA RESULT:      -5.7      1.849      2.267
REMARK  Name = 
REMARK  2 active torsions:
REMARK  status: ('A' for Active; 'I' for Inactive)
REMARK    1  A    between atoms: C_1  and  C_2
REMARK    2  A    between atoms: C_6  and  C_7
REMARK                            x       y       z     vdW  Elec       q    Type
REMARK                         _______ _______ _______ _____ _____    ______ ____
ROOT
ATOM      1  C   UNL     1       2.459   7.030  18.329  0.00  0.00    +0.000 C 
ATOM      2  C   UNL     1       2.821   5.612  18.004  0.00  0.00    +0.000 A 
ATOM      3  C   UNL     1       1.819   4.601  17.820  0.00  0.00    +0.000 A 
ATOM      4  C   UNL     1       2.348   3.372  17.512  0.00  0.00    +0.000 A 
ATOM      5  S   UNL     1       4.046   3.412  17.463  0.00  0.00    +0.000 S 
ATOM      6  C   UNL     1       4.110   5.101  17.827  0.00  0.00    +0.000 A 
ENDROOT
BRANCH   6   7
ATOM      7  C   UNL     1       5.432   5.753  17.928  0.00  0.00    +0.000 A 
ATOM      8  C   UNL     1       6.385   5.383  18.887  0.00  0.00    +0.000 A 
ATOM      9  C   UNL     1       7.616   6.036  18.957  0.00  0.00    +0.000 A 
ATOM     10  C   UNL     1       7.880   7.041  18.047  0.00  0.00    +0.000 A 
ATOM     11  N   UNL     1       7.005   7.435  17.101  0.00  0.00    +0.000 NA
ATOM     12  C   UNL     1       5.809   6.790  17.074  0.00  0.00    +0.000 A 
ENDBRANCH   6   7
TORSDOF 1
ENDMDL
MODEL 3
REMARK VINA RESULT:      -5.6      2.151      4.749
REMARK  Name = 
REMARK  2 active torsions:
REMARK  status: ('A' for Active; 'I' for Inactive)
REMARK    1  A    between atoms: C_1  and  C_2
REMARK    2  A    between atoms: C_6  and  C_7
REMARK                            x       y       z     vdW  Elec       q    Type
REMARK                         _______ _______ _______ _____ _____    ______ ____
ROOT
ATOM      1  C   UNL     1       5.566   4.162  15.151  0.00  0.00    +0.000 C 
ATOM      2  C   UNL     1       5.962   4.624  16.520  0.00  0.00    +0.000 A 
ATOM      3  C   UNL     1       7.217   5.277  16.764  0.00  0.00    +0.000 A 
ATOM      4  C   UNL     1       7.387   5.639  18.077  0.00  0.00    +0.000 A 
ATOM      5  S   UNL     1       6.060   5.181  19.034  0.00  0.00    +0.000 S 
ATOM      6  C   UNL     1       5.206   4.507  17.690  0.00  0.00    +0.000 A 
ENDROOT
BRANCH   6   7
ATOM      7  C   UNL     1       3.877   3.905  17.927  0.00  0.00    +0.000 A 
ATOM      8  C   UNL     1       2.684   4.624  17.770  0.00  0.00    +0.000 A 
ATOM      9  C   UNL     1       1.450   4.021  18.019  0.00  0.00    +0.000 A 
ATOM     10  C   UNL     1       1.433   2.695  18.405  0.00  0.00    +0.000 A 
ATOM     11  N   UNL     1       2.547   1.954  18.566  0.00  0.00    +0.000 NA
ATOM     12  C   UNL     1       3.731   2.578  18.334  0.00  0.00    +0.000 A 
ENDBRANCH   6   7
TORSDOF 1
ENDMDL
MODEL 4
REMARK VINA RESULT:      -5.6      1.501      1.631
REMARK  Name = 
REMARK  2 active torsions:
REMARK  status: ('A' for Active; 'I' for Inactive)
REMARK    1  A    between atoms: C_1  and  C_2
REMARK    2  A    between atoms: C_6  and  C_7
REMARK                            x       y       z     vdW  Elec       q    Type
REMARK                         _______ _______ _______ _____ _____    ______ ____
ROOT
ATOM      1  C   UNL     1       1.825   5.509  20.612  0.00  0.00    +0.000 C 
ATOM      2  C   UNL     1       1.845   4.309  19.714  0.00  0.00    +0.000 A 
ATOM      3  C   UNL     1       0.781   3.345  19.719  0.00  0.00    +0.000 A 
ATOM      4  C   UNL     1       0.974   2.330  18.815  0.00  0.00    +0.000 A 
ATOM      5  S   UNL     1       2.438   2.507  17.971  0.00  0.00    +0.000 S 
ATOM      6  C   UNL     1       2.835   3.980  18.784  0.00  0.00    +0.000 A 
ENDROOT
BRANCH   6   7
ATOM      7  C   UNL     1       4.103   4.658  18.440  0.00  0.00    +0.000 A 
ATOM      8  C   UNL     1       4.155   5.782  17.603  0.00  0.00    +0.000 A 
ATOM      9  C   UNL     1       5.376   6.382  17.292  0.00  0.00    +0.000 A 
ATOM     10  C   UNL     1       6.527   5.854  17.843  0.00  0.00    +0.000 A 
ATOM     11  N   UNL     1       6.536   4.781  18.658  0.00  0.00    +0.000 NA
ATOM     12  C   UNL     1       5.332   4.210  18.924  0.00  0.00    +0.000 A 
ENDBRANCH   6   7
TORSDOF 1
ENDMDL
MODEL 5
REMARK VINA RESULT:      -5.6      0.882      1.399
REMARK  Name = 
REMARK  2 active torsions:
REMARK  status: ('A' for Active; 'I' for Inactive)
REMARK    1  A    between atoms: C_1  and  C_2
REMARK    2  A    between atoms: C_6  and  C_7
REMARK                            x       y       z     vdW  Elec       q    Type
REMARK                         _______ _______ _______ _____ _____    ______ ____
ROOT
ATOM      1  C   UNL     1       2.410   6.069  18.241  0.00  0.00    +0.000 C 
ATOM      2  C   UNL     1       2.422   4.571  18.254  0.00  0.00    +0.000 A 
ATOM      3  C   UNL     1       1.262   3.809  18.622  0.00  0.00    +0.000 A 
ATOM      4  C   UNL     1       1.467   2.454  18.555  0.00  0.00    +0.000 A 
ATOM      5  S   UNL     1       3.053   2.079  18.072  0.00  0.00    +0.000 S 
ATOM      6  C   UNL     1       3.495   3.743  17.912  0.00  0.00    +0.000 A 
ENDROOT
BRANCH   6   7
ATOM      7  C   UNL     1       4.873   4.071  17.488  0.00  0.00    +0.000 A 
ATOM      8  C   UNL     1       5.845   4.543  18.381  0.00  0.00    +0.000 A 
ATOM      9  C   UNL     1       7.130   4.855  17.935  0.00  0.00    +0.000 A 
ATOM     10  C   UNL     1       7.425   4.669  16.598  0.00  0.00    +0.000 A 
ATOM     11  N   UNL     1       6.533   4.213  15.697  0.00  0.00    +0.000 NA
ATOM     12  C   UNL     1       5.286   3.938  16.162  0.00  0.00    +0.000 A 
ENDBRANCH   6   7
TORSDOF 1
ENDMDL
MODEL 6
REMARK VINA RESULT:      -5.5      2.418      4.527
REMARK  Name = 
REMARK  2 active torsions:
REMARK  status: ('A' for Active; 'I' for Inactive)
REMARK    1  A    between atoms: C_1  and  C_2
REMARK    2  A    between atoms: C_6  and  C_7
REMARK                            x       y       z     vdW  Elec       q    Type
REMARK                         _______ _______ _______ _____ _____    ______ ____
ROOT
ATOM      1  C   UNL     1       2.973   7.592  17.985  0.00  0.00    +0.000 C 
ATOM      2  C   UNL     1       3.774   6.437  17.467  0.00  0.00    +0.000 A 
ATOM      3  C   UNL     1       4.794   6.612  16.472  0.00  0.00    +0.000 A 
ATOM      4  C   UNL     1       5.427   5.440  16.141  0.00  0.00    +0.000 A 
ATOM      5  S   UNL     1       4.792   4.117  16.998  0.00  0.00    +0.000 S 
ATOM      6  C   UNL     1       3.664   5.102  17.864  0.00  0.00    +0.000 A 
ENDROOT
BRANCH   6   7
ATOM      7  C   UNL     1       2.760   4.452  18.836  0.00  0.00    +0.000 A 
ATOM      8  C   UNL     1       1.712   3.607  18.444  0.00  0.00    +0.000 A 
ATOM      9  C   UNL     1       0.872   3.027  19.395  0.00  0.00    +0.000 A 
ATOM     10  C   UNL     1       1.109   3.289  20.731  0.00  0.00    +0.000 A 
ATOM     11  N   UNL     1       2.104   4.088  21.165  0.00  0.00    +0.000 NA
ATOM     12  C   UNL     1       2.891   4.652  20.211  0.00  0.00    +0.000 A 
ENDBRANCH   6   7
TORSDOF 1
ENDMDL
MODEL 7
REMARK VINA RESULT:      -5.5      2.116      4.683
REMARK  Name = 
REMARK  2 active torsions:
REMARK  status: ('A' for Active; 'I' for Inactive)
REMARK    1  A    between atoms: C_1  and  C_2
REMARK    2  A    between atoms: C_6  and  C_7
REMARK                            x       y       z     vdW  Elec       q    Type
REMARK                         _______ _______ _______ _____ _____    ______ ____
ROOT
ATOM      1  C   UNL     1       6.140   5.278  19.313  0.00  0.00    +0.000 C 
ATOM      2  C   UNL     1       6.162   4.904  17.863  0.00  0.00    +0.000 A 
ATOM      3  C   UNL     1       7.286   5.204  17.022  0.00  0.00    +0.000 A 
ATOM      4  C   UNL     1       7.123   4.766  15.732  0.00  0.00    +0.000 A 
ATOM      5  S   UNL     1       5.617   4.011  15.508  0.00  0.00    +0.000 S 
ATOM      6  C   UNL     1       5.158   4.231  17.160  0.00  0.00    +0.000 A 
ENDROOT
BRANCH   6   7
ATOM      7  C   UNL     1       3.835   3.738  17.598  0.00  0.00    +0.000 A 
ATOM      8  C   UNL     1       2.707   4.568  17.671  0.00  0.00    +0.000 A 
ATOM      9  C   UNL     1       1.480   4.066  18.104  0.00  0.00    +0.000 A 
ATOM     10  C   UNL     1       1.399   2.728  18.440  0.00  0.00    +0.000 A 
ATOM     11  N   UNL     1       2.448   1.883  18.383  0.00  0.00    +0.000 NA
ATOM     12  C   UNL     1       3.631   2.411  17.976  0.00  0.00    +0.000 A 
ENDBRANCH   6   7
TORSDOF 1
ENDMDL
MODEL 8
REMARK VINA RESULT:      -5.5      2.073      2.330
REMARK  Name = 
REMARK  2 active torsions:
REMARK  status: ('A' for Active; 'I' for Inactive)
REMARK    1  A    between atoms: C_1  and  C_2
REMARK    2  A    between atoms: C_6  and  C_7
REMARK                            x       y       z     vdW  Elec       q    Type
REMARK                         _______ _______ _______ _____ _____    ______ ____
ROOT
ATOM      1  C   UNL     1       3.462   7.509  17.588  0.00  0.00    +0.000 C 
ATOM      2  C   UNL     1       3.672   6.202  18.290  0.00  0.00    +0.000 A 
ATOM      3  C   UNL     1       2.995   5.886  19.516  0.00  0.00    +0.000 A 
ATOM      4  C   UNL     1       3.306   4.637  19.994  0.00  0.00    +0.000 A 
ATOM      5  S   UNL     1       4.426   3.841  18.994  0.00  0.00    +0.000 S 
ATOM      6  C   UNL     1       4.497   5.154  17.871  0.00  0.00    +0.000 A 
ENDROOT
BRANCH   6   7
ATOM      7  C   UNL     1       5.382   5.031  16.694  0.00  0.00    +0.000 A 
ATOM      8  C   UNL     1       5.064   4.226  15.591  0.00  0.00    +0.000 A 
ATOM      9  C   UNL     1       5.936   4.126  14.507  0.00  0.00    +0.000 A 
ATOM     10  C   UNL     1       7.110   4.854  14.538  0.00  0.00    +0.000 A 
ATOM     11  N   UNL     1       7.464   5.647  15.568  0.00  0.00    +0.000 NA
ATOM     12  C   UNL     1       6.601   5.706  16.615  0.00  0.00    +0.000 A 
ENDBRANCH   6   7
TORSDOF 1
ENDMDL
MODEL 9
REMARK VINA RESULT:      -5.5      2.222      4.317
REMARK  Name = 
REMARK  2 active torsions:
REMARK  status: ('A' for Active; 'I' for Inactive)
REMARK    1  A    between atoms: C_1  and  C_2
REMARK    2  A    between atoms: C_6  and  C_7
REMARK                            x       y       z     vdW  Elec       q    Type
REMARK                         _______ _______ _______ _____ _____    ______ ____
ROOT
ATOM      1  C   UNL     1       3.288   7.205  17.884  0.00  0.00    +0.000 C 
ATOM      2  C   UNL     1       4.126   6.198  17.157  0.00  0.00    +0.000 A 
ATOM      3  C   UNL     1       5.115   6.592  16.195  0.00  0.00    +0.000 A 
ATOM      4  C   UNL     1       5.789   5.527  15.651  0.00  0.00    +0.000 A 
ATOM      5  S   UNL     1       5.230   4.046  16.269  0.00  0.00    +0.000 S 
ATOM      6  C   UNL     1       4.081   4.809  17.311  0.00  0.00    +0.000 A 
ENDROOT
BRANCH   6   7
ATOM      7  C   UNL     1       3.227   3.957  18.166  0.00  0.00    +0.000 A 
ATOM      8  C   UNL     1       1.894   3.664  17.846  0.00  0.00    +0.000 A 
ATOM      9  C   UNL     1       1.118   2.868  18.689  0.00  0.00    +0.000 A 
ATOM     10  C   UNL     1       1.700   2.360  19.834  0.00  0.00    +0.000 A 
ATOM     11  N   UNL     1       2.978   2.604  20.188  0.00  0.00    +0.000 NA
ATOM     12  C   UNL     1       3.698   3.399  19.354  0.00  0.00    +0.000 A 
ENDBRANCH   6   7
TORSDOF 1
ENDMDL
