MODEL 1
REMARK VINA RESULT:      -6.2      0.000      0.000
REMARK  Name = 
REMARK  18 active torsions:
REMARK  status: ('A' for Active; 'I' for Inactive)
REMARK    1  A    between atoms: C_1  and  C_2
REMARK    2  A    between atoms: C_2  and  C_3
REMARK    3  A    between atoms: C_3  and  C_4
REMARK    4  A    between atoms: C_4  and  C_5
REMARK    5  A    between atoms: C_5  and  C_6
REMARK    6  A    between atoms: C_6  and  C_7
REMARK    7  A    between atoms: C_7  and  C_8
REMARK    8  A    between atoms: C_8  and  C_9
REMARK    9  A    between atoms: C_9  and  C_10
REMARK   10  A    between atoms: C_10  and  C_11
REMARK   11  A    between atoms: C_11  and  C_12
REMARK   12  A    between atoms: C_12  and  C_13
REMARK   13  A    between atoms: C_13  and  C_14
REMARK   14  A    between atoms: C_14  and  C_15
REMARK   15  A    between atoms: C_15  and  C_16
REMARK   16  A    between atoms: C_16  and  O_17
REMARK   17  A    between atoms: O_17  and  P_18
REMARK   18  A    between atoms: C_28  and  C_29
REMARK                            x       y       z     vdW  Elec       q    Type
REMARK                         _______ _______ _______ _____ _____    ______ ____
ROOT
ATOM      1  C   UNL     1       2.738   7.771  17.535  0.00  0.00    +0.000 C 
ENDROOT
BRANCH   1   2
ATOM      2  C   UNL     1       1.665   8.831  17.699  0.00  0.00    +0.000 C 
BRANCH   2   3
ATOM      3  O   UNL     1       2.112   9.972  18.417  0.00  0.00    +0.000 OA
BRANCH   3   4
ATOM      4  P   UNL     1       0.893  10.693  19.195  0.00  0.00    +0.000 P 
ATOM      5  O   UNL     1      -0.460  10.408  18.617  0.00  0.00    +0.000 OA
ATOM      6  O   UNL     1       1.263  12.258  19.260  0.00  0.00    +0.000 OA
ATOM      7  C   UNL     1       0.270  13.072  19.877  0.00  0.00    +0.000 C 
ATOM      8  C   UNL     1       0.311  12.875  21.391  0.00  0.00    +0.000 C 
ATOM      9  C   UNL     1      -0.447  13.959  22.129  0.00  0.00    +0.000 C 
ATOM     10  O   UNL     1      -1.389  13.346  23.009  0.00  0.00    +0.000 OA
ATOM     11  C   UNL     1      -1.402  11.995  22.855  0.00  0.00    +0.000 C 
ATOM     12  O   UNL     1      -2.199  11.263  23.414  0.00  0.00    +0.000 OA
ATOM     13  C   UNL     1      -0.308  11.634  21.937  0.00  0.00    +0.000 C 
ATOM     14  C   UNL     1       0.138  10.391  21.697  0.00  0.00    +0.000 C 
ATOM     15  C   UNL     1      -0.269   9.123  22.390  0.00  0.00    +0.000 C 
ATOM     16  O   UNL     1       1.099  10.179  20.719  0.00  0.00    +0.000 OA
ENDBRANCH   3   4
ENDBRANCH   2   3
ENDBRANCH   1   2
BRANCH   1  17
ATOM     17  C   UNL     1       2.277   6.514  18.272  0.00  0.00    +0.000 C 
BRANCH  17  18
ATOM     18  C   UNL     1       2.775   6.473  19.707  0.00  0.00    +0.000 C 
BRANCH  18  19
ATOM     19  C   UNL     1       1.726   5.832  20.610  0.00  0.00    +0.000 C 
BRANCH  19  20
ATOM     20  C   UNL     1       1.149   4.589  19.950  0.00  0.00    +0.000 C 
BRANCH  20  21
ATOM     21  C   UNL     1       1.338   3.368  20.838  0.00  0.00    +0.000 C 
BRANCH  21  22
ATOM     22  C   UNL     1       2.496   2.523  20.331  0.00  0.00    +0.000 C 
BRANCH  22  23
ATOM     23  C   UNL     1       2.192   1.985  18.941  0.00  0.00    +0.000 C 
BRANCH  23  24
ATOM     24  C   UNL     1       3.457   1.962  18.094  0.00  0.00    +0.000 C 
BRANCH  24  25
ATOM     25  C   UNL     1       3.730   3.341  17.511  0.00  0.00    +0.000 C 
BRANCH  25  26
ATOM     26  C   UNL     1       4.916   3.990  18.210  0.00  0.00    +0.000 C 
BRANCH  26  27
ATOM     27  C   UNL     1       6.008   4.334  17.205  0.00  0.00    +0.000 C 
BRANCH  27  28
ATOM     28  C   UNL     1       5.650   5.604  16.442  0.00  0.00    +0.000 C 
BRANCH  28  30
ATOM     29  C   UNL     1       6.191   4.023  14.575  0.00  0.00    +0.000 C 
ATOM     30  C   UNL     1       5.506   5.325  14.949  0.00  0.00    +0.000 C 
ENDBRANCH  28  30
ENDBRANCH  27  28
ENDBRANCH  26  27
ENDBRANCH  25  26
ENDBRANCH  24  25
ENDBRANCH  23  24
ENDBRANCH  22  23
ENDBRANCH  21  22
ENDBRANCH  20  21
ENDBRANCH  19  20
ENDBRANCH  18  19
ENDBRANCH  17  18
ENDBRANCH   1  17
TORSDOF 16
ENDMDL
MODEL 2
REMARK VINA RESULT:      -5.9      0.738      1.320
REMARK  Name = 
REMARK  18 active torsions:
REMARK  status: ('A' for Active; 'I' for Inactive)
REMARK    1  A    between atoms: C_1  and  C_2
REMARK    2  A    between atoms: C_2  and  C_3
REMARK    3  A    between atoms: C_3  and  C_4
REMARK    4  A    between atoms: C_4  and  C_5
REMARK    5  A    between atoms: C_5  and  C_6
REMARK    6  A    between atoms: C_6  and  C_7
REMARK    7  A    between atoms: C_7  and  C_8
REMARK    8  A    between atoms: C_8  and  C_9
REMARK    9  A    between atoms: C_9  and  C_10
REMARK   10  A    between atoms: C_10  and  C_11
REMARK   11  A    between atoms: C_11  and  C_12
REMARK   12  A    between atoms: C_12  and  C_13
REMARK   13  A    between atoms: C_13  and  C_14
REMARK   14  A    between atoms: C_14  and  C_15
REMARK   15  A    between atoms: C_15  and  C_16
REMARK   16  A    between atoms: C_16  and  O_17
REMARK   17  A    between atoms: O_17  and  P_18
REMARK   18  A    between atoms: C_28  and  C_29
REMARK                            x       y       z     vdW  Elec       q    Type
REMARK                         _______ _______ _______ _____ _____    ______ ____
ROOT
ATOM      1  C   UNL     1       2.517   7.539  19.518  0.00  0.00    +0.000 C 
ENDROOT
BRANCH   1   2
ATOM      2  C   UNL     1       1.692   8.193  18.425  0.00  0.00    +0.000 C 
BRANCH   2   3
ATOM      3  O   UNL     1       1.909   9.593  18.323  0.00  0.00    +0.000 OA
BRANCH   3   4
ATOM      4  P   UNL     1       0.770  10.424  19.113  0.00  0.00    +0.000 P 
ATOM      5  O   UNL     1      -0.618  10.212  18.593  0.00  0.00    +0.000 OA
ATOM      6  O   UNL     1       1.247  11.962  19.103  0.00  0.00    +0.000 OA
ATOM      7  C   UNL     1       0.335  12.864  19.721  0.00  0.00    +0.000 C 
ATOM      8  C   UNL     1       0.418  12.722  21.238  0.00  0.00    +0.000 C 
ATOM      9  C   UNL     1      -0.238  13.882  21.958  0.00  0.00    +0.000 C 
ATOM     10  O   UNL     1      -1.187  13.369  22.893  0.00  0.00    +0.000 OA
ATOM     11  C   UNL     1      -1.296  12.017  22.794  0.00  0.00    +0.000 C 
ATOM     12  O   UNL     1      -2.120  11.363  23.408  0.00  0.00    +0.000 OA
ATOM     13  C   UNL     1      -0.263  11.548  21.854  0.00  0.00    +0.000 C 
ATOM     14  C   UNL     1       0.089  10.269  21.649  0.00  0.00    +0.000 C 
ATOM     15  C   UNL     1      -0.377   9.059  22.405  0.00  0.00    +0.000 C 
ATOM     16  O   UNL     1       0.997   9.955  20.648  0.00  0.00    +0.000 OA
ENDBRANCH   3   4
ENDBRANCH   2   3
ENDBRANCH   1   2
BRANCH   1  17
ATOM     17  C   UNL     1       2.338   6.025  19.404  0.00  0.00    +0.000 C 
BRANCH  17  18
ATOM     18  C   UNL     1       1.621   5.438  20.608  0.00  0.00    +0.000 C 
BRANCH  18  19
ATOM     19  C   UNL     1       2.218   4.081  20.967  0.00  0.00    +0.000 C 
BRANCH  19  20
ATOM     20  C   UNL     1       1.338   2.960  20.435  0.00  0.00    +0.000 C 
BRANCH  20  21
ATOM     21  C   UNL     1       1.118   3.111  18.937  0.00  0.00    +0.000 C 
BRANCH  21  22
ATOM     22  C   UNL     1       2.086   2.221  18.172  0.00  0.00    +0.000 C 
BRANCH  22  23
ATOM     23  C   UNL     1       3.092   3.067  17.406  0.00  0.00    +0.000 C 
BRANCH  23  24
ATOM     24  C   UNL     1       4.408   3.142  18.166  0.00  0.00    +0.000 C 
BRANCH  24  25
ATOM     25  C   UNL     1       5.120   4.453  17.864  0.00  0.00    +0.000 C 
BRANCH  25  26
ATOM     26  C   UNL     1       4.540   5.099  16.614  0.00  0.00    +0.000 C 
BRANCH  26  27
ATOM     27  C   UNL     1       5.629   5.820  15.829  0.00  0.00    +0.000 C 
BRANCH  27  28
ATOM     28  C   UNL     1       6.635   4.822  15.270  0.00  0.00    +0.000 C 
BRANCH  28  30
ATOM     29  C   UNL     1       6.431   3.891  12.953  0.00  0.00    +0.000 C 
ATOM     30  C   UNL     1       5.947   3.786  14.388  0.00  0.00    +0.000 C 
ENDBRANCH  28  30
ENDBRANCH  27  28
ENDBRANCH  26  27
ENDBRANCH  25  26
ENDBRANCH  24  25
ENDBRANCH  23  24
ENDBRANCH  22  23
ENDBRANCH  21  22
ENDBRANCH  20  21
ENDBRANCH  19  20
ENDBRANCH  18  19
ENDBRANCH  17  18
ENDBRANCH   1  17
TORSDOF 16
ENDMDL
MODEL 3
REMARK VINA RESULT:      -5.9      6.999     10.398
REMARK  Name = 
REMARK  18 active torsions:
REMARK  status: ('A' for Active; 'I' for Inactive)
REMARK    1  A    between atoms: C_1  and  C_2
REMARK    2  A    between atoms: C_2  and  C_3
REMARK    3  A    between atoms: C_3  and  C_4
REMARK    4  A    between atoms: C_4  and  C_5
REMARK    5  A    between atoms: C_5  and  C_6
REMARK    6  A    between atoms: C_6  and  C_7
REMARK    7  A    between atoms: C_7  and  C_8
REMARK    8  A    between atoms: C_8  and  C_9
REMARK    9  A    between atoms: C_9  and  C_10
REMARK   10  A    between atoms: C_10  and  C_11
REMARK   11  A    between atoms: C_11  and  C_12
REMARK   12  A    between atoms: C_12  and  C_13
REMARK   13  A    between atoms: C_13  and  C_14
REMARK   14  A    between atoms: C_14  and  C_15
REMARK   15  A    between atoms: C_15  and  C_16
REMARK   16  A    between atoms: C_16  and  O_17
REMARK   17  A    between atoms: O_17  and  P_18
REMARK   18  A    between atoms: C_28  and  C_29
REMARK                            x       y       z     vdW  Elec       q    Type
REMARK                         _______ _______ _______ _____ _____    ______ ____
ROOT
ATOM      1  C   UNL     1       7.898   6.953  18.263  0.00  0.00    +0.000 C 
ENDROOT
BRANCH   1   2
ATOM      2  C   UNL     1       7.013   6.287  17.226  0.00  0.00    +0.000 C 
BRANCH   2   3
ATOM      3  O   UNL     1       6.605   4.978  17.598  0.00  0.00    +0.000 OA
BRANCH   3   4
ATOM      4  P   UNL     1       5.003   4.894  17.791  0.00  0.00    +0.000 P 
ATOM      5  O   UNL     1       4.221   5.064  16.524  0.00  0.00    +0.000 OA
ATOM      6  O   UNL     1       4.631   5.959  18.940  0.00  0.00    +0.000 OA
ATOM      7  C   UNL     1       3.238   6.062  19.219  0.00  0.00    +0.000 C 
ATOM      8  C   UNL     1       2.784   4.848  20.026  0.00  0.00    +0.000 C 
ATOM      9  C   UNL     1       1.427   5.062  20.664  0.00  0.00    +0.000 C 
ATOM     10  O   UNL     1       0.572   3.977  20.305  0.00  0.00    +0.000 OA
ATOM     11  C   UNL     1       1.183   3.137  19.426  0.00  0.00    +0.000 C 
ATOM     12  O   UNL     1       0.618   2.201  18.889  0.00  0.00    +0.000 OA
ATOM     13  C   UNL     1       2.584   3.570  19.288  0.00  0.00    +0.000 C 
ATOM     14  C   UNL     1       3.562   2.881  18.679  0.00  0.00    +0.000 C 
ATOM     15  C   UNL     1       3.493   1.485  18.130  0.00  0.00    +0.000 C 
ATOM     16  O   UNL     1       4.813   3.457  18.515  0.00  0.00    +0.000 OA
ENDBRANCH   3   4
ENDBRANCH   2   3
ENDBRANCH   1   2
BRANCH   1  17
ATOM     17  C   UNL     1       8.125   8.401  17.830  0.00  0.00    +0.000 C 
BRANCH  17  18
ATOM     18  C   UNL     1       8.808   9.224  18.910  0.00  0.00    +0.000 C 
BRANCH  18  19
ATOM     19  C   UNL     1       9.188  10.597  18.365  0.00  0.00    +0.000 C 
BRANCH  19  20
ATOM     20  C   UNL     1      10.091  11.325  19.350  0.00  0.00    +0.000 C 
BRANCH  20  21
ATOM     21  C   UNL     1      10.022  12.829  19.134  0.00  0.00    +0.000 C 
BRANCH  21  22
ATOM     22  C   UNL     1      11.423  13.401  18.974  0.00  0.00    +0.000 C 
BRANCH  22  23
ATOM     23  C   UNL     1      11.985  13.055  17.604  0.00  0.00    +0.000 C 
BRANCH  23  24
ATOM     24  C   UNL     1      11.652  14.151  16.601  0.00  0.00    +0.000 C 
BRANCH  24  25
ATOM     25  C   UNL     1      11.798  15.521  17.247  0.00  0.00    +0.000 C 
BRANCH  25  26
ATOM     26  C   UNL     1      10.759  16.485  16.692  0.00  0.00    +0.000 C 
BRANCH  26  27
ATOM     27  C   UNL     1      10.102  17.272  17.820  0.00  0.00    +0.000 C 
BRANCH  27  28
ATOM     28  C   UNL     1       9.289  16.346  18.716  0.00  0.00    +0.000 C 
BRANCH  28  30
ATOM     29  C   UNL     1       6.870  16.939  18.992  0.00  0.00    +0.000 C 
ATOM     30  C   UNL     1       7.877  16.156  18.170  0.00  0.00    +0.000 C 
ENDBRANCH  28  30
ENDBRANCH  27  28
ENDBRANCH  26  27
ENDBRANCH  25  26
ENDBRANCH  24  25
ENDBRANCH  23  24
ENDBRANCH  22  23
ENDBRANCH  21  22
ENDBRANCH  20  21
ENDBRANCH  19  20
ENDBRANCH  18  19
ENDBRANCH  17  18
ENDBRANCH   1  17
TORSDOF 16
ENDMDL
MODEL 4
REMARK VINA RESULT:      -5.9      1.166      3.630
REMARK  Name = 
REMARK  18 active torsions:
REMARK  status: ('A' for Active; 'I' for Inactive)
REMARK    1  A    between atoms: C_1  and  C_2
REMARK    2  A    between atoms: C_2  and  C_3
REMARK    3  A    between atoms: C_3  and  C_4
REMARK    4  A    between atoms: C_4  and  C_5
REMARK    5  A    between atoms: C_5  and  C_6
REMARK    6  A    between atoms: C_6  and  C_7
REMARK    7  A    between atoms: C_7  and  C_8
REMARK    8  A    between atoms: C_8  and  C_9
REMARK    9  A    between atoms: C_9  and  C_10
REMARK   10  A    between atoms: C_10  and  C_11
REMARK   11  A    between atoms: C_11  and  C_12
REMARK   12  A    between atoms: C_12  and  C_13
REMARK   13  A    between atoms: C_13  and  C_14
REMARK   14  A    between atoms: C_14  and  C_15
REMARK   15  A    between atoms: C_15  and  C_16
REMARK   16  A    between atoms: C_16  and  O_17
REMARK   17  A    between atoms: O_17  and  P_18
REMARK   18  A    between atoms: C_28  and  C_29
REMARK                            x       y       z     vdW  Elec       q    Type
REMARK                         _______ _______ _______ _____ _____    ______ ____
ROOT
ATOM      1  C   UNL     1       3.141   6.972  17.854  0.00  0.00    +0.000 C 
ENDROOT
BRANCH   1   2
ATOM      2  C   UNL     1       1.927   7.837  18.141  0.00  0.00    +0.000 C 
BRANCH   2   3
ATOM      3  O   UNL     1       2.156   9.218  17.895  0.00  0.00    +0.000 OA
BRANCH   3   4
ATOM      4  P   UNL     1       1.094  10.140  18.692  0.00  0.00    +0.000 P 
ATOM      5  O   UNL     1      -0.303  10.073  18.155  0.00  0.00    +0.000 OA
ATOM      6  O   UNL     1       1.717  11.624  18.717  0.00  0.00    +0.000 OA
ATOM      7  C   UNL     1       0.890  12.599  19.345  0.00  0.00    +0.000 C 
ATOM      8  C   UNL     1       0.942  12.420  20.860  0.00  0.00    +0.000 C 
ATOM      9  C   UNL     1       0.394  13.624  21.597  0.00  0.00    +0.000 C 
ATOM     10  O   UNL     1      -0.609  13.188  22.514  0.00  0.00    +0.000 OA
ATOM     11  C   UNL     1      -0.848  11.854  22.386  0.00  0.00    +0.000 C 
ATOM     12  O   UNL     1      -1.737  11.272  22.980  0.00  0.00    +0.000 OA
ATOM     13  C   UNL     1       0.145  11.306  21.446  0.00  0.00    +0.000 C 
ATOM     14  C   UNL     1       0.374  10.003  21.218  0.00  0.00    +0.000 C 
ATOM     15  C   UNL     1      -0.214   8.829  21.946  0.00  0.00    +0.000 C 
ATOM     16  O   UNL     1       1.258   9.622  20.219  0.00  0.00    +0.000 OA
ENDBRANCH   3   4
ENDBRANCH   2   3
ENDBRANCH   1   2
BRANCH   1  17
ATOM     17  C   UNL     1       3.694   6.476  19.190  0.00  0.00    +0.000 C 
BRANCH  17  18
ATOM     18  C   UNL     1       5.136   6.011  19.078  0.00  0.00    +0.000 C 
BRANCH  18  19
ATOM     19  C   UNL     1       5.802   6.648  17.863  0.00  0.00    +0.000 C 
BRANCH  19  20
ATOM     20  C   UNL     1       7.174   6.033  17.631  0.00  0.00    +0.000 C 
BRANCH  20  21
ATOM     21  C   UNL     1       7.047   4.634  17.046  0.00  0.00    +0.000 C 
BRANCH  21  22
ATOM     22  C   UNL     1       6.217   4.670  15.772  0.00  0.00    +0.000 C 
BRANCH  22  23
ATOM     23  C   UNL     1       4.830   4.100  16.025  0.00  0.00    +0.000 C 
BRANCH  23  24
ATOM     24  C   UNL     1       4.899   2.972  17.045  0.00  0.00    +0.000 C 
BRANCH  24  25
ATOM     25  C   UNL     1       3.657   2.976  17.924  0.00  0.00    +0.000 C 
BRANCH  25  26
ATOM     26  C   UNL     1       2.435   3.395  17.119  0.00  0.00    +0.000 C 
BRANCH  26  27
ATOM     27  C   UNL     1       1.320   3.868  18.045  0.00  0.00    +0.000 C 
BRANCH  27  28
ATOM     28  C   UNL     1       1.157   2.909  19.218  0.00  0.00    +0.000 C 
BRANCH  28  30
ATOM     29  C   UNL     1       1.475   2.780  21.700  0.00  0.00    +0.000 C 
ATOM     30  C   UNL     1       1.067   3.668  20.538  0.00  0.00    +0.000 C 
ENDBRANCH  28  30
ENDBRANCH  27  28
ENDBRANCH  26  27
ENDBRANCH  25  26
ENDBRANCH  24  25
ENDBRANCH  23  24
ENDBRANCH  22  23
ENDBRANCH  21  22
ENDBRANCH  20  21
ENDBRANCH  19  20
ENDBRANCH  18  19
ENDBRANCH  17  18
ENDBRANCH   1  17
TORSDOF 16
ENDMDL
MODEL 5
REMARK VINA RESULT:      -5.8      1.625      2.305
REMARK  Name = 
REMARK  18 active torsions:
REMARK  status: ('A' for Active; 'I' for Inactive)
REMARK    1  A    between atoms: C_1  and  C_2
REMARK    2  A    between atoms: C_2  and  C_3
REMARK    3  A    between atoms: C_3  and  C_4
REMARK    4  A    between atoms: C_4  and  C_5
REMARK    5  A    between atoms: C_5  and  C_6
REMARK    6  A    between atoms: C_6  and  C_7
REMARK    7  A    between atoms: C_7  and  C_8
REMARK    8  A    between atoms: C_8  and  C_9
REMARK    9  A    between atoms: C_9  and  C_10
REMARK   10  A    between atoms: C_10  and  C_11
REMARK   11  A    between atoms: C_11  and  C_12
REMARK   12  A    between atoms: C_12  and  C_13
REMARK   13  A    between atoms: C_13  and  C_14
REMARK   14  A    between atoms: C_14  and  C_15
REMARK   15  A    between atoms: C_15  and  C_16
REMARK   16  A    between atoms: C_16  and  O_17
REMARK   17  A    between atoms: O_17  and  P_18
REMARK   18  A    between atoms: C_28  and  C_29
REMARK                            x       y       z     vdW  Elec       q    Type
REMARK                         _______ _______ _______ _____ _____    ______ ____
ROOT
ATOM      1  C   UNL     1       2.776   8.108  18.128  0.00  0.00    +0.000 C 
ENDROOT
BRANCH   1   2
ATOM      2  C   UNL     1       1.588   9.032  18.318  0.00  0.00    +0.000 C 
BRANCH   2   3
ATOM      3  O   UNL     1       1.888  10.392  18.037  0.00  0.00    +0.000 OA
BRANCH   3   4
ATOM      4  P   UNL     1       0.917  11.390  18.858  0.00  0.00    +0.000 P 
ATOM      5  O   UNL     1       1.014  12.825  18.439  0.00  0.00    +0.000 OA
ATOM      6  O   UNL     1       1.228  11.139  20.418  0.00  0.00    +0.000 OA
ATOM      7  C   UNL     1       0.492  11.973  21.306  0.00  0.00    +0.000 C 
ATOM      8  C   UNL     1      -0.953  11.486  21.391  0.00  0.00    +0.000 C 
ATOM      9  C   UNL     1      -1.688  12.083  22.573  0.00  0.00    +0.000 C 
ATOM     10  O   UNL     1      -2.897  12.684  22.110  0.00  0.00    +0.000 OA
ATOM     11  C   UNL     1      -2.983  12.636  20.753  0.00  0.00    +0.000 C 
ATOM     12  O   UNL     1      -3.868  13.181  20.117  0.00  0.00    +0.000 OA
ATOM     13  C   UNL     1      -1.858  11.826  20.257  0.00  0.00    +0.000 C 
ATOM     14  C   UNL     1      -1.709  11.372  19.003  0.00  0.00    +0.000 C 
ATOM     15  C   UNL     1      -2.694  11.465  17.873  0.00  0.00    +0.000 C 
ATOM     16  O   UNL     1      -0.541  10.718  18.639  0.00  0.00    +0.000 OA
ENDBRANCH   3   4
ENDBRANCH   2   3
ENDBRANCH   1   2
BRANCH   1  17
ATOM     17  C   UNL     1       2.316   6.680  18.420  0.00  0.00    +0.000 C 
BRANCH  17  18
ATOM     18  C   UNL     1       2.685   6.232  19.824  0.00  0.00    +0.000 C 
BRANCH  18  19
ATOM     19  C   UNL     1       1.608   5.307  20.382  0.00  0.00    +0.000 C 
BRANCH  19  20
ATOM     20  C   UNL     1       2.243   4.183  21.188  0.00  0.00    +0.000 C 
BRANCH  20  21
ATOM     21  C   UNL     1       2.131   2.858  20.447  0.00  0.00    +0.000 C 
BRANCH  21  22
ATOM     22  C   UNL     1       1.235   3.012  19.228  0.00  0.00    +0.000 C 
BRANCH  22  23
ATOM     23  C   UNL     1       2.000   2.668  17.959  0.00  0.00    +0.000 C 
BRANCH  23  24
ATOM     24  C   UNL     1       3.467   3.045  18.106  0.00  0.00    +0.000 C 
BRANCH  24  25
ATOM     25  C   UNL     1       3.862   4.061  17.043  0.00  0.00    +0.000 C 
BRANCH  25  26
ATOM     26  C   UNL     1       5.235   3.732  16.476  0.00  0.00    +0.000 C 
BRANCH  26  27
ATOM     27  C   UNL     1       5.753   4.884  15.624  0.00  0.00    +0.000 C 
BRANCH  27  28
ATOM     28  C   UNL     1       7.026   5.465  16.227  0.00  0.00    +0.000 C 
BRANCH  28  30
ATOM     29  C   UNL     1       7.575   5.646  18.665  0.00  0.00    +0.000 C 
ATOM     30  C   UNL     1       7.435   4.703  17.484  0.00  0.00    +0.000 C 
ENDBRANCH  28  30
ENDBRANCH  27  28
ENDBRANCH  26  27
ENDBRANCH  25  26
ENDBRANCH  24  25
ENDBRANCH  23  24
ENDBRANCH  22  23
ENDBRANCH  21  22
ENDBRANCH  20  21
ENDBRANCH  19  20
ENDBRANCH  18  19
ENDBRANCH  17  18
ENDBRANCH   1  17
TORSDOF 16
ENDMDL
MODEL 6
REMARK VINA RESULT:      -5.8      2.506      3.570
REMARK  Name = 
REMARK  18 active torsions:
REMARK  status: ('A' for Active; 'I' for Inactive)
REMARK    1  A    between atoms: C_1  and  C_2
REMARK    2  A    between atoms: C_2  and  C_3
REMARK    3  A    between atoms: C_3  and  C_4
REMARK    4  A    between atoms: C_4  and  C_5
REMARK    5  A    between atoms: C_5  and  C_6
REMARK    6  A    between atoms: C_6  and  C_7
REMARK    7  A    between atoms: C_7  and  C_8
REMARK    8  A    between atoms: C_8  and  C_9
REMARK    9  A    between atoms: C_9  and  C_10
REMARK   10  A    between atoms: C_10  and  C_11
REMARK   11  A    between atoms: C_11  and  C_12
REMARK   12  A    between atoms: C_12  and  C_13
REMARK   13  A    between atoms: C_13  and  C_14
REMARK   14  A    between atoms: C_14  and  C_15
REMARK   15  A    between atoms: C_15  and  C_16
REMARK   16  A    between atoms: C_16  and  O_17
REMARK   17  A    between atoms: O_17  and  P_18
REMARK   18  A    between atoms: C_28  and  C_29
REMARK                            x       y       z     vdW  Elec       q    Type
REMARK                         _______ _______ _______ _____ _____    ______ ____
ROOT
ATOM      1  C   UNL     1       2.371   8.143  18.551  0.00  0.00    +0.000 C 
ENDROOT
BRANCH   1   2
ATOM      2  C   UNL     1       1.707   9.291  17.813  0.00  0.00    +0.000 C 
BRANCH   2   3
ATOM      3  O   UNL     1       1.407  10.396  18.655  0.00  0.00    +0.000 OA
BRANCH   3   4
ATOM      4  P   UNL     1      -0.162  10.430  19.043  0.00  0.00    +0.000 P 
ATOM      5  O   UNL     1      -0.512   9.633  20.262  0.00  0.00    +0.000 OA
ATOM      6  O   UNL     1      -0.963   9.990  17.718  0.00  0.00    +0.000 OA
ATOM      7  C   UNL     1      -2.376   9.916  17.882  0.00  0.00    +0.000 C 
ATOM      8  C   UNL     1      -2.964  11.325  17.917  0.00  0.00    +0.000 C 
ATOM      9  C   UNL     1      -4.466  11.322  17.721  0.00  0.00    +0.000 C 
ATOM     10  O   UNL     1      -5.073  12.045  18.791  0.00  0.00    +0.000 OA
ATOM     11  C   UNL     1      -4.149  12.432  19.712  0.00  0.00    +0.000 C 
ATOM     12  O   UNL     1      -4.437  12.966  20.769  0.00  0.00    +0.000 OA
ATOM     13  C   UNL     1      -2.817  12.098  19.182  0.00  0.00    +0.000 C 
ATOM     14  C   UNL     1      -1.644  12.504  19.693  0.00  0.00    +0.000 C 
ATOM     15  C   UNL     1      -1.422  13.479  20.814  0.00  0.00    +0.000 C 
ATOM     16  O   UNL     1      -0.455  12.020  19.166  0.00  0.00    +0.000 OA
ENDBRANCH   3   4
ENDBRANCH   2   3
ENDBRANCH   1   2
BRANCH   1  17
ATOM     17  C   UNL     1       2.167   6.872  17.728  0.00  0.00    +0.000 C 
BRANCH  17  18
ATOM     18  C   UNL     1       2.268   5.615  18.576  0.00  0.00    +0.000 C 
BRANCH  18  19
ATOM     19  C   UNL     1       2.550   4.404  17.692  0.00  0.00    +0.000 C 
BRANCH  19  20
ATOM     20  C   UNL     1       2.996   3.223  18.541  0.00  0.00    +0.000 C 
BRANCH  20  21
ATOM     21  C   UNL     1       4.079   3.643  19.524  0.00  0.00    +0.000 C 
BRANCH  21  22
ATOM     22  C   UNL     1       5.389   3.886  18.789  0.00  0.00    +0.000 C 
BRANCH  22  23
ATOM     23  C   UNL     1       6.063   5.147  19.308  0.00  0.00    +0.000 C 
BRANCH  23  24
ATOM     24  C   UNL     1       7.461   5.280  18.722  0.00  0.00    +0.000 C 
BRANCH  24  25
ATOM     25  C   UNL     1       7.786   6.743  18.453  0.00  0.00    +0.000 C 
BRANCH  25  26
ATOM     26  C   UNL     1       7.245   7.167  17.095  0.00  0.00    +0.000 C 
BRANCH  26  27
ATOM     27  C   UNL     1       5.724   7.086  17.074  0.00  0.00    +0.000 C 
BRANCH  27  28
ATOM     28  C   UNL     1       5.239   6.472  15.766  0.00  0.00    +0.000 C 
BRANCH  28  30
ATOM     29  C   UNL     1       5.443   4.026  15.262  0.00  0.00    +0.000 C 
ATOM     30  C   UNL     1       6.172   5.356  15.305  0.00  0.00    +0.000 C 
ENDBRANCH  28  30
ENDBRANCH  27  28
ENDBRANCH  26  27
ENDBRANCH  25  26
ENDBRANCH  24  25
ENDBRANCH  23  24
ENDBRANCH  22  23
ENDBRANCH  21  22
ENDBRANCH  20  21
ENDBRANCH  19  20
ENDBRANCH  18  19
ENDBRANCH  17  18
ENDBRANCH   1  17
TORSDOF 16
ENDMDL
MODEL 7
REMARK VINA RESULT:      -5.8      6.955     10.280
REMARK  Name = 
REMARK  18 active torsions:
REMARK  status: ('A' for Active; 'I' for Inactive)
REMARK    1  A    between atoms: C_1  and  C_2
REMARK    2  A    between atoms: C_2  and  C_3
REMARK    3  A    between atoms: C_3  and  C_4
REMARK    4  A    between atoms: C_4  and  C_5
REMARK    5  A    between atoms: C_5  and  C_6
REMARK    6  A    between atoms: C_6  and  C_7
REMARK    7  A    between atoms: C_7  and  C_8
REMARK    8  A    between atoms: C_8  and  C_9
REMARK    9  A    between atoms: C_9  and  C_10
REMARK   10  A    between atoms: C_10  and  C_11
REMARK   11  A    between atoms: C_11  and  C_12
REMARK   12  A    between atoms: C_12  and  C_13
REMARK   13  A    between atoms: C_13  and  C_14
REMARK   14  A    between atoms: C_14  and  C_15
REMARK   15  A    between atoms: C_15  and  C_16
REMARK   16  A    between atoms: C_16  and  O_17
REMARK   17  A    between atoms: O_17  and  P_18
REMARK   18  A    between atoms: C_28  and  C_29
REMARK                            x       y       z     vdW  Elec       q    Type
REMARK                         _______ _______ _______ _____ _____    ______ ____
ROOT
ATOM      1  C   UNL     1       7.603   5.930  18.128  0.00  0.00    +0.000 C 
ENDROOT
BRANCH   1   2
ATOM      2  C   UNL     1       7.384   4.674  17.306  0.00  0.00    +0.000 C 
BRANCH   2   3
ATOM      3  O   UNL     1       6.078   4.589  16.754  0.00  0.00    +0.000 OA
BRANCH   3   4
ATOM      4  P   UNL     1       5.010   4.068  17.849  0.00  0.00    +0.000 P 
ATOM      5  O   UNL     1       5.579   3.876  19.222  0.00  0.00    +0.000 OA
ATOM      6  O   UNL     1       4.336   2.745  17.227  0.00  0.00    +0.000 OA
ATOM      7  C   UNL     1       3.389   2.110  18.081  0.00  0.00    +0.000 C 
ATOM      8  C   UNL     1       2.090   2.912  18.095  0.00  0.00    +0.000 C 
ATOM      9  C   UNL     1       0.935   2.121  18.674  0.00  0.00    +0.000 C 
ATOM     10  O   UNL     1       0.329   2.884  19.717  0.00  0.00    +0.000 OA
ATOM     11  C   UNL     1       1.017   4.034  19.951  0.00  0.00    +0.000 C 
ATOM     12  O   UNL     1       0.760   4.797  20.866  0.00  0.00    +0.000 OA
ATOM     13  C   UNL     1       2.060   4.154  18.918  0.00  0.00    +0.000 C 
ATOM     14  C   UNL     1       2.808   5.244  18.679  0.00  0.00    +0.000 C 
ATOM     15  C   UNL     1       2.667   6.604  19.300  0.00  0.00    +0.000 C 
ATOM     16  O   UNL     1       3.838   5.185  17.752  0.00  0.00    +0.000 OA
ENDBRANCH   3   4
ENDBRANCH   2   3
ENDBRANCH   1   2
BRANCH   1  17
ATOM     17  C   UNL     1       7.703   7.114  17.166  0.00  0.00    +0.000 C 
BRANCH  17  18
ATOM     18  C   UNL     1       7.231   8.412  17.800  0.00  0.00    +0.000 C 
BRANCH  18  19
ATOM     19  C   UNL     1       8.304   9.487  17.659  0.00  0.00    +0.000 C 
BRANCH  19  20
ATOM     20  C   UNL     1       9.101   9.611  18.949  0.00  0.00    +0.000 C 
BRANCH  20  21
ATOM     21  C   UNL     1       9.632  11.026  19.121  0.00  0.00    +0.000 C 
BRANCH  21  22
ATOM     22  C   UNL     1      10.379  11.462  17.870  0.00  0.00    +0.000 C 
BRANCH  22  23
ATOM     23  C   UNL     1      10.283  12.970  17.693  0.00  0.00    +0.000 C 
BRANCH  23  24
ATOM     24  C   UNL     1      11.365  13.462  16.742  0.00  0.00    +0.000 C 
BRANCH  24  25
ATOM     25  C   UNL     1      12.110  14.640  17.353  0.00  0.00    +0.000 C 
BRANCH  25  26
ATOM     26  C   UNL     1      11.441  15.952  16.967  0.00  0.00    +0.000 C 
BRANCH  26  27
ATOM     27  C   UNL     1      10.391  16.341  17.999  0.00  0.00    +0.000 C 
BRANCH  27  28
ATOM     28  C   UNL     1      11.029  17.120  19.144  0.00  0.00    +0.000 C 
BRANCH  28  30
ATOM     29  C   UNL     1      10.741  15.205  20.734  0.00  0.00    +0.000 C 
ATOM     30  C   UNL     1      10.464  16.678  20.490  0.00  0.00    +0.000 C 
ENDBRANCH  28  30
ENDBRANCH  27  28
ENDBRANCH  26  27
ENDBRANCH  25  26
ENDBRANCH  24  25
ENDBRANCH  23  24
ENDBRANCH  22  23
ENDBRANCH  21  22
ENDBRANCH  20  21
ENDBRANCH  19  20
ENDBRANCH  18  19
ENDBRANCH  17  18
ENDBRANCH   1  17
TORSDOF 16
ENDMDL
MODEL 8
REMARK VINA RESULT:      -5.8      2.429      3.578
REMARK  Name = 
REMARK  18 active torsions:
REMARK  status: ('A' for Active; 'I' for Inactive)
REMARK    1  A    between atoms: C_1  and  C_2
REMARK    2  A    between atoms: C_2  and  C_3
REMARK    3  A    between atoms: C_3  and  C_4
REMARK    4  A    between atoms: C_4  and  C_5
REMARK    5  A    between atoms: C_5  and  C_6
REMARK    6  A    between atoms: C_6  and  C_7
REMARK    7  A    between atoms: C_7  and  C_8
REMARK    8  A    between atoms: C_8  and  C_9
REMARK    9  A    between atoms: C_9  and  C_10
REMARK   10  A    between atoms: C_10  and  C_11
REMARK   11  A    between atoms: C_11  and  C_12
REMARK   12  A    between atoms: C_12  and  C_13
REMARK   13  A    between atoms: C_13  and  C_14
REMARK   14  A    between atoms: C_14  and  C_15
REMARK   15  A    between atoms: C_15  and  C_16
REMARK   16  A    between atoms: C_16  and  O_17
REMARK   17  A    between atoms: O_17  and  P_18
REMARK   18  A    between atoms: C_28  and  C_29
REMARK                            x       y       z     vdW  Elec       q    Type
REMARK                         _______ _______ _______ _____ _____    ______ ____
ROOT
ATOM      1  C   UNL     1       2.099   8.042  18.739  0.00  0.00    +0.000 C 
ENDROOT
BRANCH   1   2
ATOM      2  C   UNL     1       1.829   9.183  17.776  0.00  0.00    +0.000 C 
BRANCH   2   3
ATOM      3  O   UNL     1       1.479  10.394  18.430  0.00  0.00    +0.000 OA
BRANCH   3   4
ATOM      4  P   UNL     1      -0.083  10.408  18.846  0.00  0.00    +0.000 P 
ATOM      5  O   UNL     1      -0.413   9.548  20.027  0.00  0.00    +0.000 OA
ATOM      6  O   UNL     1      -0.906  10.038  17.513  0.00  0.00    +0.000 OA
ATOM      7  C   UNL     1      -2.316   9.956  17.697  0.00  0.00    +0.000 C 
ATOM      8  C   UNL     1      -2.903  11.360  17.816  0.00  0.00    +0.000 C 
ATOM      9  C   UNL     1      -4.408  11.367  17.645  0.00  0.00    +0.000 C 
ATOM     10  O   UNL     1      -4.997  12.034  18.762  0.00  0.00    +0.000 OA
ATOM     11  C   UNL     1      -4.057  12.371  19.686  0.00  0.00    +0.000 C 
ATOM     12  O   UNL     1      -4.327  12.849  20.774  0.00  0.00    +0.000 OA
ATOM     13  C   UNL     1      -2.734  12.066  19.117  0.00  0.00    +0.000 C 
ATOM     14  C   UNL     1      -1.552  12.444  19.629  0.00  0.00    +0.000 C 
ATOM     15  C   UNL     1      -1.311  13.359  20.796  0.00  0.00    +0.000 C 
ATOM     16  O   UNL     1      -0.373  11.989  19.057  0.00  0.00    +0.000 OA
ENDBRANCH   3   4
ENDBRANCH   2   3
ENDBRANCH   1   2
BRANCH   1  17
ATOM     17  C   UNL     1       2.520   6.822  17.920  0.00  0.00    +0.000 C 
BRANCH  17  18
ATOM     18  C   UNL     1       1.818   5.553  18.375  0.00  0.00    +0.000 C 
BRANCH  18  19
ATOM     19  C   UNL     1       2.713   4.341  18.135  0.00  0.00    +0.000 C 
BRANCH  19  20
ATOM     20  C   UNL     1       3.308   3.856  19.448  0.00  0.00    +0.000 C 
BRANCH  20  21
ATOM     21  C   UNL     1       4.826   3.787  19.360  0.00  0.00    +0.000 C 
BRANCH  21  22
ATOM     22  C   UNL     1       5.407   5.184  19.204  0.00  0.00    +0.000 C 
BRANCH  22  23
ATOM     23  C   UNL     1       6.268   5.264  17.953  0.00  0.00    +0.000 C 
BRANCH  23  24
ATOM     24  C   UNL     1       5.836   6.439  17.087  0.00  0.00    +0.000 C 
BRANCH  24  25
ATOM     25  C   UNL     1       5.428   5.955  15.702  0.00  0.00    +0.000 C 
BRANCH  25  26
ATOM     26  C   UNL     1       5.305   4.438  15.684  0.00  0.00    +0.000 C 
BRANCH  26  27
ATOM     27  C   UNL     1       6.239   3.836  14.642  0.00  0.00    +0.000 C 
BRANCH  27  28
ATOM     28  C   UNL     1       7.132   4.915  14.039  0.00  0.00    +0.000 C 
BRANCH  28  30
ATOM     29  C   UNL     1       6.535   3.515  12.049  0.00  0.00    +0.000 C 
ATOM     30  C   UNL     1       7.430   4.624  12.572  0.00  0.00    +0.000 C 
ENDBRANCH  28  30
ENDBRANCH  27  28
ENDBRANCH  26  27
ENDBRANCH  25  26
ENDBRANCH  24  25
ENDBRANCH  23  24
ENDBRANCH  22  23
ENDBRANCH  21  22
ENDBRANCH  20  21
ENDBRANCH  19  20
ENDBRANCH  18  19
ENDBRANCH  17  18
ENDBRANCH   1  17
TORSDOF 16
ENDMDL
MODEL 9
REMARK VINA RESULT:      -5.8      2.596      3.305
REMARK  Name = 
REMARK  18 active torsions:
REMARK  status: ('A' for Active; 'I' for Inactive)
REMARK    1  A    between atoms: C_1  and  C_2
REMARK    2  A    between atoms: C_2  and  C_3
REMARK    3  A    between atoms: C_3  and  C_4
REMARK    4  A    between atoms: C_4  and  C_5
REMARK    5  A    between atoms: C_5  and  C_6
REMARK    6  A    between atoms: C_6  and  C_7
REMARK    7  A    between atoms: C_7  and  C_8
REMARK    8  A    between atoms: C_8  and  C_9
REMARK    9  A    between atoms: C_9  and  C_10
REMARK   10  A    between atoms: C_10  and  C_11
REMARK   11  A    between atoms: C_11  and  C_12
REMARK   12  A    between atoms: C_12  and  C_13
REMARK   13  A    between atoms: C_13  and  C_14
REMARK   14  A    between atoms: C_14  and  C_15
REMARK   15  A    between atoms: C_15  and  C_16
REMARK   16  A    between atoms: C_16  and  O_17
REMARK   17  A    between atoms: O_17  and  P_18
REMARK   18  A    between atoms: C_28  and  C_29
REMARK                            x       y       z     vdW  Elec       q    Type
REMARK                         _______ _______ _______ _____ _____    ______ ____
ROOT
ATOM      1  C   UNL     1       2.577   9.112  18.121  0.00  0.00    +0.000 C 
ENDROOT
BRANCH   1   2
ATOM      2  C   UNL     1       1.725  10.340  17.859  0.00  0.00    +0.000 C 
BRANCH   2   3
ATOM      3  O   UNL     1       1.160  10.890  19.040  0.00  0.00    +0.000 OA
BRANCH   3   4
ATOM      4  P   UNL     1      -0.440  10.661  19.089  0.00  0.00    +0.000 P 
ATOM      5  O   UNL     1      -0.889   9.680  20.129  0.00  0.00    +0.000 OA
ATOM      6  O   UNL     1      -0.886  10.279  17.591  0.00  0.00    +0.000 OA
ATOM      7  C   UNL     1      -2.273   9.991  17.445  0.00  0.00    +0.000 C 
ATOM      8  C   UNL     1      -3.075  11.290  17.483  0.00  0.00    +0.000 C 
ATOM      9  C   UNL     1      -4.489  11.104  16.974  0.00  0.00    +0.000 C 
ATOM     10  O   UNL     1      -5.401  11.602  17.953  0.00  0.00    +0.000 OA
ATOM     11  C   UNL     1      -4.749  11.997  19.080  0.00  0.00    +0.000 C 
ATOM     12  O   UNL     1      -5.319  12.353  20.096  0.00  0.00    +0.000 OA
ATOM     13  C   UNL     1      -3.303  11.917  18.815  0.00  0.00    +0.000 C 
ATOM     14  C   UNL     1      -2.332  12.415  19.598  0.00  0.00    +0.000 C 
ATOM     15  C   UNL     1      -2.493  13.268  20.824  0.00  0.00    +0.000 C 
ATOM     16  O   UNL     1      -1.002  12.168  19.292  0.00  0.00    +0.000 OA
ENDBRANCH   3   4
ENDBRANCH   2   3
ENDBRANCH   1   2
BRANCH   1  17
ATOM     17  C   UNL     1       1.831   7.895  17.575  0.00  0.00    +0.000 C 
BRANCH  17  18
ATOM     18  C   UNL     1       2.248   6.608  18.266  0.00  0.00    +0.000 C 
BRANCH  18  19
ATOM     19  C   UNL     1       2.528   6.869  19.742  0.00  0.00    +0.000 C 
BRANCH  19  20
ATOM     20  C   UNL     1       1.577   6.059  20.612  0.00  0.00    +0.000 C 
BRANCH  20  21
ATOM     21  C   UNL     1       2.078   4.632  20.774  0.00  0.00    +0.000 C 
BRANCH  21  22
ATOM     22  C   UNL     1       0.973   3.645  20.428  0.00  0.00    +0.000 C 
BRANCH  22  23
ATOM     23  C   UNL     1       1.241   2.999  19.077  0.00  0.00    +0.000 C 
BRANCH  23  24
ATOM     24  C   UNL     1       2.737   2.952  18.800  0.00  0.00    +0.000 C 
BRANCH  24  25
ATOM     25  C   UNL     1       3.035   3.483  17.405  0.00  0.00    +0.000 C 
BRANCH  25  26
ATOM     26  C   UNL     1       4.421   3.047  16.953  0.00  0.00    +0.000 C 
BRANCH  26  27
ATOM     27  C   UNL     1       5.385   4.226  16.966  0.00  0.00    +0.000 C 
BRANCH  27  28
ATOM     28  C   UNL     1       5.320   4.984  15.645  0.00  0.00    +0.000 C 
BRANCH  28  30
ATOM     29  C   UNL     1       5.758   6.914  17.182  0.00  0.00    +0.000 C 
ATOM     30  C   UNL     1       5.114   6.477  15.879  0.00  0.00    +0.000 C 
ENDBRANCH  28  30
ENDBRANCH  27  28
ENDBRANCH  26  27
ENDBRANCH  25  26
ENDBRANCH  24  25
ENDBRANCH  23  24
ENDBRANCH  22  23
ENDBRANCH  21  22
ENDBRANCH  20  21
ENDBRANCH  19  20
ENDBRANCH  18  19
ENDBRANCH  17  18
ENDBRANCH   1  17
TORSDOF 16
ENDMDL
