MODEL 1
REMARK VINA RESULT:      -7.7      0.000      0.000
REMARK  Name = 
REMARK  4 active torsions:
REMARK  status: ('A' for Active; 'I' for Inactive)
REMARK    1  A    between atoms: C_1  and  O_2
REMARK    2  A    between atoms: O_2  and  C_3
REMARK    3  A    between atoms: C_12  and  C_13
REMARK    4  A    between atoms: N_19  and  C_20
REMARK                            x       y       z     vdW  Elec       q    Type
REMARK                         _______ _______ _______ _____ _____    ______ ____
ROOT
ATOM      1  C   UNL     1       2.471   4.899  20.608  0.00  0.00    +0.000 A 
ATOM      2  C   UNL     1       1.828   6.141  20.701  0.00  0.00    +0.000 A 
ATOM      3  C   UNL     1       2.096   7.182  19.787  0.00  0.00    +0.000 A 
ATOM      4  C   UNL     1       2.988   6.996  18.743  0.00  0.00    +0.000 A 
ATOM      5  C   UNL     1       3.603   5.773  18.674  0.00  0.00    +0.000 A 
ATOM      6  C   UNL     1       3.403   4.713  19.589  0.00  0.00    +0.000 A 
ATOM      7  C   UNL     1       4.205   3.478  19.178  0.00  0.00    +0.000 C 
ATOM      8  C   UNL     1       4.765   3.924  17.890  0.00  0.00    +0.000 A 
ATOM      9  C   UNL     1       5.405   3.346  16.758  0.00  0.00    +0.000 A 
ATOM     10  C   UNL     1       5.491   4.461  15.788  0.00  0.00    +0.000 A 
ATOM     11  N   UNL     1       4.868   5.621  16.428  0.00  0.00    +0.000 N 
ATOM     12  C   UNL     1       4.782   6.995  15.982  0.00  0.00    +0.000 C 
ATOM     13  N   UNL     1       4.426   5.247  17.629  0.00  0.00    +0.000 N 
ENDROOT
BRANCH  10  14
ATOM     14  C   UNL     1       6.123   4.359  14.423  0.00  0.00    +0.000 A 
ATOM     15  C   UNL     1       5.590   3.530  13.430  0.00  0.00    +0.000 A 
ATOM     16  C   UNL     1       6.149   3.518  12.148  0.00  0.00    +0.000 A 
ATOM     17  C   UNL     1       7.256   4.310  11.857  0.00  0.00    +0.000 A 
ATOM     18  C   UNL     1       7.820   5.103  12.854  0.00  0.00    +0.000 A 
ATOM     19  C   UNL     1       7.262   5.122  14.135  0.00  0.00    +0.000 A 
ENDBRANCH  10  14
BRANCH   1  21
ATOM     20  C   UNL     1       1.194   2.913  21.027  0.00  0.00    +0.000 C 
ATOM     21  O   UNL     1       2.200   3.843  21.422  0.00  0.00    +0.000 OA
ENDBRANCH   1  21
TORSDOF 2
ENDMDL
MODEL 2
REMARK VINA RESULT:      -7.6      0.685      1.253
REMARK  Name = 
REMARK  4 active torsions:
REMARK  status: ('A' for Active; 'I' for Inactive)
REMARK    1  A    between atoms: C_1  and  O_2
REMARK    2  A    between atoms: O_2  and  C_3
REMARK    3  A    between atoms: C_12  and  C_13
REMARK    4  A    between atoms: N_19  and  C_20
REMARK                            x       y       z     vdW  Elec       q    Type
REMARK                         _______ _______ _______ _____ _____    ______ ____
ROOT
ATOM      1  C   UNL     1       1.800   4.315  20.256  0.00  0.00    +0.000 A 
ATOM      2  C   UNL     1       1.448   5.620  20.627  0.00  0.00    +0.000 A 
ATOM      3  C   UNL     1       2.056   6.746  20.032  0.00  0.00    +0.000 A 
ATOM      4  C   UNL     1       3.005   6.595  19.035  0.00  0.00    +0.000 A 
ATOM      5  C   UNL     1       3.333   5.309  18.691  0.00  0.00    +0.000 A 
ATOM      6  C   UNL     1       2.786   4.147  19.286  0.00  0.00    +0.000 A 
ATOM      7  C   UNL     1       3.333   2.884  18.621  0.00  0.00    +0.000 C 
ATOM      8  C   UNL     1       4.134   3.467  17.530  0.00  0.00    +0.000 A 
ATOM      9  C   UNL     1       4.763   3.031  16.331  0.00  0.00    +0.000 A 
ATOM     10  C   UNL     1       5.219   4.285  15.689  0.00  0.00    +0.000 A 
ATOM     11  N   UNL     1       4.800   5.380  16.567  0.00  0.00    +0.000 N 
ATOM     12  C   UNL     1       5.082   6.797  16.488  0.00  0.00    +0.000 C 
ATOM     13  N   UNL     1       4.138   4.856  17.600  0.00  0.00    +0.000 N 
ENDROOT
BRANCH  10  14
ATOM     14  C   UNL     1       5.976   4.353  14.388  0.00  0.00    +0.000 A 
ATOM     15  C   UNL     1       7.120   5.146  14.247  0.00  0.00    +0.000 A 
ATOM     16  C   UNL     1       7.849   5.126  13.053  0.00  0.00    +0.000 A 
ATOM     17  C   UNL     1       7.427   4.336  11.987  0.00  0.00    +0.000 A 
ATOM     18  C   UNL     1       6.264   3.580  12.104  0.00  0.00    +0.000 A 
ATOM     19  C   UNL     1       5.535   3.593  13.297  0.00  0.00    +0.000 A 
ENDBRANCH  10  14
BRANCH   1  21
ATOM     20  C   UNL     1       1.738   2.593  21.925  0.00  0.00    +0.000 C 
ATOM     21  O   UNL     1       1.200   3.198  20.751  0.00  0.00    +0.000 OA
ENDBRANCH   1  21
TORSDOF 2
ENDMDL
MODEL 3
REMARK VINA RESULT:      -7.5      3.796      7.136
REMARK  Name = 
REMARK  4 active torsions:
REMARK  status: ('A' for Active; 'I' for Inactive)
REMARK    1  A    between atoms: C_1  and  O_2
REMARK    2  A    between atoms: O_2  and  C_3
REMARK    3  A    between atoms: C_12  and  C_13
REMARK    4  A    between atoms: N_19  and  C_20
REMARK                            x       y       z     vdW  Elec       q    Type
REMARK                         _______ _______ _______ _____ _____    ______ ____
ROOT
ATOM      1  C   UNL     1       3.252   3.812  19.094  0.00  0.00    +0.000 A 
ATOM      2  C   UNL     1       2.770   3.183  20.250  0.00  0.00    +0.000 A 
ATOM      3  C   UNL     1       2.117   3.910  21.268  0.00  0.00    +0.000 A 
ATOM      4  C   UNL     1       1.905   5.274  21.140  0.00  0.00    +0.000 A 
ATOM      5  C   UNL     1       2.386   5.864  20.001  0.00  0.00    +0.000 A 
ATOM      6  C   UNL     1       3.085   5.190  18.972  0.00  0.00    +0.000 A 
ATOM      7  C   UNL     1       3.423   6.144  17.826  0.00  0.00    +0.000 C 
ATOM      8  C   UNL     1       2.739   7.370  18.271  0.00  0.00    +0.000 A 
ATOM      9  C   UNL     1       2.347   8.621  17.720  0.00  0.00    +0.000 A 
ATOM     10  C   UNL     1       1.527   9.241  18.786  0.00  0.00    +0.000 A 
ATOM     11  N   UNL     1       1.486   8.282  19.892  0.00  0.00    +0.000 N 
ATOM     12  C   UNL     1       0.927   8.417  21.220  0.00  0.00    +0.000 C 
ATOM     13  N   UNL     1       2.169   7.196  19.528  0.00  0.00    +0.000 N 
ENDROOT
BRANCH  10  14
ATOM     14  C   UNL     1       0.895  10.606  18.693  0.00  0.00    +0.000 A 
ATOM     15  C   UNL     1       1.666  11.773  18.708  0.00  0.00    +0.000 A 
ATOM     16  C   UNL     1       1.060  13.021  18.538  0.00  0.00    +0.000 A 
ATOM     17  C   UNL     1      -0.320  13.115  18.378  0.00  0.00    +0.000 A 
ATOM     18  C   UNL     1      -1.099  11.961  18.407  0.00  0.00    +0.000 A 
ATOM     19  C   UNL     1      -0.497  10.711  18.573  0.00  0.00    +0.000 A 
ENDBRANCH  10  14
BRANCH   1  21
ATOM     20  C   UNL     1       3.485   1.782  17.839  0.00  0.00    +0.000 C 
ATOM     21  O   UNL     1       3.829   3.149  18.055  0.00  0.00    +0.000 OA
ENDBRANCH   1  21
TORSDOF 2
ENDMDL
MODEL 4
REMARK VINA RESULT:      -7.4      3.801      7.045
REMARK  Name = 
REMARK  4 active torsions:
REMARK  status: ('A' for Active; 'I' for Inactive)
REMARK    1  A    between atoms: C_1  and  O_2
REMARK    2  A    between atoms: O_2  and  C_3
REMARK    3  A    between atoms: C_12  and  C_13
REMARK    4  A    between atoms: N_19  and  C_20
REMARK                            x       y       z     vdW  Elec       q    Type
REMARK                         _______ _______ _______ _____ _____    ______ ____
ROOT
ATOM      1  C   UNL     1       3.220   3.786  19.093  0.00  0.00    +0.000 A 
ATOM      2  C   UNL     1       2.736   3.176  20.258  0.00  0.00    +0.000 A 
ATOM      3  C   UNL     1       2.094   3.922  21.271  0.00  0.00    +0.000 A 
ATOM      4  C   UNL     1       1.897   5.286  21.128  0.00  0.00    +0.000 A 
ATOM      5  C   UNL     1       2.380   5.858  19.980  0.00  0.00    +0.000 A 
ATOM      6  C   UNL     1       3.068   5.164  18.956  0.00  0.00    +0.000 A 
ATOM      7  C   UNL     1       3.413   6.100  17.798  0.00  0.00    +0.000 C 
ATOM      8  C   UNL     1       2.744   7.339  18.231  0.00  0.00    +0.000 A 
ATOM      9  C   UNL     1       2.363   8.588  17.667  0.00  0.00    +0.000 A 
ATOM     10  C   UNL     1       1.554   9.229  18.728  0.00  0.00    +0.000 A 
ATOM     11  N   UNL     1       1.506   8.284  19.846  0.00  0.00    +0.000 N 
ATOM     12  C   UNL     1       0.955   8.440  21.174  0.00  0.00    +0.000 C 
ATOM     13  N   UNL     1       2.176   7.186  19.492  0.00  0.00    +0.000 N 
ENDROOT
BRANCH  10  14
ATOM     14  C   UNL     1       0.937  10.600  18.622  0.00  0.00    +0.000 A 
ATOM     15  C   UNL     1      -0.450  10.776  18.564  0.00  0.00    +0.000 A 
ATOM     16  C   UNL     1      -0.997  12.063  18.549  0.00  0.00    +0.000 A 
ATOM     17  C   UNL     1      -0.165  13.180  18.563  0.00  0.00    +0.000 A 
ATOM     18  C   UNL     1       1.217  13.012  18.574  0.00  0.00    +0.000 A 
ATOM     19  C   UNL     1       1.768  11.727  18.595  0.00  0.00    +0.000 A 
ENDBRANCH  10  14
BRANCH   1  21
ATOM     20  C   UNL     1       3.551   1.701  17.955  0.00  0.00    +0.000 C 
ATOM     21  O   UNL     1       3.786   3.104  18.060  0.00  0.00    +0.000 OA
ENDBRANCH   1  21
TORSDOF 2
ENDMDL
MODEL 5
REMARK VINA RESULT:      -7.4      3.930      6.125
REMARK  Name = 
REMARK  4 active torsions:
REMARK  status: ('A' for Active; 'I' for Inactive)
REMARK    1  A    between atoms: C_1  and  O_2
REMARK    2  A    between atoms: O_2  and  C_3
REMARK    3  A    between atoms: C_12  and  C_13
REMARK    4  A    between atoms: N_19  and  C_20
REMARK                            x       y       z     vdW  Elec       q    Type
REMARK                         _______ _______ _______ _____ _____    ______ ____
ROOT
ATOM      1  C   UNL     1      -0.339  11.427  21.253  0.00  0.00    +0.000 A 
ATOM      2  C   UNL     1      -0.577  11.033  22.576  0.00  0.00    +0.000 A 
ATOM      3  C   UNL     1      -0.273   9.729  23.024  0.00  0.00    +0.000 A 
ATOM      4  C   UNL     1       0.300   8.802  22.169  0.00  0.00    +0.000 A 
ATOM      5  C   UNL     1       0.521   9.212  20.880  0.00  0.00    +0.000 A 
ATOM      6  C   UNL     1       0.196  10.492  20.370  0.00  0.00    +0.000 A 
ATOM      7  C   UNL     1       0.633  10.625  18.911  0.00  0.00    +0.000 C 
ATOM      8  C   UNL     1       1.334   9.345  18.711  0.00  0.00    +0.000 A 
ATOM      9  C   UNL     1       2.220   8.762  17.763  0.00  0.00    +0.000 A 
ATOM     10  C   UNL     1       2.621   7.481  18.388  0.00  0.00    +0.000 A 
ATOM     11  N   UNL     1       1.942   7.418  19.684  0.00  0.00    +0.000 N 
ATOM     12  C   UNL     1       1.884   6.345  20.653  0.00  0.00    +0.000 C 
ATOM     13  N   UNL     1       1.241   8.542  19.842  0.00  0.00    +0.000 N 
ENDROOT
BRANCH  10  14
ATOM     14  C   UNL     1       3.544   6.472  17.753  0.00  0.00    +0.000 A 
ATOM     15  C   UNL     1       3.229   5.110  17.721  0.00  0.00    +0.000 A 
ATOM     16  C   UNL     1       4.065   4.209  17.054  0.00  0.00    +0.000 A 
ATOM     17  C   UNL     1       5.231   4.657  16.438  0.00  0.00    +0.000 A 
ATOM     18  C   UNL     1       5.574   6.005  16.506  0.00  0.00    +0.000 A 
ATOM     19  C   UNL     1       4.739   6.910  17.168  0.00  0.00    +0.000 A 
ENDBRANCH  10  14
BRANCH   1  21
ATOM     20  C   UNL     1      -1.853  13.035  20.316  0.00  0.00    +0.000 C 
ATOM     21  O   UNL     1      -0.552  12.689  20.789  0.00  0.00    +0.000 OA
ENDBRANCH   1  21
TORSDOF 2
ENDMDL
MODEL 6
REMARK VINA RESULT:      -7.3      3.970      6.260
REMARK  Name = 
REMARK  4 active torsions:
REMARK  status: ('A' for Active; 'I' for Inactive)
REMARK    1  A    between atoms: C_1  and  O_2
REMARK    2  A    between atoms: O_2  and  C_3
REMARK    3  A    between atoms: C_12  and  C_13
REMARK    4  A    between atoms: N_19  and  C_20
REMARK                            x       y       z     vdW  Elec       q    Type
REMARK                         _______ _______ _______ _____ _____    ______ ____
ROOT
ATOM      1  C   UNL     1      -0.423  11.434  21.312  0.00  0.00    +0.000 A 
ATOM      2  C   UNL     1      -0.643  11.022  22.634  0.00  0.00    +0.000 A 
ATOM      3  C   UNL     1      -0.312   9.720  23.067  0.00  0.00    +0.000 A 
ATOM      4  C   UNL     1       0.273   8.813  22.199  0.00  0.00    +0.000 A 
ATOM      5  C   UNL     1       0.478   9.240  20.912  0.00  0.00    +0.000 A 
ATOM      6  C   UNL     1       0.124  10.517  20.417  0.00  0.00    +0.000 A 
ATOM      7  C   UNL     1       0.549  10.673  18.957  0.00  0.00    +0.000 C 
ATOM      8  C   UNL     1       1.273   9.409  18.739  0.00  0.00    +0.000 A 
ATOM      9  C   UNL     1       2.163   8.851  17.780  0.00  0.00    +0.000 A 
ATOM     10  C   UNL     1       2.593   7.572  18.390  0.00  0.00    +0.000 A 
ATOM     11  N   UNL     1       1.924   7.485  19.690  0.00  0.00    +0.000 N 
ATOM     12  C   UNL     1       1.893   6.401  20.649  0.00  0.00    +0.000 C 
ATOM     13  N   UNL     1       1.203   8.593  19.863  0.00  0.00    +0.000 N 
ENDROOT
BRANCH  10  14
ATOM     14  C   UNL     1       3.531   6.588  17.739  0.00  0.00    +0.000 A 
ATOM     15  C   UNL     1       4.726   7.001  17.141  0.00  0.00    +0.000 A 
ATOM     16  C   UNL     1       5.615   6.057  16.618  0.00  0.00    +0.000 A 
ATOM     17  C   UNL     1       5.306   4.700  16.666  0.00  0.00    +0.000 A 
ATOM     18  C   UNL     1       4.098   4.285  17.219  0.00  0.00    +0.000 A 
ATOM     19  C   UNL     1       3.208   5.225  17.747  0.00  0.00    +0.000 A 
ENDBRANCH  10  14
BRANCH   1  21
ATOM     20  C   UNL     1      -1.968  13.016  20.385  0.00  0.00    +0.000 C 
ATOM     21  O   UNL     1      -0.663  12.696  20.862  0.00  0.00    +0.000 OA
ENDBRANCH   1  21
TORSDOF 2
ENDMDL
MODEL 7
REMARK VINA RESULT:      -7.2      4.113      6.542
REMARK  Name = 
REMARK  4 active torsions:
REMARK  status: ('A' for Active; 'I' for Inactive)
REMARK    1  A    between atoms: C_1  and  O_2
REMARK    2  A    between atoms: O_2  and  C_3
REMARK    3  A    between atoms: C_12  and  C_13
REMARK    4  A    between atoms: N_19  and  C_20
REMARK                            x       y       z     vdW  Elec       q    Type
REMARK                         _______ _______ _______ _____ _____    ______ ____
ROOT
ATOM      1  C   UNL     1      -0.904  11.271  21.714  0.00  0.00    +0.000 A 
ATOM      2  C   UNL     1      -1.201  12.227  20.733  0.00  0.00    +0.000 A 
ATOM      3  C   UNL     1      -0.610  12.178  19.452  0.00  0.00    +0.000 A 
ATOM      4  C   UNL     1       0.265  11.158  19.114  0.00  0.00    +0.000 A 
ATOM      5  C   UNL     1       0.538  10.237  20.091  0.00  0.00    +0.000 A 
ATOM      6  C   UNL     1       0.007  10.265  21.403  0.00  0.00    +0.000 A 
ATOM      7  C   UNL     1       0.478   9.054  22.208  0.00  0.00    +0.000 C 
ATOM      8  C   UNL     1       1.215   8.302  21.178  0.00  0.00    +0.000 A 
ATOM      9  C   UNL     1       1.749   6.995  21.002  0.00  0.00    +0.000 A 
ATOM     10  C   UNL     1       2.188   6.975  19.588  0.00  0.00    +0.000 A 
ATOM     11  N   UNL     1       1.856   8.286  19.029  0.00  0.00    +0.000 N 
ATOM     12  C   UNL     1       2.164   8.851  17.732  0.00  0.00    +0.000 C 
ATOM     13  N   UNL     1       1.256   9.005  19.979  0.00  0.00    +0.000 N 
ENDROOT
BRANCH  10  14
ATOM     14  C   UNL     1       2.855   5.801  18.917  0.00  0.00    +0.000 A 
ATOM     15  C   UNL     1       4.186   5.466  19.182  0.00  0.00    +0.000 A 
ATOM     16  C   UNL     1       4.753   4.324  18.608  0.00  0.00    +0.000 A 
ATOM     17  C   UNL     1       4.004   3.525  17.747  0.00  0.00    +0.000 A 
ATOM     18  C   UNL     1       2.693   3.878  17.444  0.00  0.00    +0.000 A 
ATOM     19  C   UNL     1       2.120   5.016  18.019  0.00  0.00    +0.000 A 
ENDBRANCH  10  14
BRANCH   1  21
ATOM     20  C   UNL     1      -2.623  12.074  23.182  0.00  0.00    +0.000 C 
ATOM     21  O   UNL     1      -1.495  11.236  22.940  0.00  0.00    +0.000 OA
ENDBRANCH   1  21
TORSDOF 2
ENDMDL
MODEL 8
REMARK VINA RESULT:      -7.1      4.003      6.254
REMARK  Name = 
REMARK  4 active torsions:
REMARK  status: ('A' for Active; 'I' for Inactive)
REMARK    1  A    between atoms: C_1  and  O_2
REMARK    2  A    between atoms: O_2  and  C_3
REMARK    3  A    between atoms: C_12  and  C_13
REMARK    4  A    between atoms: N_19  and  C_20
REMARK                            x       y       z     vdW  Elec       q    Type
REMARK                         _______ _______ _______ _____ _____    ______ ____
ROOT
ATOM      1  C   UNL     1      -0.766  11.147  21.689  0.00  0.00    +0.000 A 
ATOM      2  C   UNL     1      -0.965  12.187  20.771  0.00  0.00    +0.000 A 
ATOM      3  C   UNL     1      -0.317  12.200  19.517  0.00  0.00    +0.000 A 
ATOM      4  C   UNL     1       0.519  11.160  19.142  0.00  0.00    +0.000 A 
ATOM      5  C   UNL     1       0.696  10.156  20.057  0.00  0.00    +0.000 A 
ATOM      6  C   UNL     1       0.106  10.117  21.343  0.00  0.00    +0.000 A 
ATOM      7  C   UNL     1       0.474   8.826  22.074  0.00  0.00    +0.000 C 
ATOM      8  C   UNL     1       1.219   8.112  21.023  0.00  0.00    +0.000 A 
ATOM      9  C   UNL     1       1.692   6.794  20.772  0.00  0.00    +0.000 A 
ATOM     10  C   UNL     1       2.197   6.853  19.382  0.00  0.00    +0.000 A 
ATOM     11  N   UNL     1       1.960   8.219  18.909  0.00  0.00    +0.000 N 
ATOM     12  C   UNL     1       2.360   8.859  17.674  0.00  0.00    +0.000 C 
ATOM     13  N   UNL     1       1.354   8.898  19.884  0.00  0.00    +0.000 N 
ENDROOT
BRANCH  10  14
ATOM     14  C   UNL     1       2.833   5.696  18.653  0.00  0.00    +0.000 A 
ATOM     15  C   UNL     1       2.068   4.645  18.140  0.00  0.00    +0.000 A 
ATOM     16  C   UNL     1       2.675   3.627  17.398  0.00  0.00    +0.000 A 
ATOM     17  C   UNL     1       4.052   3.639  17.187  0.00  0.00    +0.000 A 
ATOM     18  C   UNL     1       4.826   4.659  17.733  0.00  0.00    +0.000 A 
ATOM     19  C   UNL     1       4.222   5.680  18.472  0.00  0.00    +0.000 A 
ENDBRANCH  10  14
BRANCH   1  21
ATOM     20  C   UNL     1      -2.311  12.099  23.257  0.00  0.00    +0.000 C 
ATOM     21  O   UNL     1      -1.416  11.054  22.881  0.00  0.00    +0.000 OA
ENDBRANCH   1  21
TORSDOF 2
ENDMDL
MODEL 9
REMARK VINA RESULT:      -7.0      3.388      7.633
REMARK  Name = 
REMARK  4 active torsions:
REMARK  status: ('A' for Active; 'I' for Inactive)
REMARK    1  A    between atoms: C_1  and  O_2
REMARK    2  A    between atoms: O_2  and  C_3
REMARK    3  A    between atoms: C_12  and  C_13
REMARK    4  A    between atoms: N_19  and  C_20
REMARK                            x       y       z     vdW  Elec       q    Type
REMARK                         _______ _______ _______ _____ _____    ______ ____
ROOT
ATOM      1  C   UNL     1       4.341   4.513  17.749  0.00  0.00    +0.000 A 
ATOM      2  C   UNL     1       4.147   3.506  18.704  0.00  0.00    +0.000 A 
ATOM      3  C   UNL     1       3.448   3.752  19.905  0.00  0.00    +0.000 A 
ATOM      4  C   UNL     1       2.903   5.000  20.164  0.00  0.00    +0.000 A 
ATOM      5  C   UNL     1       3.107   5.967  19.215  0.00  0.00    +0.000 A 
ATOM      6  C   UNL     1       3.837   5.784  18.016  0.00  0.00    +0.000 A 
ATOM      7  C   UNL     1       3.815   7.054  17.165  0.00  0.00    +0.000 C 
ATOM      8  C   UNL     1       2.907   7.904  17.954  0.00  0.00    +0.000 A 
ATOM      9  C   UNL     1       2.170   9.109  17.782  0.00  0.00    +0.000 A 
ATOM     10  C   UNL     1       1.341   9.200  19.005  0.00  0.00    +0.000 A 
ATOM     11  N   UNL     1       1.646   8.013  19.806  0.00  0.00    +0.000 N 
ATOM     12  C   UNL     1       1.213   7.652  21.139  0.00  0.00    +0.000 C 
ATOM     13  N   UNL     1       2.529   7.272  19.134  0.00  0.00    +0.000 N 
ENDROOT
BRANCH  10  14
ATOM     14  C   UNL     1       0.393  10.331  19.313  0.00  0.00    +0.000 A 
ATOM     15  C   UNL     1      -0.850  10.437  18.682  0.00  0.00    +0.000 A 
ATOM     16  C   UNL     1      -1.742  11.450  19.047  0.00  0.00    +0.000 A 
ATOM     17  C   UNL     1      -1.389  12.377  20.024  0.00  0.00    +0.000 A 
ATOM     18  C   UNL     1      -0.135  12.305  20.624  0.00  0.00    +0.000 A 
ATOM     19  C   UNL     1       0.758  11.292  20.265  0.00  0.00    +0.000 A 
ENDBRANCH  10  14
BRANCH   1  21
ATOM     20  C   UNL     1       6.373   4.358  16.485  0.00  0.00    +0.000 C 
ATOM     21  O   UNL     1       4.949   4.312  16.548  0.00  0.00    +0.000 OA
ENDBRANCH   1  21
TORSDOF 2
ENDMDL
