MODEL 1
REMARK VINA RESULT:      -8.7      0.000      0.000
REMARK  Name = 
REMARK  10 active torsions:
REMARK  status: ('A' for Active; 'I' for Inactive)
REMARK    1  A    between atoms: N_1  and  C_2
REMARK    2  A    between atoms: C_4  and  C_5
REMARK    3  A    between atoms: C_5  and  C_6
REMARK    4  A    between atoms: C_6  and  C_7
REMARK    5  A    between atoms: C_10  and  N_11
REMARK    6  A    between atoms: N_21  and  C1*_22
REMARK    7  A    between atoms: C4*_24  and  C5*_25
REMARK    8  A    between atoms: C5*_25  and  O5*_26
REMARK    9  A    between atoms: C3*_27  and  O3*_28
REMARK   10  A    between atoms: C2*_29  and  O2*_30
REMARK                            x       y       z     vdW  Elec       q    Type
REMARK                         _______ _______ _______ _____ _____    ______ ____
ROOT
ATOM      1  C   UNL     1       7.015   5.504  15.653  0.00  0.00    +0.000 A 
ATOM      2  N   UNL     1       7.675   6.466  16.348  0.00  0.00    +0.000 NA
ATOM      3  C   UNL     1       7.309   6.736  17.628  0.00  0.00    +0.000 A 
ATOM      4  N   UNL     1       6.305   6.149  18.315  0.00  0.00    +0.000 NA
ATOM      5  C   UNL     1       5.673   5.221  17.586  0.00  0.00    +0.000 A 
ATOM      6  C   UNL     1       5.944   4.850  16.281  0.00  0.00    +0.000 A 
ATOM      7  N   UNL     1       5.076   3.857  15.869  0.00  0.00    +0.000 NA
ATOM      8  C   UNL     1       4.317   3.615  16.917  0.00  0.00    +0.000 A 
ATOM      9  N   UNL     1       4.643   4.411  17.983  0.00  0.00    +0.000 N 
ENDROOT
BRANCH   9  10
ATOM     10  C1* UNL     1       4.080   4.364  19.317  0.00  0.00    +0.000 C 
ATOM     11  O4* UNL     1       3.793   2.987  19.657  0.00  0.00    +0.000 OA
ATOM     12  C4* UNL     1       2.510   2.919  20.325  0.00  0.00    +0.000 C 
ATOM     13  C3* UNL     1       2.062   4.359  20.566  0.00  0.00    +0.000 C 
ATOM     14  C2* UNL     1       2.779   5.150  19.479  0.00  0.00    +0.000 C 
BRANCH  13  15
ATOM     15  O3* UNL     1       2.508   4.845  21.846  0.00  0.00    +0.000 OA
ATOM     16  H3* UNL     1       2.172   5.749  21.987  0.00  0.00    +0.000 HD
ENDBRANCH  13  15
BRANCH  14  17
ATOM     17  O2* UNL     1       2.991   6.503  19.878  0.00  0.00    +0.000 OA
ATOM     18  H2* UNL     1       2.833   6.541  20.844  0.00  0.00    +0.000 HD
ENDBRANCH  14  17
BRANCH  12  19
ATOM     19  C5* UNL     1       1.541   2.124  19.444  0.00  0.00    +0.000 C 
BRANCH  19  20
ATOM     20  O5* UNL     1       0.221   2.652  19.545  0.00  0.00    +0.000 OA
ATOM     21  H5* UNL     1       0.013   2.748  20.493  0.00  0.00    +0.000 HD
ENDBRANCH  19  20
ENDBRANCH  12  19
ENDBRANCH   9  10
BRANCH   1  22
ATOM     22  N   UNL     1       7.449   5.194  14.378  0.00  0.00    +0.000 N 
ATOM     23  H   UNL     1       7.406   5.938  13.697  0.00  0.00    +0.000 HD
ATOM     24  H   UNL     1       7.364   4.228  14.086  0.00  0.00    +0.000 HD
ENDBRANCH   1  22
BRANCH   3  25
ATOM     25  C   UNL     1       8.081   7.828  18.335  0.00  0.00    +0.000 C 
BRANCH  25  26
ATOM     26  C   UNL     1       8.029   9.169  17.592  0.00  0.00    +0.000 C 
BRANCH  26  27
ATOM     27  C   UNL     1       8.711  10.288  18.349  0.00  0.00    +0.000 A 
ATOM     28  C   UNL     1       8.819  11.572  17.790  0.00  0.00    +0.000 A 
ATOM     29  C   UNL     1       9.442  12.604  18.500  0.00  0.00    +0.000 A 
ATOM     30  C   UNL     1       9.962  12.350  19.773  0.00  0.00    +0.000 A 
ATOM     31  C   UNL     1       9.865  11.076  20.341  0.00  0.00    +0.000 A 
ATOM     32  C   UNL     1       9.241  10.050  19.625  0.00  0.00    +0.000 A 
BRANCH  30  33
ATOM     33  N   UNL     1      10.614  13.438  20.516  0.00  0.00    +0.000 N 
ATOM     34  O   UNL     1      11.621  13.951  20.022  0.00  0.00    +0.000 OA
ATOM     35  O   UNL     1      10.114  13.774  21.601  0.00  0.00    +0.000 OA
ENDBRANCH  30  33
ENDBRANCH  26  27
ENDBRANCH  25  26
ENDBRANCH   3  25
TORSDOF 10
ENDMDL
MODEL 2
REMARK VINA RESULT:      -8.5      0.545      1.035
REMARK  Name = 
REMARK  10 active torsions:
REMARK  status: ('A' for Active; 'I' for Inactive)
REMARK    1  A    between atoms: N_1  and  C_2
REMARK    2  A    between atoms: C_4  and  C_5
REMARK    3  A    between atoms: C_5  and  C_6
REMARK    4  A    between atoms: C_6  and  C_7
REMARK    5  A    between atoms: C_10  and  N_11
REMARK    6  A    between atoms: N_21  and  C1*_22
REMARK    7  A    between atoms: C4*_24  and  C5*_25
REMARK    8  A    between atoms: C5*_25  and  O5*_26
REMARK    9  A    between atoms: C3*_27  and  O3*_28
REMARK   10  A    between atoms: C2*_29  and  O2*_30
REMARK                            x       y       z     vdW  Elec       q    Type
REMARK                         _______ _______ _______ _____ _____    ______ ____
ROOT
ATOM      1  C   UNL     1       7.020   5.451  15.661  0.00  0.00    +0.000 A 
ATOM      2  N   UNL     1       7.664   6.420  16.360  0.00  0.00    +0.000 NA
ATOM      3  C   UNL     1       7.275   6.699  17.632  0.00  0.00    +0.000 A 
ATOM      4  N   UNL     1       6.261   6.113  18.305  0.00  0.00    +0.000 NA
ATOM      5  C   UNL     1       5.645   5.177  17.573  0.00  0.00    +0.000 A 
ATOM      6  C   UNL     1       5.940   4.797  16.276  0.00  0.00    +0.000 A 
ATOM      7  N   UNL     1       5.084   3.797  15.856  0.00  0.00    +0.000 NA
ATOM      8  C   UNL     1       4.307   3.561  16.892  0.00  0.00    +0.000 A 
ATOM      9  N   UNL     1       4.611   4.367  17.957  0.00  0.00    +0.000 N 
ENDROOT
BRANCH   9  10
ATOM     10  C1* UNL     1       4.024   4.327  19.281  0.00  0.00    +0.000 C 
ATOM     11  O4* UNL     1       3.654   2.963  19.591  0.00  0.00    +0.000 OA
ATOM     12  C4* UNL     1       2.359   2.957  20.237  0.00  0.00    +0.000 C 
ATOM     13  C3* UNL     1       1.989   4.416  20.499  0.00  0.00    +0.000 C 
ATOM     14  C2* UNL     1       2.768   5.184  19.438  0.00  0.00    +0.000 C 
BRANCH  13  15
ATOM     15  O3* UNL     1       2.442   4.852  21.795  0.00  0.00    +0.000 OA
ATOM     16  H3* UNL     1       2.138   5.763  21.957  0.00  0.00    +0.000 HD
ENDBRANCH  13  15
BRANCH  14  17
ATOM     17  O2* UNL     1       3.051   6.515  19.867  0.00  0.00    +0.000 OA
ATOM     18  H2* UNL     1       3.664   6.901  19.208  0.00  0.00    +0.000 HD
ENDBRANCH  14  17
BRANCH  12  19
ATOM     19  C5* UNL     1       1.360   2.235  19.327  0.00  0.00    +0.000 C 
BRANCH  19  20
ATOM     20  O5* UNL     1       2.044   1.473  18.335  0.00  0.00    +0.000 OA
ATOM     21  H5* UNL     1       1.900   1.910  17.476  0.00  0.00    +0.000 HD
ENDBRANCH  19  20
ENDBRANCH  12  19
ENDBRANCH   9  10
BRANCH   1  22
ATOM     22  N   UNL     1       7.478   5.132  14.396  0.00  0.00    +0.000 N 
ATOM     23  H   UNL     1       6.895   4.513  13.853  0.00  0.00    +0.000 HD
ATOM     24  H   UNL     1       8.480   5.149  14.253  0.00  0.00    +0.000 HD
ENDBRANCH   1  22
BRANCH   3  25
ATOM     25  C   UNL     1       8.029   7.799  18.343  0.00  0.00    +0.000 C 
BRANCH  25  26
ATOM     26  C   UNL     1       8.208   9.054  17.479  0.00  0.00    +0.000 C 
BRANCH  26  27
ATOM     27  C   UNL     1       8.695  10.249  18.268  0.00  0.00    +0.000 A 
ATOM     28  C   UNL     1       9.309  10.082  19.520  0.00  0.00    +0.000 A 
ATOM     29  C   UNL     1       9.766  11.190  20.240  0.00  0.00    +0.000 A 
ATOM     30  C   UNL     1       9.605  12.473  19.706  0.00  0.00    +0.000 A 
ATOM     31  C   UNL     1       8.993  12.656  18.462  0.00  0.00    +0.000 A 
ATOM     32  C   UNL     1       8.540  11.542  17.750  0.00  0.00    +0.000 A 
BRANCH  30  33
ATOM     33  N   UNL     1      10.090  13.635  20.464  0.00  0.00    +0.000 N 
ATOM     34  O   UNL     1      11.304  13.852  20.473  0.00  0.00    +0.000 OA
ATOM     35  O   UNL     1       9.248  14.329  21.055  0.00  0.00    +0.000 OA
ENDBRANCH  30  33
ENDBRANCH  26  27
ENDBRANCH  25  26
ENDBRANCH   3  25
TORSDOF 10
ENDMDL
MODEL 3
REMARK VINA RESULT:      -8.2      5.527      7.737
REMARK  Name = 
REMARK  10 active torsions:
REMARK  status: ('A' for Active; 'I' for Inactive)
REMARK    1  A    between atoms: N_1  and  C_2
REMARK    2  A    between atoms: C_4  and  C_5
REMARK    3  A    between atoms: C_5  and  C_6
REMARK    4  A    between atoms: C_6  and  C_7
REMARK    5  A    between atoms: C_10  and  N_11
REMARK    6  A    between atoms: N_21  and  C1*_22
REMARK    7  A    between atoms: C4*_24  and  C5*_25
REMARK    8  A    between atoms: C5*_25  and  O5*_26
REMARK    9  A    between atoms: C3*_27  and  O3*_28
REMARK   10  A    between atoms: C2*_29  and  O2*_30
REMARK                            x       y       z     vdW  Elec       q    Type
REMARK                         _______ _______ _______ _____ _____    ______ ____
ROOT
ATOM      1  C   UNL     1       1.454   3.863  19.932  0.00  0.00    +0.000 A 
ATOM      2  N   UNL     1       1.289   5.139  20.364  0.00  0.00    +0.000 NA
ATOM      3  C   UNL     1       2.141   6.107  19.934  0.00  0.00    +0.000 A 
ATOM      4  N   UNL     1       3.195   5.935  19.107  0.00  0.00    +0.000 NA
ATOM      5  C   UNL     1       3.330   4.660  18.721  0.00  0.00    +0.000 A 
ATOM      6  C   UNL     1       2.536   3.586  19.080  0.00  0.00    +0.000 A 
ATOM      7  N   UNL     1       2.988   2.426  18.481  0.00  0.00    +0.000 NA
ATOM      8  C   UNL     1       4.017   2.803  17.751  0.00  0.00    +0.000 A 
ATOM      9  N   UNL     1       4.260   4.146  17.858  0.00  0.00    +0.000 N 
ENDROOT
BRANCH   9  10
ATOM     10  C1* UNL     1       5.251   4.918  17.137  0.00  0.00    +0.000 C 
ATOM     11  O4* UNL     1       4.715   5.280  15.843  0.00  0.00    +0.000 OA
ATOM     12  C4* UNL     1       5.743   5.114  14.837  0.00  0.00    +0.000 C 
ATOM     13  C3* UNL     1       7.040   4.798  15.581  0.00  0.00    +0.000 C 
ATOM     14  C2* UNL     1       6.567   4.178  16.890  0.00  0.00    +0.000 C 
BRANCH  13  15
ATOM     15  O3* UNL     1       7.777   5.996  15.890  0.00  0.00    +0.000 OA
ATOM     16  H3* UNL     1       7.204   6.614  16.378  0.00  0.00    +0.000 HD
ENDBRANCH  13  15
BRANCH  14  17
ATOM     17  O2* UNL     1       7.522   4.376  17.931  0.00  0.00    +0.000 OA
ATOM     18  H2* UNL     1       7.678   5.341  17.992  0.00  0.00    +0.000 HD
ENDBRANCH  14  17
BRANCH  12  19
ATOM     19  C5* UNL     1       5.312   4.002  13.875  0.00  0.00    +0.000 C 
BRANCH  19  20
ATOM     20  O5* UNL     1       6.451   3.357  13.311  0.00  0.00    +0.000 OA
ATOM     21  H5* UNL     1       6.220   2.420  13.171  0.00  0.00    +0.000 HD
ENDBRANCH  19  20
ENDBRANCH  12  19
ENDBRANCH   9  10
BRANCH   1  22
ATOM     22  N   UNL     1       0.534   2.908  20.322  0.00  0.00    +0.000 N 
ATOM     23  H   UNL     1       0.770   1.949  20.114  0.00  0.00    +0.000 HD
ATOM     24  H   UNL     1      -0.434   3.197  20.374  0.00  0.00    +0.000 HD
ENDBRANCH   1  22
BRANCH   3  25
ATOM     25  C   UNL     1       1.903   7.501  20.467  0.00  0.00    +0.000 C 
BRANCH  25  26
ATOM     26  C   UNL     1       0.623   7.608  21.304  0.00  0.00    +0.000 C 
BRANCH  26  27
ATOM     27  C   UNL     1       0.237   9.039  21.610  0.00  0.00    +0.000 A 
ATOM     28  C   UNL     1       0.550  10.075  20.716  0.00  0.00    +0.000 A 
ATOM     29  C   UNL     1       0.181  11.394  21.000  0.00  0.00    +0.000 A 
ATOM     30  C   UNL     1      -0.502  11.678  22.187  0.00  0.00    +0.000 A 
ATOM     31  C   UNL     1      -0.818  10.657  23.089  0.00  0.00    +0.000 A 
ATOM     32  C   UNL     1      -0.446   9.343  22.797  0.00  0.00    +0.000 A 
BRANCH  30  33
ATOM     33  N   UNL     1      -0.890  13.065  22.482  0.00  0.00    +0.000 N 
ATOM     34  O   UNL     1      -2.090  13.350  22.434  0.00  0.00    +0.000 OA
ATOM     35  O   UNL     1       0.013  13.870  22.758  0.00  0.00    +0.000 OA
ENDBRANCH  30  33
ENDBRANCH  26  27
ENDBRANCH  25  26
ENDBRANCH   3  25
TORSDOF 10
ENDMDL
MODEL 4
REMARK VINA RESULT:      -8.2      5.337      7.788
REMARK  Name = 
REMARK  10 active torsions:
REMARK  status: ('A' for Active; 'I' for Inactive)
REMARK    1  A    between atoms: N_1  and  C_2
REMARK    2  A    between atoms: C_4  and  C_5
REMARK    3  A    between atoms: C_5  and  C_6
REMARK    4  A    between atoms: C_6  and  C_7
REMARK    5  A    between atoms: C_10  and  N_11
REMARK    6  A    between atoms: N_21  and  C1*_22
REMARK    7  A    between atoms: C4*_24  and  C5*_25
REMARK    8  A    between atoms: C5*_25  and  O5*_26
REMARK    9  A    between atoms: C3*_27  and  O3*_28
REMARK   10  A    between atoms: C2*_29  and  O2*_30
REMARK                            x       y       z     vdW  Elec       q    Type
REMARK                         _______ _______ _______ _____ _____    ______ ____
ROOT
ATOM      1  C   UNL     1       1.573   4.146  20.324  0.00  0.00    +0.000 A 
ATOM      2  N   UNL     1       1.295   5.446  20.598  0.00  0.00    +0.000 NA
ATOM      3  C   UNL     1       2.079   6.423  20.071  0.00  0.00    +0.000 A 
ATOM      4  N   UNL     1       3.166   6.243  19.289  0.00  0.00    +0.000 NA
ATOM      5  C   UNL     1       3.412   4.947  19.060  0.00  0.00    +0.000 A 
ATOM      6  C   UNL     1       2.696   3.860  19.531  0.00  0.00    +0.000 A 
ATOM      7  N   UNL     1       3.254   2.679  19.081  0.00  0.00    +0.000 NA
ATOM      8  C   UNL     1       4.269   3.051  18.330  0.00  0.00    +0.000 A 
ATOM      9  N   UNL     1       4.402   4.413  18.281  0.00  0.00    +0.000 N 
ENDROOT
BRANCH   9  10
ATOM     10  C1* UNL     1       5.348   5.173  17.490  0.00  0.00    +0.000 C 
ATOM     11  O4* UNL     1       4.756   5.468  16.203  0.00  0.00    +0.000 OA
ATOM     12  C4* UNL     1       5.750   5.280  15.167  0.00  0.00    +0.000 C 
ATOM     13  C3* UNL     1       7.080   5.024  15.874  0.00  0.00    +0.000 C 
ATOM     14  C2* UNL     1       6.670   4.452  17.225  0.00  0.00    +0.000 C 
BRANCH  13  15
ATOM     15  O3* UNL     1       7.801   6.249  16.103  0.00  0.00    +0.000 OA
ATOM     16  H3* UNL     1       8.759   6.071  16.090  0.00  0.00    +0.000 HD
ENDBRANCH  13  15
BRANCH  14  17
ATOM     17  O2* UNL     1       7.659   4.715  18.220  0.00  0.00    +0.000 OA
ATOM     18  H2* UNL     1       8.464   4.224  17.955  0.00  0.00    +0.000 HD
ENDBRANCH  14  17
BRANCH  12  19
ATOM     19  C5* UNL     1       5.309   4.119  14.271  0.00  0.00    +0.000 C 
BRANCH  19  20
ATOM     20  O5* UNL     1       6.436   3.512  13.644  0.00  0.00    +0.000 OA
ATOM     21  H5* UNL     1       6.124   2.709  13.188  0.00  0.00    +0.000 HD
ENDBRANCH  19  20
ENDBRANCH  12  19
ENDBRANCH   9  10
BRANCH   1  22
ATOM     22  N   UNL     1       0.721   3.171  20.809  0.00  0.00    +0.000 N 
ATOM     23  H   UNL     1       0.654   3.096  21.813  0.00  0.00    +0.000 HD
ATOM     24  H   UNL     1       0.572   2.359  20.224  0.00  0.00    +0.000 HD
ENDBRANCH   1  22
BRANCH   3  25
ATOM     25  C   UNL     1       1.717   7.846  20.430  0.00  0.00    +0.000 C 
BRANCH  25  26
ATOM     26  C   UNL     1       0.580   7.931  21.456  0.00  0.00    +0.000 C 
BRANCH  26  27
ATOM     27  C   UNL     1       0.160   9.354  21.754  0.00  0.00    +0.000 A 
ATOM     28  C   UNL     1      -0.656   9.645  22.859  0.00  0.00    +0.000 A 
ATOM     29  C   UNL     1      -1.032  10.964  23.134  0.00  0.00    +0.000 A 
ATOM     30  C   UNL     1      -0.591  11.996  22.299  0.00  0.00    +0.000 A 
ATOM     31  C   UNL     1       0.220  11.720  21.194  0.00  0.00    +0.000 A 
ATOM     32  C   UNL     1       0.591  10.400  20.926  0.00  0.00    +0.000 A 
BRANCH  30  33
ATOM     33  N   UNL     1      -0.986  13.381  22.594  0.00  0.00    +0.000 N 
ATOM     34  O   UNL     1      -0.205  14.282  22.277  0.00  0.00    +0.000 OA
ATOM     35  O   UNL     1      -2.081  13.562  23.148  0.00  0.00    +0.000 OA
ENDBRANCH  30  33
ENDBRANCH  26  27
ENDBRANCH  25  26
ENDBRANCH   3  25
TORSDOF 10
ENDMDL
MODEL 5
REMARK VINA RESULT:      -8.2      5.100      7.961
REMARK  Name = 
REMARK  10 active torsions:
REMARK  status: ('A' for Active; 'I' for Inactive)
REMARK    1  A    between atoms: N_1  and  C_2
REMARK    2  A    between atoms: C_4  and  C_5
REMARK    3  A    between atoms: C_5  and  C_6
REMARK    4  A    between atoms: C_6  and  C_7
REMARK    5  A    between atoms: C_10  and  N_11
REMARK    6  A    between atoms: N_21  and  C1*_22
REMARK    7  A    between atoms: C4*_24  and  C5*_25
REMARK    8  A    between atoms: C5*_25  and  O5*_26
REMARK    9  A    between atoms: C3*_27  and  O3*_28
REMARK   10  A    between atoms: C2*_29  and  O2*_30
REMARK                            x       y       z     vdW  Elec       q    Type
REMARK                         _______ _______ _______ _____ _____    ______ ____
ROOT
ATOM      1  C   UNL     1       1.230   3.756  19.854  0.00  0.00    +0.000 A 
ATOM      2  N   UNL     1       1.092   4.922  20.535  0.00  0.00    +0.000 NA
ATOM      3  C   UNL     1       1.988   5.924  20.334  0.00  0.00    +0.000 A 
ATOM      4  N   UNL     1       3.060   5.886  19.514  0.00  0.00    +0.000 NA
ATOM      5  C   UNL     1       3.166   4.713  18.877  0.00  0.00    +0.000 A 
ATOM      6  C   UNL     1       2.328   3.619  18.989  0.00  0.00    +0.000 A 
ATOM      7  N   UNL     1       2.761   2.590  18.175  0.00  0.00    +0.000 NA
ATOM      8  C   UNL     1       3.823   3.070  17.562  0.00  0.00    +0.000 A 
ATOM      9  N   UNL     1       4.104   4.353  17.949  0.00  0.00    +0.000 N 
ENDROOT
BRANCH   9  10
ATOM     10  C1* UNL     1       5.142   5.218  17.425  0.00  0.00    +0.000 C 
ATOM     11  O4* UNL     1       4.976   5.336  15.992  0.00  0.00    +0.000 OA
ATOM     12  C4* UNL     1       6.274   5.263  15.355  0.00  0.00    +0.000 C 
ATOM     13  C3* UNL     1       7.315   5.276  16.473  0.00  0.00    +0.000 C 
ATOM     14  C2* UNL     1       6.565   4.718  17.676  0.00  0.00    +0.000 C 
BRANCH  13  15
ATOM     15  O3* UNL     1       7.736   6.617  16.786  0.00  0.00    +0.000 OA
ATOM     16  H3* UNL     1       8.696   6.700  16.638  0.00  0.00    +0.000 HD
ENDBRANCH  13  15
BRANCH  14  17
ATOM     17  O2* UNL     1       7.118   5.200  18.899  0.00  0.00    +0.000 OA
ATOM     18  H2* UNL     1       6.500   5.880  19.241  0.00  0.00    +0.000 HD
ENDBRANCH  14  17
BRANCH  12  19
ATOM     19  C5* UNL     1       6.327   3.996  14.495  0.00  0.00    +0.000 C 
BRANCH  19  20
ATOM     20  O5* UNL     1       5.236   3.964  13.579  0.00  0.00    +0.000 OA
ATOM     21  H5* UNL     1       4.456   3.631  14.059  0.00  0.00    +0.000 HD
ENDBRANCH  19  20
ENDBRANCH  12  19
ENDBRANCH   9  10
BRANCH   1  22
ATOM     22  N   UNL     1       0.269   2.776  20.018  0.00  0.00    +0.000 N 
ATOM     23  H   UNL     1      -0.365   2.638  19.246  0.00  0.00    +0.000 HD
ATOM     24  H   UNL     1      -0.028   2.579  20.965  0.00  0.00    +0.000 HD
ENDBRANCH   1  22
BRANCH   3  25
ATOM     25  C   UNL     1       1.778   7.188  21.136  0.00  0.00    +0.000 C 
BRANCH  25  26
ATOM     26  C   UNL     1       1.306   8.368  20.277  0.00  0.00    +0.000 C 
BRANCH  26  27
ATOM     27  C   UNL     1       0.449   9.350  21.045  0.00  0.00    +0.000 A 
ATOM     28  C   UNL     1       0.192   9.164  22.413  0.00  0.00    +0.000 A 
ATOM     29  C   UNL     1      -0.593  10.081  23.119  0.00  0.00    +0.000 A 
ATOM     30  C   UNL     1      -1.126  11.189  22.452  0.00  0.00    +0.000 A 
ATOM     31  C   UNL     1      -0.881  11.387  21.090  0.00  0.00    +0.000 A 
ATOM     32  C   UNL     1      -0.096  10.465  20.393  0.00  0.00    +0.000 A 
BRANCH  30  33
ATOM     33  N   UNL     1      -1.948  12.153  23.198  0.00  0.00    +0.000 N 
ATOM     34  O   UNL     1      -3.078  11.800  23.546  0.00  0.00    +0.000 OA
ATOM     35  O   UNL     1      -1.458  13.269  23.432  0.00  0.00    +0.000 OA
ENDBRANCH  30  33
ENDBRANCH  26  27
ENDBRANCH  25  26
ENDBRANCH   3  25
TORSDOF 10
ENDMDL
MODEL 6
REMARK VINA RESULT:      -8.1      5.265      7.943
REMARK  Name = 
REMARK  10 active torsions:
REMARK  status: ('A' for Active; 'I' for Inactive)
REMARK    1  A    between atoms: N_1  and  C_2
REMARK    2  A    between atoms: C_4  and  C_5
REMARK    3  A    between atoms: C_5  and  C_6
REMARK    4  A    between atoms: C_6  and  C_7
REMARK    5  A    between atoms: C_10  and  N_11
REMARK    6  A    between atoms: N_21  and  C1*_22
REMARK    7  A    between atoms: C4*_24  and  C5*_25
REMARK    8  A    between atoms: C5*_25  and  O5*_26
REMARK    9  A    between atoms: C3*_27  and  O3*_28
REMARK   10  A    between atoms: C2*_29  and  O2*_30
REMARK                            x       y       z     vdW  Elec       q    Type
REMARK                         _______ _______ _______ _____ _____    ______ ____
ROOT
ATOM      1  C   UNL     1       1.615   4.002  20.426  0.00  0.00    +0.000 A 
ATOM      2  N   UNL     1       1.308   5.286  20.742  0.00  0.00    +0.000 NA
ATOM      3  C   UNL     1       2.066   6.298  20.242  0.00  0.00    +0.000 A 
ATOM      4  N   UNL     1       3.152   6.168  19.450  0.00  0.00    +0.000 NA
ATOM      5  C   UNL     1       3.427   4.886  19.178  0.00  0.00    +0.000 A 
ATOM      6  C   UNL     1       2.740   3.769  19.619  0.00  0.00    +0.000 A 
ATOM      7  N   UNL     1       3.323   2.616  19.130  0.00  0.00    +0.000 NA
ATOM      8  C   UNL     1       4.325   3.035  18.385  0.00  0.00    +0.000 A 
ATOM      9  N   UNL     1       4.425   4.400  18.378  0.00  0.00    +0.000 N 
ENDROOT
BRANCH   9  10
ATOM     10  C1* UNL     1       5.348   5.207  17.607  0.00  0.00    +0.000 C 
ATOM     11  O4* UNL     1       4.742   5.528  16.333  0.00  0.00    +0.000 OA
ATOM     12  C4* UNL     1       5.733   5.396  15.286  0.00  0.00    +0.000 C 
ATOM     13  C3* UNL     1       7.073   5.150  15.978  0.00  0.00    +0.000 C 
ATOM     14  C2* UNL     1       6.685   4.526  17.312  0.00  0.00    +0.000 C 
BRANCH  13  15
ATOM     15  O3* UNL     1       7.767   6.384  16.242  0.00  0.00    +0.000 OA
ATOM     16  H3* UNL     1       7.151   7.024  16.643  0.00  0.00    +0.000 HD
ENDBRANCH  13  15
BRANCH  14  17
ATOM     17  O2* UNL     1       7.673   4.781  18.309  0.00  0.00    +0.000 OA
ATOM     18  H2* UNL     1       8.215   3.968  18.385  0.00  0.00    +0.000 HD
ENDBRANCH  14  17
BRANCH  12  19
ATOM     19  C5* UNL     1       5.314   4.254  14.356  0.00  0.00    +0.000 C 
BRANCH  19  20
ATOM     20  O5* UNL     1       6.415   3.386  14.099  0.00  0.00    +0.000 OA
ATOM     21  H5* UNL     1       6.260   2.958  13.237  0.00  0.00    +0.000 HD
ENDBRANCH  19  20
ENDBRANCH  12  19
ENDBRANCH   9  10
BRANCH   1  22
ATOM     22  N   UNL     1       0.789   2.993  20.885  0.00  0.00    +0.000 N 
ATOM     23  H   UNL     1       0.627   2.966  21.881  0.00  0.00    +0.000 HD
ATOM     24  H   UNL     1       0.757   2.142  20.338  0.00  0.00    +0.000 HD
ENDBRANCH   1  22
BRANCH   3  25
ATOM     25  C   UNL     1       1.672   7.700  20.647  0.00  0.00    +0.000 C 
BRANCH  25  26
ATOM     26  C   UNL     1       1.656   8.679  19.466  0.00  0.00    +0.000 C 
BRANCH  26  27
ATOM     27  C   UNL     1       0.547   9.703  19.565  0.00  0.00    +0.000 A 
ATOM     28  C   UNL     1      -0.223  10.039  18.440  0.00  0.00    +0.000 A 
ATOM     29  C   UNL     1      -1.254  10.979  18.541  0.00  0.00    +0.000 A 
ATOM     30  C   UNL     1      -1.512  11.589  19.772  0.00  0.00    +0.000 A 
ATOM     31  C   UNL     1      -0.752  11.268  20.901  0.00  0.00    +0.000 A 
ATOM     32  C   UNL     1       0.275  10.327  20.791  0.00  0.00    +0.000 A 
BRANCH  30  33
ATOM     33  N   UNL     1      -2.598  12.575  19.875  0.00  0.00    +0.000 N 
ATOM     34  O   UNL     1      -2.331  13.677  20.361  0.00  0.00    +0.000 OA
ATOM     35  O   UNL     1      -3.722  12.239  19.470  0.00  0.00    +0.000 OA
ENDBRANCH  30  33
ENDBRANCH  26  27
ENDBRANCH  25  26
ENDBRANCH   3  25
TORSDOF 10
ENDMDL
MODEL 7
REMARK VINA RESULT:      -8.0      1.139      1.523
REMARK  Name = 
REMARK  10 active torsions:
REMARK  status: ('A' for Active; 'I' for Inactive)
REMARK    1  A    between atoms: N_1  and  C_2
REMARK    2  A    between atoms: C_4  and  C_5
REMARK    3  A    between atoms: C_5  and  C_6
REMARK    4  A    between atoms: C_6  and  C_7
REMARK    5  A    between atoms: C_10  and  N_11
REMARK    6  A    between atoms: N_21  and  C1*_22
REMARK    7  A    between atoms: C4*_24  and  C5*_25
REMARK    8  A    between atoms: C5*_25  and  O5*_26
REMARK    9  A    between atoms: C3*_27  and  O3*_28
REMARK   10  A    between atoms: C2*_29  and  O2*_30
REMARK                            x       y       z     vdW  Elec       q    Type
REMARK                         _______ _______ _______ _____ _____    ______ ____
ROOT
ATOM      1  C   UNL     1       6.922   5.322  16.044  0.00  0.00    +0.000 A 
ATOM      2  N   UNL     1       7.472   6.539  16.289  0.00  0.00    +0.000 NA
ATOM      3  C   UNL     1       6.954   7.322  17.271  0.00  0.00    +0.000 A 
ATOM      4  N   UNL     1       5.892   7.028  18.052  0.00  0.00    +0.000 NA
ATOM      5  C   UNL     1       5.372   5.828  17.764  0.00  0.00    +0.000 A 
ATOM      6  C   UNL     1       5.802   4.937  16.797  0.00  0.00    +0.000 A 
ATOM      7  N   UNL     1       5.013   3.803  16.798  0.00  0.00    +0.000 NA
ATOM      8  C   UNL     1       4.144   3.997  17.768  0.00  0.00    +0.000 A 
ATOM      9  N   UNL     1       4.324   5.205  18.385  0.00  0.00    +0.000 N 
ENDROOT
BRANCH   9  10
ATOM     10  C1* UNL     1       3.611   5.714  19.540  0.00  0.00    +0.000 C 
ATOM     11  O4* UNL     1       3.284   4.609  20.415  0.00  0.00    +0.000 OA
ATOM     12  C4* UNL     1       1.933   4.775  20.907  0.00  0.00    +0.000 C 
ATOM     13  C3* UNL     1       1.463   6.154  20.447  0.00  0.00    +0.000 C 
ATOM     14  C2* UNL     1       2.301   6.429  19.206  0.00  0.00    +0.000 C 
BRANCH  13  15
ATOM     15  O3* UNL     1       1.760   7.167  21.426  0.00  0.00    +0.000 OA
ATOM     16  H3* UNL     1       2.325   7.853  21.024  0.00  0.00    +0.000 HD
ENDBRANCH  13  15
BRANCH  14  17
ATOM     17  O2* UNL     1       2.469   7.830  18.995  0.00  0.00    +0.000 OA
ATOM     18  H2* UNL     1       3.416   7.974  18.791  0.00  0.00    +0.000 HD
ENDBRANCH  14  17
BRANCH  12  19
ATOM     19  C5* UNL     1       1.069   3.631  20.366  0.00  0.00    +0.000 C 
BRANCH  19  20
ATOM     20  O5* UNL     1       1.885   2.535  19.959  0.00  0.00    +0.000 OA
ATOM     21  H5* UNL     1       2.410   2.827  19.191  0.00  0.00    +0.000 HD
ENDBRANCH  19  20
ENDBRANCH  12  19
ENDBRANCH   9  10
BRANCH   1  22
ATOM     22  N   UNL     1       7.509   4.511  15.091  0.00  0.00    +0.000 N 
ATOM     23  H   UNL     1       7.845   4.970  14.258  0.00  0.00    +0.000 HD
ATOM     24  H   UNL     1       7.200   3.548  15.054  0.00  0.00    +0.000 HD
ENDBRANCH   1  22
BRANCH   3  25
ATOM     25  C   UNL     1       7.610   8.668  17.478  0.00  0.00    +0.000 C 
BRANCH  25  26
ATOM     26  C   UNL     1       8.567   8.686  18.676  0.00  0.00    +0.000 C 
BRANCH  26  27
ATOM     27  C   UNL     1       9.165  10.052  18.933  0.00  0.00    +0.000 A 
ATOM     28  C   UNL     1       9.370  10.512  20.244  0.00  0.00    +0.000 A 
ATOM     29  C   UNL     1       9.932  11.771  20.474  0.00  0.00    +0.000 A 
ATOM     30  C   UNL     1      10.288  12.577  19.387  0.00  0.00    +0.000 A 
ATOM     31  C   UNL     1      10.087  12.134  18.077  0.00  0.00    +0.000 A 
ATOM     32  C   UNL     1       9.525  10.874  17.856  0.00  0.00    +0.000 A 
BRANCH  30  33
ATOM     33  N   UNL     1      10.881  13.899  19.633  0.00  0.00    +0.000 N 
ATOM     34  O   UNL     1      12.107  13.968  19.750  0.00  0.00    +0.000 OA
ATOM     35  O   UNL     1      10.112  14.870  19.712  0.00  0.00    +0.000 OA
ENDBRANCH  30  33
ENDBRANCH  26  27
ENDBRANCH  25  26
ENDBRANCH   3  25
TORSDOF 10
ENDMDL
MODEL 8
REMARK VINA RESULT:      -7.9      1.242      1.400
REMARK  Name = 
REMARK  10 active torsions:
REMARK  status: ('A' for Active; 'I' for Inactive)
REMARK    1  A    between atoms: N_1  and  C_2
REMARK    2  A    between atoms: C_4  and  C_5
REMARK    3  A    between atoms: C_5  and  C_6
REMARK    4  A    between atoms: C_6  and  C_7
REMARK    5  A    between atoms: C_10  and  N_11
REMARK    6  A    between atoms: N_21  and  C1*_22
REMARK    7  A    between atoms: C4*_24  and  C5*_25
REMARK    8  A    between atoms: C5*_25  and  O5*_26
REMARK    9  A    between atoms: C3*_27  and  O3*_28
REMARK   10  A    between atoms: C2*_29  and  O2*_30
REMARK                            x       y       z     vdW  Elec       q    Type
REMARK                         _______ _______ _______ _____ _____    ______ ____
ROOT
ATOM      1  C   UNL     1       6.725   5.171  15.796  0.00  0.00    +0.000 A 
ATOM      2  N   UNL     1       7.565   6.142  16.238  0.00  0.00    +0.000 NA
ATOM      3  C   UNL     1       7.230   6.865  17.339  0.00  0.00    +0.000 A 
ATOM      4  N   UNL     1       6.097   6.741  18.064  0.00  0.00    +0.000 NA
ATOM      5  C   UNL     1       5.293   5.785  17.582  0.00  0.00    +0.000 A 
ATOM      6  C   UNL     1       5.514   4.980  16.479  0.00  0.00    +0.000 A 
ATOM      7  N   UNL     1       4.456   4.111  16.292  0.00  0.00    +0.000 NA
ATOM      8  C   UNL     1       3.629   4.369  17.284  0.00  0.00    +0.000 A 
ATOM      9  N   UNL     1       4.094   5.370  18.094  0.00  0.00    +0.000 N 
ENDROOT
BRANCH   9  10
ATOM     10  C1* UNL     1       3.492   5.856  19.319  0.00  0.00    +0.000 C 
ATOM     11  O4* UNL     1       3.260   4.736  20.205  0.00  0.00    +0.000 OA
ATOM     12  C4* UNL     1       1.962   4.883  20.829  0.00  0.00    +0.000 C 
ATOM     13  C3* UNL     1       1.438   6.264  20.437  0.00  0.00    +0.000 C 
ATOM     14  C2* UNL     1       2.151   6.564  19.124  0.00  0.00    +0.000 C 
BRANCH  13  15
ATOM     15  O3* UNL     1       1.821   7.266  21.397  0.00  0.00    +0.000 OA
ATOM     16  H3* UNL     1       2.361   7.949  20.958  0.00  0.00    +0.000 HD
ENDBRANCH  13  15
BRANCH  14  17
ATOM     17  O2* UNL     1       2.286   7.969  18.918  0.00  0.00    +0.000 OA
ATOM     18  H2* UNL     1       1.525   8.249  18.369  0.00  0.00    +0.000 HD
ENDBRANCH  14  17
BRANCH  12  19
ATOM     19  C5* UNL     1       1.059   3.739  20.357  0.00  0.00    +0.000 C 
BRANCH  19  20
ATOM     20  O5* UNL     1       1.026   2.693  21.325  0.00  0.00    +0.000 OA
ATOM     21  H5* UNL     1       0.140   2.289  21.293  0.00  0.00    +0.000 HD
ENDBRANCH  19  20
ENDBRANCH  12  19
ENDBRANCH   9  10
BRANCH   1  22
ATOM     22  N   UNL     1       7.118   4.398  14.719  0.00  0.00    +0.000 N 
ATOM     23  H   UNL     1       8.095   4.149  14.680  0.00  0.00    +0.000 HD
ATOM     24  H   UNL     1       6.579   4.490  13.867  0.00  0.00    +0.000 HD
ENDBRANCH   1  22
BRANCH   3  25
ATOM     25  C   UNL     1       8.206   7.937  17.766  0.00  0.00    +0.000 C 
BRANCH  25  26
ATOM     26  C   UNL     1       7.568   9.330  17.838  0.00  0.00    +0.000 C 
BRANCH  26  27
ATOM     27  C   UNL     1       8.566  10.420  18.161  0.00  0.00    +0.000 A 
ATOM     28  C   UNL     1       8.467  11.686  17.563  0.00  0.00    +0.000 A 
ATOM     29  C   UNL     1       9.388  12.692  17.874  0.00  0.00    +0.000 A 
ATOM     30  C   UNL     1      10.414  12.429  18.787  0.00  0.00    +0.000 A 
ATOM     31  C   UNL     1      10.528  11.172  19.389  0.00  0.00    +0.000 A 
ATOM     32  C   UNL     1       9.604  10.173  19.072  0.00  0.00    +0.000 A 
BRANCH  30  33
ATOM     33  N   UNL     1      11.378  13.490  19.114  0.00  0.00    +0.000 N 
ATOM     34  O   UNL     1      12.333  13.197  19.838  0.00  0.00    +0.000 OA
ATOM     35  O   UNL     1      11.173  14.620  18.644  0.00  0.00    +0.000 OA
ENDBRANCH  30  33
ENDBRANCH  26  27
ENDBRANCH  25  26
ENDBRANCH   3  25
TORSDOF 10
ENDMDL
MODEL 9
REMARK VINA RESULT:      -7.9      4.807      7.839
REMARK  Name = 
REMARK  10 active torsions:
REMARK  status: ('A' for Active; 'I' for Inactive)
REMARK    1  A    between atoms: N_1  and  C_2
REMARK    2  A    between atoms: C_4  and  C_5
REMARK    3  A    between atoms: C_5  and  C_6
REMARK    4  A    between atoms: C_6  and  C_7
REMARK    5  A    between atoms: C_10  and  N_11
REMARK    6  A    between atoms: N_21  and  C1*_22
REMARK    7  A    between atoms: C4*_24  and  C5*_25
REMARK    8  A    between atoms: C5*_25  and  O5*_26
REMARK    9  A    between atoms: C3*_27  and  O3*_28
REMARK   10  A    between atoms: C2*_29  and  O2*_30
REMARK                            x       y       z     vdW  Elec       q    Type
REMARK                         _______ _______ _______ _____ _____    ______ ____
ROOT
ATOM      1  C   UNL     1       1.422   3.924  19.862  0.00  0.00    +0.000 A 
ATOM      2  N   UNL     1       1.292   5.246  20.141  0.00  0.00    +0.000 NA
ATOM      3  C   UNL     1       2.253   6.114  19.727  0.00  0.00    +0.000 A 
ATOM      4  N   UNL     1       3.384   5.798  19.060  0.00  0.00    +0.000 NA
ATOM      5  C   UNL     1       3.477   4.484  18.822  0.00  0.00    +0.000 A 
ATOM      6  C   UNL     1       2.576   3.499  19.185  0.00  0.00    +0.000 A 
ATOM      7  N   UNL     1       3.017   2.259  18.765  0.00  0.00    +0.000 NA
ATOM      8  C   UNL     1       4.148   2.499  18.135  0.00  0.00    +0.000 A 
ATOM      9  N   UNL     1       4.466   3.830  18.138  0.00  0.00    +0.000 N 
ENDROOT
BRANCH   9  10
ATOM     10  C1* UNL     1       5.586   4.465  17.473  0.00  0.00    +0.000 C 
ATOM     11  O4* UNL     1       6.797   4.175  18.211  0.00  0.00    +0.000 OA
ATOM     12  C4* UNL     1       7.607   5.372  18.287  0.00  0.00    +0.000 C 
ATOM     13  C3* UNL     1       6.937   6.415  17.393  0.00  0.00    +0.000 C 
ATOM     14  C2* UNL     1       5.475   5.986  17.367  0.00  0.00    +0.000 C 
BRANCH  13  15
ATOM     15  O3* UNL     1       7.446   6.363  16.048  0.00  0.00    +0.000 OA
ATOM     16  H3* UNL     1       8.407   6.198  16.069  0.00  0.00    +0.000 HD
ENDBRANCH  13  15
BRANCH  14  17
ATOM     17  O2* UNL     1       4.832   6.416  16.169  0.00  0.00    +0.000 OA
ATOM     18  H2* UNL     1       5.474   6.287  15.440  0.00  0.00    +0.000 HD
ENDBRANCH  14  17
BRANCH  12  19
ATOM     19  C5* UNL     1       7.704   5.806  19.753  0.00  0.00    +0.000 C 
BRANCH  19  20
ATOM     20  O5* UNL     1       8.773   5.127  20.408  0.00  0.00    +0.000 OA
ATOM     21  H5* UNL     1       9.341   4.737  19.719  0.00  0.00    +0.000 HD
ENDBRANCH  19  20
ENDBRANCH  12  19
ENDBRANCH   9  10
BRANCH   1  22
ATOM     22  N   UNL     1       0.399   3.068  20.227  0.00  0.00    +0.000 N 
ATOM     23  H   UNL     1      -0.538   3.432  20.150  0.00  0.00    +0.000 HD
ATOM     24  H   UNL     1       0.618   2.360  20.917  0.00  0.00    +0.000 HD
ENDBRANCH   1  22
BRANCH   3  25
ATOM     25  C   UNL     1       2.047   7.569  20.084  0.00  0.00    +0.000 C 
BRANCH  25  26
ATOM     26  C   UNL     1       1.380   7.757  21.452  0.00  0.00    +0.000 C 
BRANCH  26  27
ATOM     27  C   UNL     1       0.511   8.995  21.518  0.00  0.00    +0.000 A 
ATOM     28  C   UNL     1       0.042   9.479  22.750  0.00  0.00    +0.000 A 
ATOM     29  C   UNL     1      -0.752  10.629  22.805  0.00  0.00    +0.000 A 
ATOM     30  C   UNL     1      -1.081  11.296  21.621  0.00  0.00    +0.000 A 
ATOM     31  C   UNL     1      -0.624  10.824  20.387  0.00  0.00    +0.000 A 
ATOM     32  C   UNL     1       0.169   9.675  20.341  0.00  0.00    +0.000 A 
BRANCH  30  33
ATOM     33  N   UNL     1      -1.914  12.506  21.683  0.00  0.00    +0.000 N 
ATOM     34  O   UNL     1      -2.823  12.538  22.516  0.00  0.00    +0.000 OA
ATOM     35  O   UNL     1      -1.654  13.425  20.890  0.00  0.00    +0.000 OA
ENDBRANCH  30  33
ENDBRANCH  26  27
ENDBRANCH  25  26
ENDBRANCH   3  25
TORSDOF 10
ENDMDL
