MODEL 1
REMARK VINA RESULT:      -6.5      0.000      0.000
REMARK  Name = 
REMARK  9 active torsions:
REMARK  status: ('A' for Active; 'I' for Inactive)
REMARK    1  A    between atoms: N_1  and  C_2
REMARK    2  A    between atoms: C_2  and  C_3
REMARK    3  A    between atoms: C_2  and  C_10
REMARK    4  A    between atoms: C_3  and  C_4
REMARK    5  A    between atoms: C_10  and  O_11
REMARK    6  A    between atoms: C_10  and  C_12
REMARK    7  A    between atoms: C_12  and  C_13
REMARK    8  A    between atoms: C_13  and  C_14
REMARK    9  A    between atoms: C_14  and  O_16
REMARK                            x       y       z     vdW  Elec       q    Type
REMARK                         _______ _______ _______ _____ _____    ______ ____
ROOT
ATOM      1  C   UNL     1       4.834   5.699  17.738  0.00  0.00    +0.000 C 
ENDROOT
BRANCH   1   2
ATOM      2  N   UNL     1       5.190   4.395  17.131  0.00  0.00    +0.000 NA
ATOM      3  H   UNL     1       6.182   4.222  17.311  0.00  0.00    +0.000 HD
ATOM      4  H   UNL     1       5.129   4.471  16.113  0.00  0.00    +0.000 HD
ENDBRANCH   1   2
BRANCH   1   5
ATOM      5  C   UNL     1       3.302   5.934  17.652  0.00  0.00    +0.000 C 
BRANCH   5   6
ATOM      6  C   UNL     1       2.454   5.031  18.528  0.00  0.00    +0.000 A 
ATOM      7  C   UNL     1       1.705   3.986  17.970  0.00  0.00    +0.000 A 
ATOM      8  C   UNL     1       0.977   3.118  18.790  0.00  0.00    +0.000 A 
ATOM      9  C   UNL     1       0.976   3.293  20.172  0.00  0.00    +0.000 A 
ATOM     10  C   UNL     1       1.698   4.341  20.737  0.00  0.00    +0.000 A 
ATOM     11  C   UNL     1       2.434   5.204  19.921  0.00  0.00    +0.000 A 
ENDBRANCH   5   6
ENDBRANCH   1   5
BRANCH   1  12
ATOM     12  C   UNL     1       5.605   6.837  16.996  0.00  0.00    +0.000 C 
BRANCH  12  13
ATOM     13  O   UNL     1       5.199   6.862  15.623  0.00  0.00    +0.000 OA
ATOM     14  H   UNL     1       5.555   6.029  15.247  0.00  0.00    +0.000 HD
ENDBRANCH  12  13
BRANCH  12  15
ATOM     15  C   UNL     1       7.128   6.645  17.040  0.00  0.00    +0.000 C 
BRANCH  15  16
ATOM     16  C   UNL     1       7.723   6.802  18.444  0.00  0.00    +0.000 C 
BRANCH  16  17
ATOM     17  C   UNL     1       7.955   5.449  19.078  0.00  0.00    +0.000 C 
ATOM     18  O   UNL     1       8.071   4.396  18.468  0.00  0.00    +0.000 OA
BRANCH  17  19
ATOM     19  O   UNL     1       8.015   5.509  20.427  0.00  0.00    +0.000 OA
ATOM     20  H   UNL     1       8.529   4.785  20.830  0.00  0.00    +0.000 HD
ENDBRANCH  17  19
ENDBRANCH  16  17
ENDBRANCH  15  16
ENDBRANCH  12  15
ENDBRANCH   1  12
TORSDOF 9
ENDMDL
MODEL 2
REMARK VINA RESULT:      -6.3      1.552      2.558
REMARK  Name = 
REMARK  9 active torsions:
REMARK  status: ('A' for Active; 'I' for Inactive)
REMARK    1  A    between atoms: N_1  and  C_2
REMARK    2  A    between atoms: C_2  and  C_3
REMARK    3  A    between atoms: C_2  and  C_10
REMARK    4  A    between atoms: C_3  and  C_4
REMARK    5  A    between atoms: C_10  and  O_11
REMARK    6  A    between atoms: C_10  and  C_12
REMARK    7  A    between atoms: C_12  and  C_13
REMARK    8  A    between atoms: C_13  and  C_14
REMARK    9  A    between atoms: C_14  and  O_16
REMARK                            x       y       z     vdW  Elec       q    Type
REMARK                         _______ _______ _______ _____ _____    ______ ____
ROOT
ATOM      1  C   UNL     1       4.766   4.656  17.008  0.00  0.00    +0.000 C 
ENDROOT
BRANCH   1   2
ATOM      2  N   UNL     1       5.240   5.331  15.777  0.00  0.00    +0.000 NA
ATOM      3  H   UNL     1       6.115   4.889  15.489  0.00  0.00    +0.000 HD
ATOM      4  H   UNL     1       5.506   6.292  16.003  0.00  0.00    +0.000 HD
ENDBRANCH   1   2
BRANCH   1   5
ATOM      5  C   UNL     1       3.656   5.497  17.692  0.00  0.00    +0.000 C 
BRANCH   5   6
ATOM      6  C   UNL     1       2.654   4.709  18.515  0.00  0.00    +0.000 A 
ATOM      7  C   UNL     1       2.306   5.119  19.809  0.00  0.00    +0.000 A 
ATOM      8  C   UNL     1       1.334   4.425  20.537  0.00  0.00    +0.000 A 
ATOM      9  C   UNL     1       0.713   3.306  19.988  0.00  0.00    +0.000 A 
ATOM     10  C   UNL     1       1.065   2.874  18.712  0.00  0.00    +0.000 A 
ATOM     11  C   UNL     1       2.028   3.572  17.979  0.00  0.00    +0.000 A 
ENDBRANCH   5   6
ENDBRANCH   1   5
BRANCH   1  12
ATOM     12  C   UNL     1       5.974   4.451  17.978  0.00  0.00    +0.000 C 
BRANCH  12  13
ATOM     13  O   UNL     1       5.666   3.395  18.894  0.00  0.00    +0.000 OA
ATOM     14  H   UNL     1       5.951   3.737  19.768  0.00  0.00    +0.000 HD
ENDBRANCH  12  13
BRANCH  12  15
ATOM     15  C   UNL     1       6.297   5.711  18.792  0.00  0.00    +0.000 C 
BRANCH  15  16
ATOM     16  C   UNL     1       7.733   6.212  18.598  0.00  0.00    +0.000 C 
BRANCH  16  17
ATOM     17  C   UNL     1       7.741   7.530  17.856  0.00  0.00    +0.000 C 
ATOM     18  O   UNL     1       8.312   8.545  18.229  0.00  0.00    +0.000 OA
BRANCH  17  19
ATOM     19  O   UNL     1       7.026   7.487  16.710  0.00  0.00    +0.000 OA
ATOM     20  H   UNL     1       6.327   8.166  16.658  0.00  0.00    +0.000 HD
ENDBRANCH  17  19
ENDBRANCH  16  17
ENDBRANCH  15  16
ENDBRANCH  12  15
ENDBRANCH   1  12
TORSDOF 9
ENDMDL
MODEL 3
REMARK VINA RESULT:      -6.3      0.779      1.377
REMARK  Name = 
REMARK  9 active torsions:
REMARK  status: ('A' for Active; 'I' for Inactive)
REMARK    1  A    between atoms: N_1  and  C_2
REMARK    2  A    between atoms: C_2  and  C_3
REMARK    3  A    between atoms: C_2  and  C_10
REMARK    4  A    between atoms: C_3  and  C_4
REMARK    5  A    between atoms: C_10  and  O_11
REMARK    6  A    between atoms: C_10  and  C_12
REMARK    7  A    between atoms: C_12  and  C_13
REMARK    8  A    between atoms: C_13  and  C_14
REMARK    9  A    between atoms: C_14  and  O_16
REMARK                            x       y       z     vdW  Elec       q    Type
REMARK                         _______ _______ _______ _____ _____    ______ ____
ROOT
ATOM      1  C   UNL     1       5.166   4.711  17.252  0.00  0.00    +0.000 C 
ENDROOT
BRANCH   1   2
ATOM      2  N   UNL     1       6.030   3.769  16.502  0.00  0.00    +0.000 NA
ATOM      3  H   UNL     1       6.082   4.089  15.532  0.00  0.00    +0.000 HD
ATOM      4  H   UNL     1       5.566   2.860  16.443  0.00  0.00    +0.000 HD
ENDBRANCH   1   2
BRANCH   1   5
ATOM      5  C   UNL     1       3.675   4.480  16.888  0.00  0.00    +0.000 C 
BRANCH   5   6
ATOM      6  C   UNL     1       2.753   4.209  18.062  0.00  0.00    +0.000 A 
ATOM      7  C   UNL     1       2.682   5.101  19.141  0.00  0.00    +0.000 A 
ATOM      8  C   UNL     1       1.783   4.878  20.188  0.00  0.00    +0.000 A 
ATOM      9  C   UNL     1       0.957   3.755  20.178  0.00  0.00    +0.000 A 
ATOM     10  C   UNL     1       1.034   2.850  19.123  0.00  0.00    +0.000 A 
ATOM     11  C   UNL     1       1.924   3.076  18.070  0.00  0.00    +0.000 A 
ENDBRANCH   5   6
ENDBRANCH   1   5
BRANCH   1  12
ATOM     12  C   UNL     1       5.592   6.176  16.914  0.00  0.00    +0.000 C 
BRANCH  12  13
ATOM     13  O   UNL     1       5.131   6.507  15.599  0.00  0.00    +0.000 OA
ATOM     14  H   UNL     1       5.640   5.915  15.005  0.00  0.00    +0.000 HD
ENDBRANCH  12  13
BRANCH  12  15
ATOM     15  C   UNL     1       7.114   6.371  16.950  0.00  0.00    +0.000 C 
BRANCH  15  16
ATOM     16  C   UNL     1       7.654   6.707  18.345  0.00  0.00    +0.000 C 
BRANCH  16  17
ATOM     17  C   UNL     1       8.014   5.443  19.094  0.00  0.00    +0.000 C 
ATOM     18  O   UNL     1       8.267   4.365  18.575  0.00  0.00    +0.000 OA
BRANCH  17  19
ATOM     19  O   UNL     1       8.022   5.616  20.435  0.00  0.00    +0.000 OA
ATOM     20  H   UNL     1       7.280   5.176  20.891  0.00  0.00    +0.000 HD
ENDBRANCH  17  19
ENDBRANCH  16  17
ENDBRANCH  15  16
ENDBRANCH  12  15
ENDBRANCH   1  12
TORSDOF 9
ENDMDL
MODEL 4
REMARK VINA RESULT:      -6.3      1.954      2.899
REMARK  Name = 
REMARK  9 active torsions:
REMARK  status: ('A' for Active; 'I' for Inactive)
REMARK    1  A    between atoms: N_1  and  C_2
REMARK    2  A    between atoms: C_2  and  C_3
REMARK    3  A    between atoms: C_2  and  C_10
REMARK    4  A    between atoms: C_3  and  C_4
REMARK    5  A    between atoms: C_10  and  O_11
REMARK    6  A    between atoms: C_10  and  C_12
REMARK    7  A    between atoms: C_12  and  C_13
REMARK    8  A    between atoms: C_13  and  C_14
REMARK    9  A    between atoms: C_14  and  O_16
REMARK                            x       y       z     vdW  Elec       q    Type
REMARK                         _______ _______ _______ _____ _____    ______ ____
ROOT
ATOM      1  C   UNL     1       5.516   5.207  19.147  0.00  0.00    +0.000 C 
ENDROOT
BRANCH   1   2
ATOM      2  N   UNL     1       5.655   3.732  19.131  0.00  0.00    +0.000 NA
ATOM      3  H   UNL     1       4.718   3.324  19.157  0.00  0.00    +0.000 HD
ATOM      4  H   UNL     1       6.087   3.426  20.006  0.00  0.00    +0.000 HD
ENDBRANCH   1   2
BRANCH   1   5
ATOM      5  C   UNL     1       4.125   5.624  18.599  0.00  0.00    +0.000 C 
BRANCH   5   6
ATOM      6  C   UNL     1       2.964   4.751  19.039  0.00  0.00    +0.000 A 
ATOM      7  C   UNL     1       2.488   4.798  20.356  0.00  0.00    +0.000 A 
ATOM      8  C   UNL     1       1.378   4.039  20.738  0.00  0.00    +0.000 A 
ATOM      9  C   UNL     1       0.740   3.214  19.814  0.00  0.00    +0.000 A 
ATOM     10  C   UNL     1       1.216   3.142  18.507  0.00  0.00    +0.000 A 
ATOM     11  C   UNL     1       2.319   3.907  18.121  0.00  0.00    +0.000 A 
ENDBRANCH   5   6
ENDBRANCH   1   5
BRANCH   1  12
ATOM     12  C   UNL     1       6.655   5.838  18.283  0.00  0.00    +0.000 C 
BRANCH  12  13
ATOM     13  O   UNL     1       6.094   6.836  17.423  0.00  0.00    +0.000 OA
ATOM     14  H   UNL     1       6.870   7.250  16.988  0.00  0.00    +0.000 HD
ENDBRANCH  12  13
BRANCH  12  15
ATOM     15  C   UNL     1       7.374   4.802  17.406  0.00  0.00    +0.000 C 
BRANCH  15  16
ATOM     16  C   UNL     1       7.082   4.962  15.910  0.00  0.00    +0.000 C 
BRANCH  16  17
ATOM     17  C   UNL     1       6.109   3.904  15.441  0.00  0.00    +0.000 C 
ATOM     18  O   UNL     1       5.196   3.440  16.110  0.00  0.00    +0.000 OA
BRANCH  17  19
ATOM     19  O   UNL     1       6.353   3.494  14.176  0.00  0.00    +0.000 OA
ATOM     20  H   UNL     1       5.930   2.645  13.950  0.00  0.00    +0.000 HD
ENDBRANCH  17  19
ENDBRANCH  16  17
ENDBRANCH  15  16
ENDBRANCH  12  15
ENDBRANCH   1  12
TORSDOF 9
ENDMDL
MODEL 5
REMARK VINA RESULT:      -6.2      3.459      5.718
REMARK  Name = 
REMARK  9 active torsions:
REMARK  status: ('A' for Active; 'I' for Inactive)
REMARK    1  A    between atoms: N_1  and  C_2
REMARK    2  A    between atoms: C_2  and  C_3
REMARK    3  A    between atoms: C_2  and  C_10
REMARK    4  A    between atoms: C_3  and  C_4
REMARK    5  A    between atoms: C_10  and  O_11
REMARK    6  A    between atoms: C_10  and  C_12
REMARK    7  A    between atoms: C_12  and  C_13
REMARK    8  A    between atoms: C_13  and  C_14
REMARK    9  A    between atoms: C_14  and  O_16
REMARK                            x       y       z     vdW  Elec       q    Type
REMARK                         _______ _______ _______ _____ _____    ______ ____
ROOT
ATOM      1  C   UNL     1       2.652   2.297  17.840  0.00  0.00    +0.000 C 
ENDROOT
BRANCH   1   2
ATOM      2  N   UNL     1       3.876   1.688  18.411  0.00  0.00    +0.000 NA
ATOM      3  H   UNL     1       3.666   0.717  18.649  0.00  0.00    +0.000 HD
ATOM      4  H   UNL     1       4.082   2.129  19.310  0.00  0.00    +0.000 HD
ENDBRANCH   1   2
BRANCH   1   5
ATOM      5  C   UNL     1       2.960   3.715  17.290  0.00  0.00    +0.000 C 
BRANCH   5   6
ATOM      6  C   UNL     1       4.423   4.114  17.302  0.00  0.00    +0.000 A 
ATOM      7  C   UNL     1       5.026   4.599  18.470  0.00  0.00    +0.000 A 
ATOM      8  C   UNL     1       6.390   4.905  18.492  0.00  0.00    +0.000 A 
ATOM      9  C   UNL     1       7.163   4.745  17.344  0.00  0.00    +0.000 A 
ATOM     10  C   UNL     1       6.572   4.285  16.170  0.00  0.00    +0.000 A 
ATOM     11  C   UNL     1       5.211   3.969  16.149  0.00  0.00    +0.000 A 
ENDBRANCH   5   6
ENDBRANCH   1   5
BRANCH   1  12
ATOM     12  C   UNL     1       1.551   2.366  18.947  0.00  0.00    +0.000 C 
BRANCH  12  13
ATOM     13  O   UNL     1       0.319   1.863  18.415  0.00  0.00    +0.000 OA
ATOM     14  H   UNL     1      -0.303   1.886  19.173  0.00  0.00    +0.000 HD
ENDBRANCH  12  13
BRANCH  12  15
ATOM     15  C   UNL     1       1.305   3.796  19.447  0.00  0.00    +0.000 C 
BRANCH  15  16
ATOM     16  C   UNL     1       2.093   4.141  20.716  0.00  0.00    +0.000 C 
BRANCH  16  17
ATOM     17  C   UNL     1       2.395   2.891  21.512  0.00  0.00    +0.000 C 
ATOM     18  O   UNL     1       3.462   2.295  21.508  0.00  0.00    +0.000 OA
BRANCH  17  19
ATOM     19  O   UNL     1       1.339   2.471  22.244  0.00  0.00    +0.000 OA
ATOM     20  H   UNL     1       1.517   2.432  23.202  0.00  0.00    +0.000 HD
ENDBRANCH  17  19
ENDBRANCH  16  17
ENDBRANCH  15  16
ENDBRANCH  12  15
ENDBRANCH   1  12
TORSDOF 9
ENDMDL
MODEL 6
REMARK VINA RESULT:      -6.2      3.420      5.587
REMARK  Name = 
REMARK  9 active torsions:
REMARK  status: ('A' for Active; 'I' for Inactive)
REMARK    1  A    between atoms: N_1  and  C_2
REMARK    2  A    between atoms: C_2  and  C_3
REMARK    3  A    between atoms: C_2  and  C_10
REMARK    4  A    between atoms: C_3  and  C_4
REMARK    5  A    between atoms: C_10  and  O_11
REMARK    6  A    between atoms: C_10  and  C_12
REMARK    7  A    between atoms: C_12  and  C_13
REMARK    8  A    between atoms: C_13  and  C_14
REMARK    9  A    between atoms: C_14  and  O_16
REMARK                            x       y       z     vdW  Elec       q    Type
REMARK                         _______ _______ _______ _____ _____    ______ ____
ROOT
ATOM      1  C   UNL     1       2.655   2.383  17.853  0.00  0.00    +0.000 C 
ENDROOT
BRANCH   1   2
ATOM      2  N   UNL     1       3.854   1.696  18.386  0.00  0.00    +0.000 NA
ATOM      3  H   UNL     1       4.388   1.330  17.595  0.00  0.00    +0.000 HD
ATOM      4  H   UNL     1       3.563   0.862  18.901  0.00  0.00    +0.000 HD
ENDBRANCH   1   2
BRANCH   1   5
ATOM      5  C   UNL     1       3.015   3.822  17.397  0.00  0.00    +0.000 C 
BRANCH   5   6
ATOM      6  C   UNL     1       4.482   4.190  17.503  0.00  0.00    +0.000 A 
ATOM      7  C   UNL     1       5.348   4.010  16.415  0.00  0.00    +0.000 A 
ATOM      8  C   UNL     1       6.685   4.411  16.497  0.00  0.00    +0.000 A 
ATOM      9  C   UNL     1       7.176   4.982  17.670  0.00  0.00    +0.000 A 
ATOM     10  C   UNL     1       6.332   5.148  18.765  0.00  0.00    +0.000 A 
ATOM     11  C   UNL     1       4.993   4.756  18.682  0.00  0.00    +0.000 A 
ENDBRANCH   5   6
ENDBRANCH   1   5
BRANCH   1  12
ATOM     12  C   UNL     1       1.552   2.419  18.961  0.00  0.00    +0.000 C 
BRANCH  12  13
ATOM     13  O   UNL     1       0.336   1.879  18.429  0.00  0.00    +0.000 OA
ATOM     14  H   UNL     1       0.115   2.468  17.676  0.00  0.00    +0.000 HD
ENDBRANCH  12  13
BRANCH  12  15
ATOM     15  C   UNL     1       1.264   3.842  19.461  0.00  0.00    +0.000 C 
BRANCH  15  16
ATOM     16  C   UNL     1       1.970   4.179  20.779  0.00  0.00    +0.000 C 
BRANCH  16  17
ATOM     17  C   UNL     1       2.348   2.916  21.519  0.00  0.00    +0.000 C 
ATOM     18  O   UNL     1       3.435   2.361  21.455  0.00  0.00    +0.000 OA
BRANCH  17  19
ATOM     19  O   UNL     1       1.337   2.432  22.274  0.00  0.00    +0.000 OA
ATOM     20  H   UNL     1       1.214   1.467  22.195  0.00  0.00    +0.000 HD
ENDBRANCH  17  19
ENDBRANCH  16  17
ENDBRANCH  15  16
ENDBRANCH  12  15
ENDBRANCH   1  12
TORSDOF 9
ENDMDL
MODEL 7
REMARK VINA RESULT:      -6.2      3.000      5.821
REMARK  Name = 
REMARK  9 active torsions:
REMARK  status: ('A' for Active; 'I' for Inactive)
REMARK    1  A    between atoms: N_1  and  C_2
REMARK    2  A    between atoms: C_2  and  C_3
REMARK    3  A    between atoms: C_2  and  C_10
REMARK    4  A    between atoms: C_3  and  C_4
REMARK    5  A    between atoms: C_10  and  O_11
REMARK    6  A    between atoms: C_10  and  C_12
REMARK    7  A    between atoms: C_12  and  C_13
REMARK    8  A    between atoms: C_13  and  C_14
REMARK    9  A    between atoms: C_14  and  O_16
REMARK                            x       y       z     vdW  Elec       q    Type
REMARK                         _______ _______ _______ _____ _____    ______ ____
ROOT
ATOM      1  C   UNL     1       4.120   3.252  18.188  0.00  0.00    +0.000 C 
ENDROOT
BRANCH   1   2
ATOM      2  N   UNL     1       4.715   2.468  19.296  0.00  0.00    +0.000 NA
ATOM      3  H   UNL     1       5.655   2.829  19.471  0.00  0.00    +0.000 HD
ATOM      4  H   UNL     1       4.869   1.507  18.982  0.00  0.00    +0.000 HD
ENDBRANCH   1   2
BRANCH   1   5
ATOM      5  C   UNL     1       4.042   4.754  18.572  0.00  0.00    +0.000 C 
BRANCH   5   6
ATOM      6  C   UNL     1       5.327   5.539  18.392  0.00  0.00    +0.000 A 
ATOM      7  C   UNL     1       6.432   5.310  19.225  0.00  0.00    +0.000 A 
ATOM      8  C   UNL     1       7.634   5.992  19.013  0.00  0.00    +0.000 A 
ATOM      9  C   UNL     1       7.742   6.920  17.979  0.00  0.00    +0.000 A 
ATOM     10  C   UNL     1       6.646   7.173  17.159  0.00  0.00    +0.000 A 
ATOM     11  C   UNL     1       5.446   6.486  17.362  0.00  0.00    +0.000 A 
ENDBRANCH   5   6
ENDBRANCH   1   5
BRANCH   1  12
ATOM     12  C   UNL     1       2.695   2.693  17.873  0.00  0.00    +0.000 C 
BRANCH  12  13
ATOM     13  O   UNL     1       1.850   3.771  17.455  0.00  0.00    +0.000 OA
ATOM     14  H   UNL     1       2.106   4.521  18.032  0.00  0.00    +0.000 HD
ENDBRANCH  12  13
BRANCH  12  15
ATOM     15  C   UNL     1       2.043   2.020  19.089  0.00  0.00    +0.000 C 
BRANCH  15  16
ATOM     16  C   UNL     1       1.080   2.938  19.851  0.00  0.00    +0.000 C 
BRANCH  16  17
ATOM     17  C   UNL     1       1.587   3.194  21.253  0.00  0.00    +0.000 C 
ATOM     18  O   UNL     1       1.497   2.411  22.188  0.00  0.00    +0.000 OA
BRANCH  17  19
ATOM     19  O   UNL     1       2.159   4.411  21.387  0.00  0.00    +0.000 OA
ATOM     20  H   UNL     1       1.531   5.114  21.638  0.00  0.00    +0.000 HD
ENDBRANCH  17  19
ENDBRANCH  16  17
ENDBRANCH  15  16
ENDBRANCH  12  15
ENDBRANCH   1  12
TORSDOF 9
ENDMDL
MODEL 8
REMARK VINA RESULT:      -6.2      2.068      2.996
REMARK  Name = 
REMARK  9 active torsions:
REMARK  status: ('A' for Active; 'I' for Inactive)
REMARK    1  A    between atoms: N_1  and  C_2
REMARK    2  A    between atoms: C_2  and  C_3
REMARK    3  A    between atoms: C_2  and  C_10
REMARK    4  A    between atoms: C_3  and  C_4
REMARK    5  A    between atoms: C_10  and  O_11
REMARK    6  A    between atoms: C_10  and  C_12
REMARK    7  A    between atoms: C_12  and  C_13
REMARK    8  A    between atoms: C_13  and  C_14
REMARK    9  A    between atoms: C_14  and  O_16
REMARK                            x       y       z     vdW  Elec       q    Type
REMARK                         _______ _______ _______ _____ _____    ______ ____
ROOT
ATOM      1  C   UNL     1       5.509   4.749  18.974  0.00  0.00    +0.000 C 
ENDROOT
BRANCH   1   2
ATOM      2  N   UNL     1       5.269   3.325  19.304  0.00  0.00    +0.000 NA
ATOM      3  H   UNL     1       6.138   2.934  19.674  0.00  0.00    +0.000 HD
ATOM      4  H   UNL     1       5.105   2.803  18.441  0.00  0.00    +0.000 HD
ENDBRANCH   1   2
BRANCH   1   5
ATOM      5  C   UNL     1       4.165   5.522  18.908  0.00  0.00    +0.000 C 
BRANCH   5   6
ATOM      6  C   UNL     1       2.926   4.702  19.211  0.00  0.00    +0.000 A 
ATOM      7  C   UNL     1       2.249   4.018  18.192  0.00  0.00    +0.000 A 
ATOM      8  C   UNL     1       1.146   3.212  18.488  0.00  0.00    +0.000 A 
ATOM      9  C   UNL     1       0.697   3.091  19.802  0.00  0.00    +0.000 A 
ATOM     10  C   UNL     1       1.348   3.781  20.821  0.00  0.00    +0.000 A 
ATOM     11  C   UNL     1       2.456   4.580  20.529  0.00  0.00    +0.000 A 
ENDBRANCH   5   6
ENDBRANCH   1   5
BRANCH   1  12
ATOM     12  C   UNL     1       6.259   4.838  17.605  0.00  0.00    +0.000 C 
BRANCH  12  13
ATOM     13  O   UNL     1       6.765   6.166  17.433  0.00  0.00    +0.000 OA
ATOM     14  H   UNL     1       7.727   6.087  17.609  0.00  0.00    +0.000 HD
ENDBRANCH  12  13
BRANCH  12  15
ATOM     15  C   UNL     1       5.349   4.515  16.411  0.00  0.00    +0.000 C 
BRANCH  15  16
ATOM     16  C   UNL     1       5.621   5.391  15.183  0.00  0.00    +0.000 C 
BRANCH  16  17
ATOM     17  C   UNL     1       6.729   4.799  14.341  0.00  0.00    +0.000 C 
ATOM     18  O   UNL     1       7.762   5.374  14.031  0.00  0.00    +0.000 OA
BRANCH  17  19
ATOM     19  O   UNL     1       6.460   3.537  13.939  0.00  0.00    +0.000 OA
ATOM     20  H   UNL     1       7.253   3.029  13.683  0.00  0.00    +0.000 HD
ENDBRANCH  17  19
ENDBRANCH  16  17
ENDBRANCH  15  16
ENDBRANCH  12  15
ENDBRANCH   1  12
TORSDOF 9
ENDMDL
MODEL 9
REMARK VINA RESULT:      -6.2      1.383      1.488
REMARK  Name = 
REMARK  9 active torsions:
REMARK  status: ('A' for Active; 'I' for Inactive)
REMARK    1  A    between atoms: N_1  and  C_2
REMARK    2  A    between atoms: C_2  and  C_3
REMARK    3  A    between atoms: C_2  and  C_10
REMARK    4  A    between atoms: C_3  and  C_4
REMARK    5  A    between atoms: C_10  and  O_11
REMARK    6  A    between atoms: C_10  and  C_12
REMARK    7  A    between atoms: C_12  and  C_13
REMARK    8  A    between atoms: C_13  and  C_14
REMARK    9  A    between atoms: C_14  and  O_16
REMARK                            x       y       z     vdW  Elec       q    Type
REMARK                         _______ _______ _______ _____ _____    ______ ____
ROOT
ATOM      1  C   UNL     1       4.851   4.279  17.456  0.00  0.00    +0.000 C 
ENDROOT
BRANCH   1   2
ATOM      2  N   UNL     1       4.720   2.818  17.249  0.00  0.00    +0.000 NA
ATOM      3  H   UNL     1       4.813   2.359  18.157  0.00  0.00    +0.000 HD
ATOM      4  H   UNL     1       5.523   2.481  16.713  0.00  0.00    +0.000 HD
ENDBRANCH   1   2
BRANCH   1   5
ATOM      5  C   UNL     1       3.449   4.934  17.578  0.00  0.00    +0.000 C 
BRANCH   5   6
ATOM      6  C   UNL     1       2.579   4.405  18.702  0.00  0.00    +0.000 A 
ATOM      7  C   UNL     1       1.515   3.532  18.436  0.00  0.00    +0.000 A 
ATOM      8  C   UNL     1       0.756   2.997  19.482  0.00  0.00    +0.000 A 
ATOM      9  C   UNL     1       1.041   3.339  20.802  0.00  0.00    +0.000 A 
ATOM     10  C   UNL     1       2.082   4.222  21.079  0.00  0.00    +0.000 A 
ATOM     11  C   UNL     1       2.847   4.750  20.036  0.00  0.00    +0.000 A 
ENDBRANCH   5   6
ENDBRANCH   1   5
BRANCH   1  12
ATOM     12  C   UNL     1       5.642   4.897  16.258  0.00  0.00    +0.000 C 
BRANCH  12  13
ATOM     13  O   UNL     1       5.986   3.856  15.337  0.00  0.00    +0.000 OA
ATOM     14  H   UNL     1       5.296   3.906  14.641  0.00  0.00    +0.000 HD
ENDBRANCH  12  13
BRANCH  12  15
ATOM     15  C   UNL     1       6.938   5.590  16.701  0.00  0.00    +0.000 C 
BRANCH  15  16
ATOM     16  C   UNL     1       7.583   4.947  17.934  0.00  0.00    +0.000 C 
BRANCH  16  17
ATOM     17  C   UNL     1       7.917   5.998  18.969  0.00  0.00    +0.000 C 
ATOM     18  O   UNL     1       8.264   7.144  18.722  0.00  0.00    +0.000 OA
BRANCH  17  19
ATOM     19  O   UNL     1       7.806   5.538  20.235  0.00  0.00    +0.000 OA
ATOM     20  H   UNL     1       8.182   4.647  20.363  0.00  0.00    +0.000 HD
ENDBRANCH  17  19
ENDBRANCH  16  17
ENDBRANCH  15  16
ENDBRANCH  12  15
ENDBRANCH   1  12
TORSDOF 9
ENDMDL
