MODEL 1
REMARK VINA RESULT:      -8.4      0.000      0.000
REMARK  Name = 
REMARK  8 active torsions:
REMARK  status: ('A' for Active; 'I' for Inactive)
REMARK    1  A    between atoms: C_1  and  C_2
REMARK    2  A    between atoms: C_5  and  C_6
REMARK    3  A    between atoms: C_12  and  O_13
REMARK    4  A    between atoms: O_13  and  C_14
REMARK    5  A    between atoms: C_14  and  C_15
REMARK    6  A    between atoms: N_21  and  C_22
REMARK    7  A    between atoms: C_26  and  S_27
REMARK    8  A    between atoms: S_27  and  C_28
REMARK                            x       y       z     vdW  Elec       q    Type
REMARK                         _______ _______ _______ _____ _____    ______ ____
ROOT
ATOM      1  C   UNL     1       1.191   3.925  20.497  0.00  0.00    +0.000 C 
ATOM      2  C   UNL     1       2.619   3.954  20.047  0.00  0.00    +0.000 A 
ATOM      3  C   UNL     1       3.528   2.927  20.166  0.00  0.00    +0.000 A 
ATOM      4  C   UNL     1       4.707   3.313  19.502  0.00  0.00    +0.000 A 
ATOM      5  C   UNL     1       4.545   4.589  18.972  0.00  0.00    +0.000 A 
ATOM      6  N   UNL     1       3.235   5.009  19.357  0.00  0.00    +0.000 N 
ENDROOT
BRANCH   5   7
ATOM      7  C   UNL     1       5.587   5.375  18.230  0.00  0.00    +0.000 A 
ATOM      8  C   UNL     1       6.684   5.903  18.924  0.00  0.00    +0.000 A 
ATOM      9  C   UNL     1       7.519   6.864  18.364  0.00  0.00    +0.000 A 
ATOM     10 CL   UNL     1       8.679   7.673  19.352  0.00  0.00    +0.000 Cl
ATOM     11  C   UNL     1       7.370   7.241  17.043  0.00  0.00    +0.000 A 
ATOM     12  C   UNL     1       6.398   6.607  16.274  0.00  0.00    +0.000 A 
ATOM     13  C   UNL     1       5.531   5.645  16.833  0.00  0.00    +0.000 A 
BRANCH  13  14
ATOM     14  O   UNL     1       4.637   4.965  16.034  0.00  0.00    +0.000 OA
BRANCH  14  15
ATOM     15  C   UNL     1       5.131   3.716  15.513  0.00  0.00    +0.000 C 
BRANCH  15  16
ATOM     16  C   UNL     1       5.832   3.914  14.193  0.00  0.00    +0.000 A 
ATOM     17  C   UNL     1       7.031   4.636  14.126  0.00  0.00    +0.000 A 
ATOM     18  C   UNL     1       7.675   4.818  12.901  0.00  0.00    +0.000 A 
ATOM     19  C   UNL     1       7.131   4.280  11.736  0.00  0.00    +0.000 A 
ATOM     20  C   UNL     1       5.949   3.544  11.794  0.00  0.00    +0.000 A 
ATOM     21  C   UNL     1       5.303   3.361  13.017  0.00  0.00    +0.000 A 
ENDBRANCH  15  16
ENDBRANCH  14  15
ENDBRANCH  13  14
ENDBRANCH   5   7
BRANCH   6  22
ATOM     22  C   UNL     1       2.633   6.302  19.162  0.00  0.00    +0.000 A 
ATOM     23  C   UNL     1       2.693   6.957  17.925  0.00  0.00    +0.000 A 
ATOM     24  C   UNL     1       2.332   8.307  17.819  0.00  0.00    +0.000 A 
ATOM     25  C   UNL     1       1.808   8.987  18.918  0.00  0.00    +0.000 A 
ATOM     26  C   UNL     1       1.644   8.304  20.121  0.00  0.00    +0.000 A 
ATOM     27  C   UNL     1       2.068   6.976  20.256  0.00  0.00    +0.000 A 
BRANCH  26  28
ATOM     28  S   UNL     1       0.833   9.100  21.489  0.00  0.00    +0.000 S 
ATOM     29  C   UNL     1       0.427  10.710  20.869  0.00  0.00    +0.000 C 
ATOM     30  O   UNL     1      -0.406   8.389  21.739  0.00  0.00    +0.000 OA
ATOM     31  O   UNL     1       1.823   9.259  22.539  0.00  0.00    +0.000 OA
ENDBRANCH  26  28
ENDBRANCH   6  22
TORSDOF 6
ENDMDL
MODEL 2
REMARK VINA RESULT:      -8.2      7.206     10.495
REMARK  Name = 
REMARK  8 active torsions:
REMARK  status: ('A' for Active; 'I' for Inactive)
REMARK    1  A    between atoms: C_1  and  C_2
REMARK    2  A    between atoms: C_5  and  C_6
REMARK    3  A    between atoms: C_12  and  O_13
REMARK    4  A    between atoms: O_13  and  C_14
REMARK    5  A    between atoms: C_14  and  C_15
REMARK    6  A    between atoms: N_21  and  C_22
REMARK    7  A    between atoms: C_26  and  S_27
REMARK    8  A    between atoms: S_27  and  C_28
REMARK                            x       y       z     vdW  Elec       q    Type
REMARK                         _______ _______ _______ _____ _____    ______ ____
ROOT
ATOM      1  C   UNL     1       1.270   8.617  20.444  0.00  0.00    +0.000 C 
ATOM      2  C   UNL     1       0.472   9.357  21.473  0.00  0.00    +0.000 A 
ATOM      3  C   UNL     1       0.350   9.020  22.802  0.00  0.00    +0.000 A 
ATOM      4  C   UNL     1      -0.371  10.043  23.444  0.00  0.00    +0.000 A 
ATOM      5  C   UNL     1      -0.714  11.022  22.517  0.00  0.00    +0.000 A 
ATOM      6  N   UNL     1      -0.214  10.562  21.260  0.00  0.00    +0.000 N 
ENDROOT
BRANCH   5   7
ATOM      7  C   UNL     1      -1.524  12.255  22.794  0.00  0.00    +0.000 A 
ATOM      8  C   UNL     1      -2.864  12.132  23.187  0.00  0.00    +0.000 A 
ATOM      9  C   UNL     1      -3.737  13.215  23.182  0.00  0.00    +0.000 A 
ATOM     10 CL   UNL     1      -5.427  12.953  23.409  0.00  0.00    +0.000 Cl
ATOM     11  C   UNL     1      -3.276  14.488  22.909  0.00  0.00    +0.000 A 
ATOM     12  C   UNL     1      -1.914  14.671  22.685  0.00  0.00    +0.000 A 
ATOM     13  C   UNL     1      -1.020  13.581  22.668  0.00  0.00    +0.000 A 
BRANCH  13  14
ATOM     14  O   UNL     1       0.336  13.793  22.533  0.00  0.00    +0.000 OA
BRANCH  14  15
ATOM     15  C   UNL     1       0.704  15.165  22.293  0.00  0.00    +0.000 C 
BRANCH  15  16
ATOM     16  C   UNL     1       1.434  15.313  20.982  0.00  0.00    +0.000 A 
ATOM     17  C   UNL     1       0.904  16.108  19.958  0.00  0.00    +0.000 A 
ATOM     18  C   UNL     1       1.583  16.240  18.747  0.00  0.00    +0.000 A 
ATOM     19  C   UNL     1       2.796  15.583  18.547  0.00  0.00    +0.000 A 
ATOM     20  C   UNL     1       3.343  14.804  19.566  0.00  0.00    +0.000 A 
ATOM     21  C   UNL     1       2.666  14.671  20.778  0.00  0.00    +0.000 A 
ENDBRANCH  15  16
ENDBRANCH  14  15
ENDBRANCH  13  14
ENDBRANCH   5   7
BRANCH   6  22
ATOM     22  C   UNL     1      -0.417  11.154  19.963  0.00  0.00    +0.000 A 
ATOM     23  C   UNL     1       0.351  12.241  19.528  0.00  0.00    +0.000 A 
ATOM     24  C   UNL     1      -0.021  12.960  18.384  0.00  0.00    +0.000 A 
ATOM     25  C   UNL     1      -1.100  12.541  17.606  0.00  0.00    +0.000 A 
ATOM     26  C   UNL     1      -1.797  11.395  17.978  0.00  0.00    +0.000 A 
ATOM     27  C   UNL     1      -1.477  10.709  19.156  0.00  0.00    +0.000 A 
BRANCH  26  28
ATOM     28  S   UNL     1      -3.072  10.749  16.919  0.00  0.00    +0.000 S 
ATOM     29  C   UNL     1      -4.488  11.746  17.296  0.00  0.00    +0.000 C 
ATOM     30  O   UNL     1      -2.685  11.021  15.548  0.00  0.00    +0.000 OA
ATOM     31  O   UNL     1      -3.348   9.394  17.358  0.00  0.00    +0.000 OA
ENDBRANCH  26  28
ENDBRANCH   6  22
TORSDOF 6
ENDMDL
MODEL 3
REMARK VINA RESULT:      -8.0      7.565     11.143
REMARK  Name = 
REMARK  8 active torsions:
REMARK  status: ('A' for Active; 'I' for Inactive)
REMARK    1  A    between atoms: C_1  and  C_2
REMARK    2  A    between atoms: C_5  and  C_6
REMARK    3  A    between atoms: C_12  and  O_13
REMARK    4  A    between atoms: O_13  and  C_14
REMARK    5  A    between atoms: C_14  and  C_15
REMARK    6  A    between atoms: N_21  and  C_22
REMARK    7  A    between atoms: C_26  and  S_27
REMARK    8  A    between atoms: S_27  and  C_28
REMARK                            x       y       z     vdW  Elec       q    Type
REMARK                         _______ _______ _______ _____ _____    ______ ____
ROOT
ATOM      1  C   UNL     1      -3.016  10.593  16.904  0.00  0.00    +0.000 C 
ATOM      2  C   UNL     1      -3.567  11.457  17.995  0.00  0.00    +0.000 A 
ATOM      3  C   UNL     1      -4.864  11.906  18.100  0.00  0.00    +0.000 A 
ATOM      4  C   UNL     1      -4.995  12.570  19.333  0.00  0.00    +0.000 A 
ATOM      5  C   UNL     1      -3.776  12.550  20.003  0.00  0.00    +0.000 A 
ATOM      6  N   UNL     1      -2.862  11.881  19.132  0.00  0.00    +0.000 N 
ENDROOT
BRANCH   5   7
ATOM      7  C   UNL     1      -3.489  13.190  21.331  0.00  0.00    +0.000 A 
ATOM      8  C   UNL     1      -3.845  12.527  22.513  0.00  0.00    +0.000 A 
ATOM      9  C   UNL     1      -3.869  13.175  23.744  0.00  0.00    +0.000 A 
ATOM     10 CL   UNL     1      -4.574  12.392  25.110  0.00  0.00    +0.000 Cl
ATOM     11  C   UNL     1      -3.414  14.474  23.864  0.00  0.00    +0.000 A 
ATOM     12  C   UNL     1      -2.890  15.103  22.738  0.00  0.00    +0.000 A 
ATOM     13  C   UNL     1      -2.876  14.467  21.480  0.00  0.00    +0.000 A 
BRANCH  13  14
ATOM     14  O   UNL     1      -2.272  15.072  20.399  0.00  0.00    +0.000 OA
BRANCH  14  15
ATOM     15  C   UNL     1      -1.336  16.111  20.743  0.00  0.00    +0.000 C 
BRANCH  15  16
ATOM     16  C   UNL     1       0.087  15.651  20.548  0.00  0.00    +0.000 A 
ATOM     17  C   UNL     1       0.715  14.854  21.514  0.00  0.00    +0.000 A 
ATOM     18  C   UNL     1       2.033  14.433  21.331  0.00  0.00    +0.000 A 
ATOM     19  C   UNL     1       2.732  14.799  20.182  0.00  0.00    +0.000 A 
ATOM     20  C   UNL     1       2.111  15.576  19.205  0.00  0.00    +0.000 A 
ATOM     21  C   UNL     1       0.794  15.998  19.387  0.00  0.00    +0.000 A 
ENDBRANCH  15  16
ENDBRANCH  14  15
ENDBRANCH  13  14
ENDBRANCH   5   7
BRANCH   6  22
ATOM     22  C   UNL     1      -1.443  11.711  19.309  0.00  0.00    +0.000 A 
ATOM     23  C   UNL     1      -0.521  12.500  18.610  0.00  0.00    +0.000 A 
ATOM     24  C   UNL     1       0.839  12.158  18.599  0.00  0.00    +0.000 A 
ATOM     25  C   UNL     1       1.306  11.093  19.367  0.00  0.00    +0.000 A 
ATOM     26  C   UNL     1       0.405  10.376  20.150  0.00  0.00    +0.000 A 
ATOM     27  C   UNL     1      -0.965  10.665  20.114  0.00  0.00    +0.000 A 
BRANCH  26  28
ATOM     28  S   UNL     1       0.997   9.118  21.259  0.00  0.00    +0.000 S 
ATOM     29  C   UNL     1      -0.479   8.325  21.835  0.00  0.00    +0.000 C 
ATOM     30  O   UNL     1       1.745   8.156  20.473  0.00  0.00    +0.000 OA
ATOM     31  O   UNL     1       1.612   9.795  22.385  0.00  0.00    +0.000 OA
ENDBRANCH  26  28
ENDBRANCH   6  22
TORSDOF 6
ENDMDL
MODEL 4
REMARK VINA RESULT:      -7.9      0.802      1.225
REMARK  Name = 
REMARK  8 active torsions:
REMARK  status: ('A' for Active; 'I' for Inactive)
REMARK    1  A    between atoms: C_1  and  C_2
REMARK    2  A    between atoms: C_5  and  C_6
REMARK    3  A    between atoms: C_12  and  O_13
REMARK    4  A    between atoms: O_13  and  C_14
REMARK    5  A    between atoms: C_14  and  C_15
REMARK    6  A    between atoms: N_21  and  C_22
REMARK    7  A    between atoms: C_26  and  S_27
REMARK    8  A    between atoms: S_27  and  C_28
REMARK                            x       y       z     vdW  Elec       q    Type
REMARK                         _______ _______ _______ _____ _____    ______ ____
ROOT
ATOM      1  C   UNL     1       0.515   3.552  19.200  0.00  0.00    +0.000 C 
ATOM      2  C   UNL     1       2.009   3.463  19.142  0.00  0.00    +0.000 A 
ATOM      3  C   UNL     1       2.760   2.317  19.268  0.00  0.00    +0.000 A 
ATOM      4  C   UNL     1       4.103   2.649  19.019  0.00  0.00    +0.000 A 
ATOM      5  C   UNL     1       4.202   4.010  18.745  0.00  0.00    +0.000 A 
ATOM      6  N   UNL     1       2.878   4.530  18.867  0.00  0.00    +0.000 N 
ENDROOT
BRANCH   5   7
ATOM      7  C   UNL     1       5.471   4.765  18.472  0.00  0.00    +0.000 A 
ATOM      8  C   UNL     1       6.483   4.797  19.442  0.00  0.00    +0.000 A 
ATOM      9  C   UNL     1       7.542   5.696  19.373  0.00  0.00    +0.000 A 
ATOM     10 CL   UNL     1       8.601   5.877  20.724  0.00  0.00    +0.000 Cl
ATOM     11  C   UNL     1       7.704   6.510  18.269  0.00  0.00    +0.000 A 
ATOM     12  C   UNL     1       6.812   6.379  17.208  0.00  0.00    +0.000 A 
ATOM     13  C   UNL     1       5.722   5.486  17.270  0.00  0.00    +0.000 A 
BRANCH  13  14
ATOM     14  O   UNL     1       4.904   5.307  16.175  0.00  0.00    +0.000 OA
BRANCH  14  15
ATOM     15  C   UNL     1       5.023   4.017  15.546  0.00  0.00    +0.000 C 
BRANCH  15  16
ATOM     16  C   UNL     1       5.792   4.109  14.252  0.00  0.00    +0.000 A 
ATOM     17  C   UNL     1       5.359   3.412  13.117  0.00  0.00    +0.000 A 
ATOM     18  C   UNL     1       6.076   3.499  11.922  0.00  0.00    +0.000 A 
ATOM     19  C   UNL     1       7.227   4.282  11.850  0.00  0.00    +0.000 A 
ATOM     20  C   UNL     1       7.656   4.995  12.969  0.00  0.00    +0.000 A 
ATOM     21  C   UNL     1       6.941   4.910  14.163  0.00  0.00    +0.000 A 
ENDBRANCH  15  16
ENDBRANCH  14  15
ENDBRANCH  13  14
ENDBRANCH   5   7
BRANCH   6  22
ATOM     22  C   UNL     1       2.465   5.908  18.803  0.00  0.00    +0.000 A 
ATOM     23  C   UNL     1       2.640   6.670  17.640  0.00  0.00    +0.000 A 
ATOM     24  C   UNL     1       2.471   8.061  17.672  0.00  0.00    +0.000 A 
ATOM     25  C   UNL     1       2.024   8.692  18.832  0.00  0.00    +0.000 A 
ATOM     26  C   UNL     1       1.744   7.921  19.957  0.00  0.00    +0.000 A 
ATOM     27  C   UNL     1       1.976   6.540  19.957  0.00  0.00    +0.000 A 
BRANCH  26  28
ATOM     28  S   UNL     1       1.023   8.679  21.396  0.00  0.00    +0.000 S 
ATOM     29  C   UNL     1       0.762  10.363  20.907  0.00  0.00    +0.000 C 
ATOM     30  O   UNL     1      -0.274   8.069  21.611  0.00  0.00    +0.000 OA
ATOM     31  O   UNL     1       2.033   8.665  22.438  0.00  0.00    +0.000 OA
ENDBRANCH  26  28
ENDBRANCH   6  22
TORSDOF 6
ENDMDL
MODEL 5
REMARK VINA RESULT:      -7.9      5.122      8.973
REMARK  Name = 
REMARK  8 active torsions:
REMARK  status: ('A' for Active; 'I' for Inactive)
REMARK    1  A    between atoms: C_1  and  C_2
REMARK    2  A    between atoms: C_5  and  C_6
REMARK    3  A    between atoms: C_12  and  O_13
REMARK    4  A    between atoms: O_13  and  C_14
REMARK    5  A    between atoms: C_14  and  C_15
REMARK    6  A    between atoms: N_21  and  C_22
REMARK    7  A    between atoms: C_26  and  S_27
REMARK    8  A    between atoms: S_27  and  C_28
REMARK                            x       y       z     vdW  Elec       q    Type
REMARK                         _______ _______ _______ _____ _____    ______ ____
ROOT
ATOM      1  C   UNL     1       1.517  15.130  21.969  0.00  0.00    +0.000 C 
ATOM      2  C   UNL     1       1.152  14.468  20.676  0.00  0.00    +0.000 A 
ATOM      3  C   UNL     1       1.733  14.706  19.451  0.00  0.00    +0.000 A 
ATOM      4  C   UNL     1       1.196  13.787  18.531  0.00  0.00    +0.000 A 
ATOM      5  C   UNL     1       0.268  12.974  19.175  0.00  0.00    +0.000 A 
ATOM      6  N   UNL     1       0.212  13.438  20.525  0.00  0.00    +0.000 N 
ENDROOT
BRANCH   5   7
ATOM      7  C   UNL     1      -0.558  11.897  18.532  0.00  0.00    +0.000 A 
ATOM      8  C   UNL     1      -1.777  12.227  17.924  0.00  0.00    +0.000 A 
ATOM      9  C   UNL     1      -2.711  11.258  17.570  0.00  0.00    +0.000 A 
ATOM     10 CL   UNL     1      -4.296  11.735  17.081  0.00  0.00    +0.000 Cl
ATOM     11  C   UNL     1      -2.411   9.915  17.690  0.00  0.00    +0.000 A 
ATOM     12  C   UNL     1      -1.140   9.552  18.129  0.00  0.00    +0.000 A 
ATOM     13  C   UNL     1      -0.190  10.522  18.510  0.00  0.00    +0.000 A 
BRANCH  13  14
ATOM     14  O   UNL     1       1.090  10.145  18.856  0.00  0.00    +0.000 OA
BRANCH  14  15
ATOM     15  C   UNL     1       1.166   9.257  19.987  0.00  0.00    +0.000 C 
BRANCH  15  16
ATOM     16  C   UNL     1       1.809   7.945  19.609  0.00  0.00    +0.000 A 
ATOM     17  C   UNL     1       2.487   7.811  18.391  0.00  0.00    +0.000 A 
ATOM     18  C   UNL     1       3.078   6.595  18.046  0.00  0.00    +0.000 A 
ATOM     19  C   UNL     1       3.000   5.506  18.912  0.00  0.00    +0.000 A 
ATOM     20  C   UNL     1       2.344   5.634  20.136  0.00  0.00    +0.000 A 
ATOM     21  C   UNL     1       1.753   6.849  20.483  0.00  0.00    +0.000 A 
ENDBRANCH  15  16
ENDBRANCH  14  15
ENDBRANCH  13  14
ENDBRANCH   5   7
BRANCH   6  22
ATOM     22  C   UNL     1      -0.686  13.010  21.566  0.00  0.00    +0.000 A 
ATOM     23  C   UNL     1      -0.503  11.792  22.233  0.00  0.00    +0.000 A 
ATOM     24  C   UNL     1      -1.513  11.275  23.055  0.00  0.00    +0.000 A 
ATOM     25  C   UNL     1      -2.671  12.013  23.302  0.00  0.00    +0.000 A 
ATOM     26  C   UNL     1      -2.805  13.273  22.726  0.00  0.00    +0.000 A 
ATOM     27  C   UNL     1      -1.833  13.769  21.848  0.00  0.00    +0.000 A 
BRANCH  26  28
ATOM     28  S   UNL     1      -4.194  14.299  23.151  0.00  0.00    +0.000 S 
ATOM     29  C   UNL     1      -5.544  13.159  23.289  0.00  0.00    +0.000 C 
ATOM     30  O   UNL     1      -3.943  14.858  24.465  0.00  0.00    +0.000 OA
ATOM     31  O   UNL     1      -4.452  15.163  22.013  0.00  0.00    +0.000 OA
ENDBRANCH  26  28
ENDBRANCH   6  22
TORSDOF 6
ENDMDL
MODEL 6
REMARK VINA RESULT:      -7.9      4.750      8.365
REMARK  Name = 
REMARK  8 active torsions:
REMARK  status: ('A' for Active; 'I' for Inactive)
REMARK    1  A    between atoms: C_1  and  C_2
REMARK    2  A    between atoms: C_5  and  C_6
REMARK    3  A    between atoms: C_12  and  O_13
REMARK    4  A    between atoms: O_13  and  C_14
REMARK    5  A    between atoms: C_14  and  C_15
REMARK    6  A    between atoms: N_21  and  C_22
REMARK    7  A    between atoms: C_26  and  S_27
REMARK    8  A    between atoms: S_27  and  C_28
REMARK                            x       y       z     vdW  Elec       q    Type
REMARK                         _______ _______ _______ _____ _____    ______ ____
ROOT
ATOM      1  C   UNL     1       2.287  14.218  21.753  0.00  0.00    +0.000 C 
ATOM      2  C   UNL     1       1.655  13.807  20.459  0.00  0.00    +0.000 A 
ATOM      3  C   UNL     1       2.004  14.257  19.206  0.00  0.00    +0.000 A 
ATOM      4  C   UNL     1       1.263  13.526  18.260  0.00  0.00    +0.000 A 
ATOM      5  C   UNL     1       0.437  12.619  18.918  0.00  0.00    +0.000 A 
ATOM      6  N   UNL     1       0.658  12.831  20.314  0.00  0.00    +0.000 N 
ENDROOT
BRANCH   5   7
ATOM      7  C   UNL     1      -0.542  11.685  18.268  0.00  0.00    +0.000 A 
ATOM      8  C   UNL     1      -1.840  12.131  17.979  0.00  0.00    +0.000 A 
ATOM      9  C   UNL     1      -2.865  11.251  17.648  0.00  0.00    +0.000 A 
ATOM     10 CL   UNL     1      -4.492  11.822  17.572  0.00  0.00    +0.000 Cl
ATOM     11  C   UNL     1      -2.607   9.907  17.465  0.00  0.00    +0.000 A 
ATOM     12  C   UNL     1      -1.293   9.459  17.574  0.00  0.00    +0.000 A 
ATOM     13  C   UNL     1      -0.246  10.335  17.928  0.00  0.00    +0.000 A 
BRANCH  13  14
ATOM     14  O   UNL     1       1.059   9.891  17.944  0.00  0.00    +0.000 OA
BRANCH  14  15
ATOM     15  C   UNL     1       1.442   9.205  19.151  0.00  0.00    +0.000 C 
BRANCH  15  16
ATOM     16  C   UNL     1       2.335   8.027  18.851  0.00  0.00    +0.000 A 
ATOM     17  C   UNL     1       3.112   8.003  17.686  0.00  0.00    +0.000 A 
ATOM     18  C   UNL     1       3.935   6.910  17.412  0.00  0.00    +0.000 A 
ATOM     19  C   UNL     1       3.992   5.835  18.297  0.00  0.00    +0.000 A 
ATOM     20  C   UNL     1       3.237   5.857  19.469  0.00  0.00    +0.000 A 
ATOM     21  C   UNL     1       2.414   6.949  19.746  0.00  0.00    +0.000 A 
ENDBRANCH  15  16
ENDBRANCH  14  15
ENDBRANCH  13  14
ENDBRANCH   5   7
BRANCH   6  22
ATOM     22  C   UNL     1      -0.046  12.229  21.416  0.00  0.00    +0.000 A 
ATOM     23  C   UNL     1       0.405  11.044  22.011  0.00  0.00    +0.000 A 
ATOM     24  C   UNL     1      -0.417  10.341  22.903  0.00  0.00    +0.000 A 
ATOM     25  C   UNL     1      -1.650  10.865  23.290  0.00  0.00    +0.000 A 
ATOM     26  C   UNL     1      -2.050  12.099  22.783  0.00  0.00    +0.000 A 
ATOM     27  C   UNL     1      -1.269  12.775  21.839  0.00  0.00    +0.000 A 
BRANCH  26  28
ATOM     28  S   UNL     1      -3.541  12.863  23.382  0.00  0.00    +0.000 S 
ATOM     29  C   UNL     1      -2.967  14.282  24.274  0.00  0.00    +0.000 C 
ATOM     30  O   UNL     1      -4.289  13.329  22.230  0.00  0.00    +0.000 OA
ATOM     31  O   UNL     1      -4.140  11.945  24.334  0.00  0.00    +0.000 OA
ENDBRANCH  26  28
ENDBRANCH   6  22
TORSDOF 6
ENDMDL
MODEL 7
REMARK VINA RESULT:      -7.9      8.694     10.263
REMARK  Name = 
REMARK  8 active torsions:
REMARK  status: ('A' for Active; 'I' for Inactive)
REMARK    1  A    between atoms: C_1  and  C_2
REMARK    2  A    between atoms: C_5  and  C_6
REMARK    3  A    between atoms: C_12  and  O_13
REMARK    4  A    between atoms: O_13  and  C_14
REMARK    5  A    between atoms: C_14  and  C_15
REMARK    6  A    between atoms: N_21  and  C_22
REMARK    7  A    between atoms: C_26  and  S_27
REMARK    8  A    between atoms: S_27  and  C_28
REMARK                            x       y       z     vdW  Elec       q    Type
REMARK                         _______ _______ _______ _____ _____    ______ ____
ROOT
ATOM      1  C   UNL     1       9.219  16.808  18.424  0.00  0.00    +0.000 C 
ATOM      2  C   UNL     1       9.558  15.956  19.608  0.00  0.00    +0.000 A 
ATOM      3  C   UNL     1      10.806  15.803  20.168  0.00  0.00    +0.000 A 
ATOM      4  C   UNL     1      10.667  15.031  21.335  0.00  0.00    +0.000 A 
ATOM      5  C   UNL     1       9.330  14.686  21.506  0.00  0.00    +0.000 A 
ATOM      6  N   UNL     1       8.637  15.239  20.386  0.00  0.00    +0.000 N 
ENDROOT
BRANCH   5   7
ATOM      7  C   UNL     1       8.773  13.830  22.607  0.00  0.00    +0.000 A 
ATOM      8  C   UNL     1       8.587  14.375  23.885  0.00  0.00    +0.000 A 
ATOM      9  C   UNL     1       8.352  13.578  25.000  0.00  0.00    +0.000 A 
ATOM     10 CL   UNL     1       8.403  14.275  26.578  0.00  0.00    +0.000 Cl
ATOM     11  C   UNL     1       8.163  12.216  24.865  0.00  0.00    +0.000 A 
ATOM     12  C   UNL     1       8.169  11.666  23.585  0.00  0.00    +0.000 A 
ATOM     13  C   UNL     1       8.426  12.458  22.447  0.00  0.00    +0.000 A 
BRANCH  13  14
ATOM     14  O   UNL     1       8.338  11.912  21.184  0.00  0.00    +0.000 OA
BRANCH  14  15
ATOM     15  C   UNL     1       9.479  11.123  20.794  0.00  0.00    +0.000 C 
BRANCH  15  16
ATOM     16  C   UNL     1      10.238  11.779  19.668  0.00  0.00    +0.000 A 
ATOM     17  C   UNL     1      11.636  11.867  19.710  0.00  0.00    +0.000 A 
ATOM     18  C   UNL     1      12.333  12.477  18.667  0.00  0.00    +0.000 A 
ATOM     19  C   UNL     1      11.645  13.000  17.574  0.00  0.00    +0.000 A 
ATOM     20  C   UNL     1      10.255  12.901  17.512  0.00  0.00    +0.000 A 
ATOM     21  C   UNL     1       9.556  12.292  18.554  0.00  0.00    +0.000 A 
ENDBRANCH  15  16
ENDBRANCH  14  15
ENDBRANCH  13  14
ENDBRANCH   5   7
BRANCH   6  22
ATOM     22  C   UNL     1       7.253  15.058  20.032  0.00  0.00    +0.000 A 
ATOM     23  C   UNL     1       6.872  14.709  18.730  0.00  0.00    +0.000 A 
ATOM     24  C   UNL     1       5.527  14.784  18.340  0.00  0.00    +0.000 A 
ATOM     25  C   UNL     1       4.539  15.107  19.270  0.00  0.00    +0.000 A 
ATOM     26  C   UNL     1       4.906  15.347  20.592  0.00  0.00    +0.000 A 
ATOM     27  C   UNL     1       6.253  15.342  20.975  0.00  0.00    +0.000 A 
BRANCH  26  28
ATOM     28  S   UNL     1       3.653  15.603  21.828  0.00  0.00    +0.000 S 
ATOM     29  C   UNL     1       2.130  15.412  20.941  0.00  0.00    +0.000 C 
ATOM     30  O   UNL     1       3.752  14.518  22.785  0.00  0.00    +0.000 OA
ATOM     31  O   UNL     1       3.752  16.985  22.258  0.00  0.00    +0.000 OA
ENDBRANCH  26  28
ENDBRANCH   6  22
TORSDOF 6
ENDMDL
MODEL 8
REMARK VINA RESULT:      -7.9      5.086      8.957
REMARK  Name = 
REMARK  8 active torsions:
REMARK  status: ('A' for Active; 'I' for Inactive)
REMARK    1  A    between atoms: C_1  and  C_2
REMARK    2  A    between atoms: C_5  and  C_6
REMARK    3  A    between atoms: C_12  and  O_13
REMARK    4  A    between atoms: O_13  and  C_14
REMARK    5  A    between atoms: C_14  and  C_15
REMARK    6  A    between atoms: N_21  and  C_22
REMARK    7  A    between atoms: C_26  and  S_27
REMARK    8  A    between atoms: S_27  and  C_28
REMARK                            x       y       z     vdW  Elec       q    Type
REMARK                         _______ _______ _______ _____ _____    ______ ____
ROOT
ATOM      1  C   UNL     1       1.233  15.011  21.656  0.00  0.00    +0.000 C 
ATOM      2  C   UNL     1       0.737  14.376  20.394  0.00  0.00    +0.000 A 
ATOM      3  C   UNL     1       1.156  14.673  19.117  0.00  0.00    +0.000 A 
ATOM      4  C   UNL     1       0.543  13.763  18.237  0.00  0.00    +0.000 A 
ATOM      5  C   UNL     1      -0.272  12.897  18.959  0.00  0.00    +0.000 A 
ATOM      6  N   UNL     1      -0.180  13.317  20.321  0.00  0.00    +0.000 N 
ENDROOT
BRANCH   5   7
ATOM      7  C   UNL     1      -1.134  11.810  18.382  0.00  0.00    +0.000 A 
ATOM      8  C   UNL     1      -2.480  12.071  18.091  0.00  0.00    +0.000 A 
ATOM      9  C   UNL     1      -3.390  11.052  17.831  0.00  0.00    +0.000 A 
ATOM     10 CL   UNL     1      -5.076  11.409  17.751  0.00  0.00    +0.000 Cl
ATOM     11  C   UNL     1      -2.966   9.741  17.723  0.00  0.00    +0.000 A 
ATOM     12  C   UNL     1      -1.605   9.469  17.834  0.00  0.00    +0.000 A 
ATOM     13  C   UNL     1      -0.673  10.489  18.118  0.00  0.00    +0.000 A 
BRANCH  13  14
ATOM     14  O   UNL     1       0.678  10.213  18.135  0.00  0.00    +0.000 OA
BRANCH  14  15
ATOM     15  C   UNL     1       1.142   9.578  19.342  0.00  0.00    +0.000 C 
BRANCH  15  16
ATOM     16  C   UNL     1       1.965   8.353  19.033  0.00  0.00    +0.000 A 
ATOM     17  C   UNL     1       2.714   8.279  17.851  0.00  0.00    +0.000 A 
ATOM     18  C   UNL     1       3.473   7.143  17.568  0.00  0.00    +0.000 A 
ATOM     19  C   UNL     1       3.493   6.073  18.461  0.00  0.00    +0.000 A 
ATOM     20  C   UNL     1       2.767   6.143  19.650  0.00  0.00    +0.000 A 
ATOM     21  C   UNL     1       2.008   7.278  19.934  0.00  0.00    +0.000 A 
ENDBRANCH  15  16
ENDBRANCH  14  15
ENDBRANCH  13  14
ENDBRANCH   5   7
BRANCH   6  22
ATOM     22  C   UNL     1      -0.931  12.823  21.446  0.00  0.00    +0.000 A 
ATOM     23  C   UNL     1      -0.472  11.746  22.215  0.00  0.00    +0.000 A 
ATOM     24  C   UNL     1      -1.321  11.120  23.137  0.00  0.00    +0.000 A 
ATOM     25  C   UNL     1      -2.599  11.625  23.377  0.00  0.00    +0.000 A 
ATOM     26  C   UNL     1      -3.016  12.764  22.693  0.00  0.00    +0.000 A 
ATOM     27  C   UNL     1      -2.201  13.355  21.719  0.00  0.00    +0.000 A 
BRANCH  26  28
ATOM     28  S   UNL     1      -4.574  13.521  23.096  0.00  0.00    +0.000 S 
ATOM     29  C   UNL     1      -4.744  14.816  21.898  0.00  0.00    +0.000 C 
ATOM     30  O   UNL     1      -5.615  12.542  22.849  0.00  0.00    +0.000 OA
ATOM     31  O   UNL     1      -4.426  14.134  24.402  0.00  0.00    +0.000 OA
ENDBRANCH  26  28
ENDBRANCH   6  22
TORSDOF 6
ENDMDL
MODEL 9
REMARK VINA RESULT:      -7.8      1.953      2.524
REMARK  Name = 
REMARK  8 active torsions:
REMARK  status: ('A' for Active; 'I' for Inactive)
REMARK    1  A    between atoms: C_1  and  C_2
REMARK    2  A    between atoms: C_5  and  C_6
REMARK    3  A    between atoms: C_12  and  O_13
REMARK    4  A    between atoms: O_13  and  C_14
REMARK    5  A    between atoms: C_14  and  C_15
REMARK    6  A    between atoms: N_21  and  C_22
REMARK    7  A    between atoms: C_26  and  S_27
REMARK    8  A    between atoms: S_27  and  C_28
REMARK                            x       y       z     vdW  Elec       q    Type
REMARK                         _______ _______ _______ _____ _____    ______ ____
ROOT
ATOM      1  C   UNL     1       0.471   3.115  18.661  0.00  0.00    +0.000 C 
ATOM      2  C   UNL     1       1.915   3.032  18.273  0.00  0.00    +0.000 A 
ATOM      3  C   UNL     1       2.536   1.955  17.682  0.00  0.00    +0.000 A 
ATOM      4  C   UNL     1       3.852   2.335  17.362  0.00  0.00    +0.000 A 
ATOM      5  C   UNL     1       4.065   3.651  17.762  0.00  0.00    +0.000 A 
ATOM      6  N   UNL     1       2.847   4.074  18.378  0.00  0.00    +0.000 N 
ENDROOT
BRANCH   5   7
ATOM      7  C   UNL     1       5.353   4.412  17.639  0.00  0.00    +0.000 A 
ATOM      8  C   UNL     1       6.175   4.573  18.764  0.00  0.00    +0.000 A 
ATOM      9  C   UNL     1       7.218   5.492  18.790  0.00  0.00    +0.000 A 
ATOM     10 CL   UNL     1       8.016   5.841  20.280  0.00  0.00    +0.000 Cl
ATOM     11  C   UNL     1       7.566   6.195  17.652  0.00  0.00    +0.000 A 
ATOM     12  C   UNL     1       6.880   5.930  16.470  0.00  0.00    +0.000 A 
ATOM     13  C   UNL     1       5.806   5.015  16.432  0.00  0.00    +0.000 A 
BRANCH  13  14
ATOM     14  O   UNL     1       5.200   4.702  15.234  0.00  0.00    +0.000 OA
BRANCH  14  15
ATOM     15  C   UNL     1       5.952   5.083  14.066  0.00  0.00    +0.000 C 
BRANCH  15  16
ATOM     16  C   UNL     1       5.905   4.008  13.011  0.00  0.00    +0.000 A 
ATOM     17  C   UNL     1       4.678   3.576  12.489  0.00  0.00    +0.000 A 
ATOM     18  C   UNL     1       4.640   2.579  11.514  0.00  0.00    +0.000 A 
ATOM     19  C   UNL     1       5.823   2.007  11.049  0.00  0.00    +0.000 A 
ATOM     20  C   UNL     1       7.051   2.442  11.547  0.00  0.00    +0.000 A 
ATOM     21  C   UNL     1       7.091   3.439  12.522  0.00  0.00    +0.000 A 
ENDBRANCH  15  16
ENDBRANCH  14  15
ENDBRANCH  13  14
ENDBRANCH   5   7
BRANCH   6  22
ATOM     22  C   UNL     1       2.595   5.314  19.066  0.00  0.00    +0.000 A 
ATOM     23  C   UNL     1       2.524   5.373  20.463  0.00  0.00    +0.000 A 
ATOM     24  C   UNL     1       2.032   6.520  21.101  0.00  0.00    +0.000 A 
ATOM     25  C   UNL     1       1.705   7.655  20.360  0.00  0.00    +0.000 A 
ATOM     26  C   UNL     1       1.880   7.635  18.978  0.00  0.00    +0.000 A 
ATOM     27  C   UNL     1       2.305   6.471  18.325  0.00  0.00    +0.000 A 
BRANCH  26  28
ATOM     28  S   UNL     1       1.624   9.117  18.030  0.00  0.00    +0.000 S 
ATOM     29  C   UNL     1       1.385  10.375  19.256  0.00  0.00    +0.000 C 
ATOM     30  O   UNL     1       2.857   9.407  17.325  0.00  0.00    +0.000 OA
ATOM     31  O   UNL     1       0.376   8.952  17.307  0.00  0.00    +0.000 OA
ENDBRANCH  26  28
ENDBRANCH   6  22
TORSDOF 6
ENDMDL
