MODEL 1
REMARK VINA RESULT:      -8.2      0.000      0.000
REMARK  Name = 
REMARK  4 active torsions:
REMARK  status: ('A' for Active; 'I' for Inactive)
REMARK    1  A    between atoms: C_1  and  C_2
REMARK    2  A    between atoms: N_4  and  C_5
REMARK    3  A    between atoms: C_17  and  O_18
REMARK    4  A    between atoms: C_17  and  C_19
REMARK                            x       y       z     vdW  Elec       q    Type
REMARK                         _______ _______ _______ _____ _____    ______ ____
ROOT
ATOM      1  C   UNL     1       2.221   7.349  19.634  0.00  0.00    +0.000 A 
ATOM      2  C   UNL     1       2.412   8.330  18.646  0.00  0.00    +0.000 A 
ATOM      3  C   UNL     1       3.226   8.090  17.534  0.00  0.00    +0.000 A 
ATOM      4  C   UNL     1       3.864   6.863  17.373  0.00  0.00    +0.000 A 
ATOM      5  C   UNL     1       3.647   5.878  18.334  0.00  0.00    +0.000 A 
ATOM      6  C   UNL     1       2.825   6.110  19.465  0.00  0.00    +0.000 A 
ATOM      7  C   UNL     1       2.742   4.870  20.231  0.00  0.00    +0.000 A 
ATOM      8  C   UNL     1       1.971   4.519  21.329  0.00  0.00    +0.000 A 
ATOM      9  C   UNL     1       2.092   3.229  21.860  0.00  0.00    +0.000 A 
ATOM     10  C   UNL     1       2.965   2.295  21.289  0.00  0.00    +0.000 A 
ATOM     11  C   UNL     1       3.708   2.624  20.160  0.00  0.00    +0.000 A 
ATOM     12  C   UNL     1       3.571   3.903  19.629  0.00  0.00    +0.000 A 
ATOM     13  C   UNL     1       4.210   4.452  18.352  0.00  0.00    +0.000 C 
ENDROOT
BRANCH   1  17
ATOM     14  C   UNL     1       0.111   9.014  22.240  0.00  0.00    +0.000 C 
ATOM     15  C   UNL     1       0.787   8.855  20.905  0.00  0.00    +0.000 C 
ATOM     16  O   UNL     1       0.656   9.688  20.017  0.00  0.00    +0.000 OA
ATOM     17  N   UNL     1       1.499   7.674  20.798  0.00  0.00    +0.000 N 
ATOM     18  H   UNL     1       1.206   6.908  21.391  0.00  0.00    +0.000 HD
ENDBRANCH   1  17
BRANCH  13  19
ATOM     19  C   UNL     1       3.864   3.619  17.072  0.00  0.00    +0.000 C 
ATOM     20  F   UNL     1       4.472   4.084  15.953  0.00  0.00    +0.000 F 
ATOM     21  F   UNL     1       4.252   2.322  17.203  0.00  0.00    +0.000 F 
ATOM     22  F   UNL     1       2.534   3.588  16.799  0.00  0.00    +0.000 F 
ENDBRANCH  13  19
BRANCH  13  23
ATOM     23  O   UNL     1       5.624   4.548  18.612  0.00  0.00    +0.000 OA
ATOM     24  H   UNL     1       6.068   3.944  17.994  0.00  0.00    +0.000 HD
ENDBRANCH  13  23
TORSDOF 3
ENDMDL
MODEL 2
REMARK VINA RESULT:      -8.0      2.081      3.867
REMARK  Name = 
REMARK  4 active torsions:
REMARK  status: ('A' for Active; 'I' for Inactive)
REMARK    1  A    between atoms: C_1  and  C_2
REMARK    2  A    between atoms: N_4  and  C_5
REMARK    3  A    between atoms: C_17  and  O_18
REMARK    4  A    between atoms: C_17  and  C_19
REMARK                            x       y       z     vdW  Elec       q    Type
REMARK                         _______ _______ _______ _____ _____    ______ ____
ROOT
ATOM      1  C   UNL     1       2.320   6.970  19.392  0.00  0.00    +0.000 A 
ATOM      2  C   UNL     1       1.465   6.712  20.477  0.00  0.00    +0.000 A 
ATOM      3  C   UNL     1       1.057   5.410  20.785  0.00  0.00    +0.000 A 
ATOM      4  C   UNL     1       1.500   4.330  20.025  0.00  0.00    +0.000 A 
ATOM      5  C   UNL     1       2.375   4.581  18.971  0.00  0.00    +0.000 A 
ATOM      6  C   UNL     1       2.794   5.896  18.650  0.00  0.00    +0.000 A 
ATOM      7  C   UNL     1       3.757   5.814  17.557  0.00  0.00    +0.000 A 
ATOM      8  C   UNL     1       4.562   6.777  16.967  0.00  0.00    +0.000 A 
ATOM      9  C   UNL     1       5.417   6.403  15.923  0.00  0.00    +0.000 A 
ATOM     10  C   UNL     1       5.479   5.075  15.485  0.00  0.00    +0.000 A 
ATOM     11  C   UNL     1       4.710   4.094  16.102  0.00  0.00    +0.000 A 
ATOM     12  C   UNL     1       3.873   4.470  17.148  0.00  0.00    +0.000 A 
ATOM     13  C   UNL     1       3.015   3.558  18.026  0.00  0.00    +0.000 C 
ENDROOT
BRANCH   1  17
ATOM     14  C   UNL     1       2.310  10.397  17.885  0.00  0.00    +0.000 C 
ATOM     15  C   UNL     1       1.816   8.999  18.138  0.00  0.00    +0.000 C 
ATOM     16  O   UNL     1       0.792   8.576  17.618  0.00  0.00    +0.000 OA
ATOM     17  N   UNL     1       2.603   8.303  19.039  0.00  0.00    +0.000 N 
ATOM     18  H   UNL     1       3.141   8.853  19.696  0.00  0.00    +0.000 HD
ENDBRANCH   1  17
BRANCH  13  19
ATOM     19  C   UNL     1       3.836   2.445  18.760  0.00  0.00    +0.000 C 
ATOM     20  F   UNL     1       3.206   1.952  19.855  0.00  0.00    +0.000 F 
ATOM     21  F   UNL     1       4.069   1.380  17.946  0.00  0.00    +0.000 F 
ATOM     22  F   UNL     1       5.055   2.871  19.181  0.00  0.00    +0.000 F 
ENDBRANCH  13  19
BRANCH  13  23
ATOM     23  O   UNL     1       1.971   3.039  17.179  0.00  0.00    +0.000 OA
ATOM     24  H   UNL     1       1.851   3.675  16.455  0.00  0.00    +0.000 HD
ENDBRANCH  13  23
TORSDOF 3
ENDMDL
MODEL 3
REMARK VINA RESULT:      -7.8      1.896      2.837
REMARK  Name = 
REMARK  4 active torsions:
REMARK  status: ('A' for Active; 'I' for Inactive)
REMARK    1  A    between atoms: C_1  and  C_2
REMARK    2  A    between atoms: N_4  and  C_5
REMARK    3  A    between atoms: C_17  and  O_18
REMARK    4  A    between atoms: C_17  and  C_19
REMARK                            x       y       z     vdW  Elec       q    Type
REMARK                         _______ _______ _______ _____ _____    ______ ____
ROOT
ATOM      1  C   UNL     1       4.159   6.680  17.358  0.00  0.00    +0.000 A 
ATOM      2  C   UNL     1       4.909   6.600  16.172  0.00  0.00    +0.000 A 
ATOM      3  C   UNL     1       5.470   5.390  15.750  0.00  0.00    +0.000 A 
ATOM      4  C   UNL     1       5.291   4.227  16.494  0.00  0.00    +0.000 A 
ATOM      5  C   UNL     1       4.518   4.298  17.651  0.00  0.00    +0.000 A 
ATOM      6  C   UNL     1       3.945   5.519  18.089  0.00  0.00    +0.000 A 
ATOM      7  C   UNL     1       3.141   5.245  19.276  0.00  0.00    +0.000 A 
ATOM      8  C   UNL     1       2.275   6.048  20.004  0.00  0.00    +0.000 A 
ATOM      9  C   UNL     1       1.617   5.506  21.114  0.00  0.00    +0.000 A 
ATOM     10  C   UNL     1       1.810   4.169  21.483  0.00  0.00    +0.000 A 
ATOM     11  C   UNL     1       2.641   3.345  20.732  0.00  0.00    +0.000 A 
ATOM     12  C   UNL     1       3.281   3.886  19.622  0.00  0.00    +0.000 A 
ATOM     13  C   UNL     1       4.158   3.153  18.605  0.00  0.00    +0.000 C 
ENDROOT
BRANCH   1  17
ATOM     14  C   UNL     1       2.154   9.726  18.208  0.00  0.00    +0.000 C 
ATOM     15  C   UNL     1       2.402   8.339  17.679  0.00  0.00    +0.000 C 
ATOM     16  O   UNL     1       1.493   7.652  17.230  0.00  0.00    +0.000 OA
ATOM     17  N   UNL     1       3.720   7.938  17.813  0.00  0.00    +0.000 N 
ATOM     18  H   UNL     1       4.261   8.383  18.542  0.00  0.00    +0.000 HD
ENDBRANCH   1  17
BRANCH  13  19
ATOM     19  C   UNL     1       3.435   1.952  17.907  0.00  0.00    +0.000 C 
ATOM     20  F   UNL     1       2.754   1.163  18.774  0.00  0.00    +0.000 F 
ATOM     21  F   UNL     1       2.525   2.384  16.993  0.00  0.00    +0.000 F 
ATOM     22  F   UNL     1       4.285   1.135  17.234  0.00  0.00    +0.000 F 
ENDBRANCH  13  19
BRANCH  13  23
ATOM     23  O   UNL     1       5.361   2.775  19.301  0.00  0.00    +0.000 OA
ATOM     24  H   UNL     1       5.663   3.556  19.792  0.00  0.00    +0.000 HD
ENDBRANCH  13  23
TORSDOF 3
ENDMDL
MODEL 4
REMARK VINA RESULT:      -7.7      1.311      1.767
REMARK  Name = 
REMARK  4 active torsions:
REMARK  status: ('A' for Active; 'I' for Inactive)
REMARK    1  A    between atoms: C_1  and  C_2
REMARK    2  A    between atoms: N_4  and  C_5
REMARK    3  A    between atoms: C_17  and  O_18
REMARK    4  A    between atoms: C_17  and  C_19
REMARK                            x       y       z     vdW  Elec       q    Type
REMARK                         _______ _______ _______ _____ _____    ______ ____
ROOT
ATOM      1  C   UNL     1       3.030   7.113  18.423  0.00  0.00    +0.000 A 
ATOM      2  C   UNL     1       3.746   7.700  17.367  0.00  0.00    +0.000 A 
ATOM      3  C   UNL     1       4.691   6.969  16.638  0.00  0.00    +0.000 A 
ATOM      4  C   UNL     1       4.939   5.632  16.938  0.00  0.00    +0.000 A 
ATOM      5  C   UNL     1       4.204   5.040  17.963  0.00  0.00    +0.000 A 
ATOM      6  C   UNL     1       3.246   5.771  18.708  0.00  0.00    +0.000 A 
ATOM      7  C   UNL     1       2.603   4.856  19.646  0.00  0.00    +0.000 A 
ATOM      8  C   UNL     1       1.520   5.022  20.496  0.00  0.00    +0.000 A 
ATOM      9  C   UNL     1       1.106   3.946  21.290  0.00  0.00    +0.000 A 
ATOM     10  C   UNL     1       1.760   2.710  21.223  0.00  0.00    +0.000 A 
ATOM     11  C   UNL     1       2.818   2.520  20.340  0.00  0.00    +0.000 A 
ATOM     12  C   UNL     1       3.214   3.590  19.543  0.00  0.00    +0.000 A 
ATOM     13  C   UNL     1       4.280   3.587  18.446  0.00  0.00    +0.000 C 
ENDROOT
BRANCH   1  17
ATOM     14  C   UNL     1       0.705   9.751  19.709  0.00  0.00    +0.000 C 
ATOM     15  C   UNL     1       1.539   9.023  18.691  0.00  0.00    +0.000 C 
ATOM     16  O   UNL     1       1.577   9.380  17.520  0.00  0.00    +0.000 OA
ATOM     17  N   UNL     1       2.184   7.916  19.212  0.00  0.00    +0.000 N 
ATOM     18  H   UNL     1       1.769   7.489  20.030  0.00  0.00    +0.000 HD
ENDBRANCH   1  17
BRANCH  13  19
ATOM     19  C   UNL     1       4.014   2.532  17.320  0.00  0.00    +0.000 C 
ATOM     20  F   UNL     1       4.013   1.255  17.776  0.00  0.00    +0.000 F 
ATOM     21  F   UNL     1       2.803   2.725  16.733  0.00  0.00    +0.000 F 
ATOM     22  F   UNL     1       4.930   2.578  16.318  0.00  0.00    +0.000 F 
ENDBRANCH  13  19
BRANCH  13  23
ATOM     23  O   UNL     1       5.548   3.416  19.108  0.00  0.00    +0.000 OA
ATOM     24  H   UNL     1       6.141   4.105  18.767  0.00  0.00    +0.000 HD
ENDBRANCH  13  23
TORSDOF 3
ENDMDL
MODEL 5
REMARK VINA RESULT:      -7.6      3.843      6.491
REMARK  Name = 
REMARK  4 active torsions:
REMARK  status: ('A' for Active; 'I' for Inactive)
REMARK    1  A    between atoms: C_1  and  C_2
REMARK    2  A    between atoms: N_4  and  C_5
REMARK    3  A    between atoms: C_17  and  O_18
REMARK    4  A    between atoms: C_17  and  C_19
REMARK                            x       y       z     vdW  Elec       q    Type
REMARK                         _______ _______ _______ _____ _____    ______ ____
ROOT
ATOM      1  C   UNL     1       2.227   7.338  19.673  0.00  0.00    +0.000 A 
ATOM      2  C   UNL     1       2.896   7.146  18.453  0.00  0.00    +0.000 A 
ATOM      3  C   UNL     1       2.786   8.075  17.412  0.00  0.00    +0.000 A 
ATOM      4  C   UNL     1       2.013   9.223  17.565  0.00  0.00    +0.000 A 
ATOM      5  C   UNL     1       1.377   9.431  18.787  0.00  0.00    +0.000 A 
ATOM      6  C   UNL     1       1.481   8.496  19.848  0.00  0.00    +0.000 A 
ATOM      7  C   UNL     1       0.772   9.037  21.003  0.00  0.00    +0.000 A 
ATOM      8  C   UNL     1       0.684   8.597  22.315  0.00  0.00    +0.000 A 
ATOM      9  C   UNL     1      -0.074   9.336  23.232  0.00  0.00    +0.000 A 
ATOM     10  C   UNL     1      -0.725  10.513  22.843  0.00  0.00    +0.000 A 
ATOM     11  C   UNL     1      -0.604  10.986  21.540  0.00  0.00    +0.000 A 
ATOM     12  C   UNL     1       0.163  10.255  20.639  0.00  0.00    +0.000 A 
ATOM     13  C   UNL     1       0.509  10.626  19.196  0.00  0.00    +0.000 C 
ENDROOT
BRANCH   1  17
ATOM     14  C   UNL     1       1.988   4.098  21.535  0.00  0.00    +0.000 C 
ATOM     15  C   UNL     1       1.904   5.018  20.347  0.00  0.00    +0.000 C 
ATOM     16  O   UNL     1       1.593   4.604  19.237  0.00  0.00    +0.000 OA
ATOM     17  N   UNL     1       2.261   6.320  20.646  0.00  0.00    +0.000 N 
ATOM     18  H   UNL     1       2.876   6.455  21.437  0.00  0.00    +0.000 HD
ENDBRANCH   1  17
BRANCH  13  19
ATOM     19  C   UNL     1       1.233  12.008  19.064  0.00  0.00    +0.000 C 
ATOM     20  F   UNL     1       2.148  12.037  18.064  0.00  0.00    +0.000 F 
ATOM     21  F   UNL     1       0.350  13.009  18.799  0.00  0.00    +0.000 F 
ATOM     22  F   UNL     1       1.890  12.377  20.193  0.00  0.00    +0.000 F 
ENDBRANCH  13  19
BRANCH  13  23
ATOM     23  O   UNL     1      -0.719  10.545  18.447  0.00  0.00    +0.000 OA
ATOM     24  H   UNL     1      -1.165   9.727  18.721  0.00  0.00    +0.000 HD
ENDBRANCH  13  23
TORSDOF 3
ENDMDL
MODEL 6
REMARK VINA RESULT:      -7.5      2.733      4.651
REMARK  Name = 
REMARK  4 active torsions:
REMARK  status: ('A' for Active; 'I' for Inactive)
REMARK    1  A    between atoms: C_1  and  C_2
REMARK    2  A    between atoms: N_4  and  C_5
REMARK    3  A    between atoms: C_17  and  O_18
REMARK    4  A    between atoms: C_17  and  C_19
REMARK                            x       y       z     vdW  Elec       q    Type
REMARK                         _______ _______ _______ _____ _____    ______ ____
ROOT
ATOM      1  C   UNL     1       5.106   5.593  17.117  0.00  0.00    +0.000 A 
ATOM      2  C   UNL     1       5.682   4.624  16.280  0.00  0.00    +0.000 A 
ATOM      3  C   UNL     1       5.296   3.281  16.352  0.00  0.00    +0.000 A 
ATOM      4  C   UNL     1       4.317   2.872  17.255  0.00  0.00    +0.000 A 
ATOM      5  C   UNL     1       3.720   3.839  18.061  0.00  0.00    +0.000 A 
ATOM      6  C   UNL     1       4.105   5.202  17.997  0.00  0.00    +0.000 A 
ATOM      7  C   UNL     1       3.248   5.960  18.902  0.00  0.00    +0.000 A 
ATOM      8  C   UNL     1       3.113   7.325  19.112  0.00  0.00    +0.000 A 
ATOM      9  C   UNL     1       2.184   7.780  20.054  0.00  0.00    +0.000 A 
ATOM     10  C   UNL     1       1.385   6.879  20.770  0.00  0.00    +0.000 A 
ATOM     11  C   UNL     1       1.481   5.512  20.533  0.00  0.00    +0.000 A 
ATOM     12  C   UNL     1       2.396   5.068  19.584  0.00  0.00    +0.000 A 
ATOM     13  C   UNL     1       2.608   3.634  19.095  0.00  0.00    +0.000 C 
ENDROOT
BRANCH   1  17
ATOM     14  C   UNL     1       7.197   8.673  17.515  0.00  0.00    +0.000 C 
ATOM     15  C   UNL     1       6.864   7.208  17.608  0.00  0.00    +0.000 C 
ATOM     16  O   UNL     1       7.666   6.395  18.048  0.00  0.00    +0.000 OA
ATOM     17  N   UNL     1       5.612   6.907  17.102  0.00  0.00    +0.000 N 
ATOM     18  H   UNL     1       5.232   7.543  16.413  0.00  0.00    +0.000 HD
ENDBRANCH   1  17
BRANCH  13  19
ATOM     19  C   UNL     1       1.313   2.977  18.510  0.00  0.00    +0.000 C 
ATOM     20  F   UNL     1       0.361   2.746  19.448  0.00  0.00    +0.000 F 
ATOM     21  F   UNL     1       0.733   3.771  17.569  0.00  0.00    +0.000 F 
ATOM     22  F   UNL     1       1.546   1.784  17.903  0.00  0.00    +0.000 F 
ENDBRANCH  13  19
BRANCH  13  23
ATOM     23  O   UNL     1       3.174   2.905  20.201  0.00  0.00    +0.000 OA
ATOM     24  H   UNL     1       2.441   2.678  20.797  0.00  0.00    +0.000 HD
ENDBRANCH  13  23
TORSDOF 3
ENDMDL
MODEL 7
REMARK VINA RESULT:      -7.4      2.780      4.580
REMARK  Name = 
REMARK  4 active torsions:
REMARK  status: ('A' for Active; 'I' for Inactive)
REMARK    1  A    between atoms: C_1  and  C_2
REMARK    2  A    between atoms: N_4  and  C_5
REMARK    3  A    between atoms: C_17  and  O_18
REMARK    4  A    between atoms: C_17  and  C_19
REMARK                            x       y       z     vdW  Elec       q    Type
REMARK                         _______ _______ _______ _____ _____    ______ ____
ROOT
ATOM      1  C   UNL     1       5.540   5.759  16.763  0.00  0.00    +0.000 A 
ATOM      2  C   UNL     1       6.177   4.872  15.880  0.00  0.00    +0.000 A 
ATOM      3  C   UNL     1       5.862   3.508  15.869  0.00  0.00    +0.000 A 
ATOM      4  C   UNL     1       4.896   2.997  16.733  0.00  0.00    +0.000 A 
ATOM      5  C   UNL     1       4.240   3.883  17.584  0.00  0.00    +0.000 A 
ATOM      6  C   UNL     1       4.551   5.265  17.604  0.00  0.00    +0.000 A 
ATOM      7  C   UNL     1       3.645   5.924  18.538  0.00  0.00    +0.000 A 
ATOM      8  C   UNL     1       3.435   7.265  18.824  0.00  0.00    +0.000 A 
ATOM      9  C   UNL     1       2.472   7.615  19.778  0.00  0.00    +0.000 A 
ATOM     10  C   UNL     1       1.714   6.633  20.429  0.00  0.00    +0.000 A 
ATOM     11  C   UNL     1       1.886   5.288  20.115  0.00  0.00    +0.000 A 
ATOM     12  C   UNL     1       2.834   4.949  19.156  0.00  0.00    +0.000 A 
ATOM     13  C   UNL     1       3.128   3.559  18.589  0.00  0.00    +0.000 C 
ENDROOT
BRANCH   1  17
ATOM     14  C   UNL     1       7.356   8.942  17.531  0.00  0.00    +0.000 C 
ATOM     15  C   UNL     1       7.081   7.463  17.576  0.00  0.00    +0.000 C 
ATOM     16  O   UNL     1       7.814   6.694  18.184  0.00  0.00    +0.000 OA
ATOM     17  N   UNL     1       5.975   7.096  16.830  0.00  0.00    +0.000 N 
ATOM     18  H   UNL     1       5.715   7.708  16.068  0.00  0.00    +0.000 HD
ENDBRANCH   1  17
BRANCH  13  19
ATOM     19  C   UNL     1       1.877   2.870  17.948  0.00  0.00    +0.000 C 
ATOM     20  F   UNL     1       2.199   1.860  17.102  0.00  0.00    +0.000 F 
ATOM     21  F   UNL     1       1.068   2.325  18.897  0.00  0.00    +0.000 F 
ATOM     22  F   UNL     1       1.099   3.727  17.239  0.00  0.00    +0.000 F 
ENDBRANCH  13  19
BRANCH  13  23
ATOM     23  O   UNL     1       3.720   2.798  19.660  0.00  0.00    +0.000 OA
ATOM     24  H   UNL     1       4.319   2.153  19.251  0.00  0.00    +0.000 HD
ENDBRANCH  13  23
TORSDOF 3
ENDMDL
MODEL 8
REMARK VINA RESULT:      -7.4      6.202      8.378
REMARK  Name = 
REMARK  4 active torsions:
REMARK  status: ('A' for Active; 'I' for Inactive)
REMARK    1  A    between atoms: C_1  and  C_2
REMARK    2  A    between atoms: N_4  and  C_5
REMARK    3  A    between atoms: C_17  and  O_18
REMARK    4  A    between atoms: C_17  and  C_19
REMARK                            x       y       z     vdW  Elec       q    Type
REMARK                         _______ _______ _______ _____ _____    ______ ____
ROOT
ATOM      1  C   UNL     1      -2.027  11.202  18.326  0.00  0.00    +0.000 A 
ATOM      2  C   UNL     1      -1.330  10.358  17.445  0.00  0.00    +0.000 A 
ATOM      3  C   UNL     1      -0.162   9.699  17.844  0.00  0.00    +0.000 A 
ATOM      4  C   UNL     1       0.336   9.858  19.135  0.00  0.00    +0.000 A 
ATOM      5  C   UNL     1      -0.374  10.667  20.019  0.00  0.00    +0.000 A 
ATOM      6  C   UNL     1      -1.558  11.340  19.626  0.00  0.00    +0.000 A 
ATOM      7  C   UNL     1      -2.095  12.035  20.790  0.00  0.00    +0.000 A 
ATOM      8  C   UNL     1      -3.288  12.716  20.984  0.00  0.00    +0.000 A 
ATOM      9  C   UNL     1      -3.551  13.287  22.235  0.00  0.00    +0.000 A 
ATOM     10  C   UNL     1      -2.636  13.164  23.288  0.00  0.00    +0.000 A 
ATOM     11  C   UNL     1      -1.458  12.444  23.116  0.00  0.00    +0.000 A 
ATOM     12  C   UNL     1      -1.211  11.867  21.875  0.00  0.00    +0.000 A 
ATOM     13  C   UNL     1      -0.040  10.962  21.486  0.00  0.00    +0.000 C 
ENDROOT
BRANCH   1  17
ATOM     14  C   UNL     1      -5.406  12.346  17.189  0.00  0.00    +0.000 C 
ATOM     15  C   UNL     1      -4.387  11.389  17.747  0.00  0.00    +0.000 C 
ATOM     16  O   UNL     1      -4.698  10.260  18.106  0.00  0.00    +0.000 OA
ATOM     17  N   UNL     1      -3.124  11.944  17.848  0.00  0.00    +0.000 N 
ATOM     18  H   UNL     1      -3.072  12.951  17.924  0.00  0.00    +0.000 HD
ENDBRANCH   1  17
BRANCH  13  19
ATOM     19  C   UNL     1       0.081   9.681  22.378  0.00  0.00    +0.000 C 
ATOM     20  F   UNL     1      -0.766   8.690  22.005  0.00  0.00    +0.000 F 
ATOM     21  F   UNL     1       1.333   9.151  22.319  0.00  0.00    +0.000 F 
ATOM     22  F   UNL     1      -0.165   9.919  23.692  0.00  0.00    +0.000 F 
ENDBRANCH  13  19
BRANCH  13  23
ATOM     23  O   UNL     1       1.139  11.790  21.504  0.00  0.00    +0.000 OA
ATOM     24  H   UNL     1       1.818  11.329  20.985  0.00  0.00    +0.000 HD
ENDBRANCH  13  23
TORSDOF 3
ENDMDL
MODEL 9
REMARK VINA RESULT:      -7.4      9.799     11.509
REMARK  Name = 
REMARK  4 active torsions:
REMARK  status: ('A' for Active; 'I' for Inactive)
REMARK    1  A    between atoms: C_1  and  C_2
REMARK    2  A    between atoms: N_4  and  C_5
REMARK    3  A    between atoms: C_17  and  O_18
REMARK    4  A    between atoms: C_17  and  C_19
REMARK                            x       y       z     vdW  Elec       q    Type
REMARK                         _______ _______ _______ _____ _____    ______ ____
ROOT
ATOM      1  C   UNL     1       9.585  11.797  20.936  0.00  0.00    +0.000 A 
ATOM      2  C   UNL     1       9.415  10.570  20.274  0.00  0.00    +0.000 A 
ATOM      3  C   UNL     1       9.377  10.499  18.877  0.00  0.00    +0.000 A 
ATOM      4  C   UNL     1       9.518  11.649  18.104  0.00  0.00    +0.000 A 
ATOM      5  C   UNL     1       9.722  12.861  18.759  0.00  0.00    +0.000 A 
ATOM      6  C   UNL     1       9.761  12.945  20.174  0.00  0.00    +0.000 A 
ATOM      7  C   UNL     1      10.063  14.324  20.540  0.00  0.00    +0.000 A 
ATOM      8  C   UNL     1      10.346  14.908  21.766  0.00  0.00    +0.000 A 
ATOM      9  C   UNL     1      10.615  16.281  21.820  0.00  0.00    +0.000 A 
ATOM     10  C   UNL     1      10.617  17.060  20.657  0.00  0.00    +0.000 A 
ATOM     11  C   UNL     1      10.380  16.474  19.417  0.00  0.00    +0.000 A 
ATOM     12  C   UNL     1      10.128  15.107  19.370  0.00  0.00    +0.000 A 
ATOM     13  C   UNL     1       9.934  14.240  18.124  0.00  0.00    +0.000 C 
ENDROOT
BRANCH   1  17
ATOM     14  C   UNL     1       8.411  12.103  24.477  0.00  0.00    +0.000 C 
ATOM     15  C   UNL     1       8.284  12.069  22.979  0.00  0.00    +0.000 C 
ATOM     16  O   UNL     1       7.199  12.186  22.425  0.00  0.00    +0.000 OA
ATOM     17  N   UNL     1       9.490  11.843  22.340  0.00  0.00    +0.000 N 
ATOM     18  H   UNL     1      10.204  11.360  22.869  0.00  0.00    +0.000 HD
ENDBRANCH   1  17
BRANCH  13  19
ATOM     19  C   UNL     1      11.141  14.299  17.129  0.00  0.00    +0.000 C 
ATOM     20  F   UNL     1      12.327  13.989  17.709  0.00  0.00    +0.000 F 
ATOM     21  F   UNL     1      10.981  13.422  16.101  0.00  0.00    +0.000 F 
ATOM     22  F   UNL     1      11.303  15.521  16.558  0.00  0.00    +0.000 F 
ENDBRANCH  13  19
BRANCH  13  23
ATOM     23  O   UNL     1       8.682  14.644  17.537  0.00  0.00    +0.000 OA
ATOM     24  H   UNL     1       8.675  15.614  17.522  0.00  0.00    +0.000 HD
ENDBRANCH  13  23
TORSDOF 3
ENDMDL
