MODEL 1
REMARK VINA RESULT:      -5.4      0.000      0.000
REMARK  Name = 
REMARK  5 active torsions:
REMARK  status: ('A' for Active; 'I' for Inactive)
REMARK    1  A    between atoms: C_4  and  C_5
REMARK    2  A    between atoms: C_5  and  O_6
REMARK    3  A    between atoms: C_7  and  O_8
REMARK    4  A    between atoms: C_9  and  O_10
REMARK    5  A    between atoms: C_11  and  O_12
REMARK                            x       y       z     vdW  Elec       q    Type
REMARK                         _______ _______ _______ _____ _____    ______ ____
ROOT
ATOM      1  O   UNL     1       2.704   2.847  22.044  0.00  0.00    +0.000 OA
ATOM      2  C   UNL     1       2.928   2.572  20.872  0.00  0.00    +0.000 C 
ATOM      3  O   UNL     1       2.002   1.919  20.124  0.00  0.00    +0.000 OA
ATOM      4  C   UNL     1       1.888   2.194  18.706  0.00  0.00    +0.000 C 
ATOM      5  C   UNL     1       3.268   2.176  18.038  0.00  0.00    +0.000 C 
ATOM      6  C   UNL     1       4.216   3.149  18.746  0.00  0.00    +0.000 C 
ATOM      7  C   UNL     1       4.308   2.794  20.238  0.00  0.00    +0.000 C 
ENDROOT
BRANCH   5   8
ATOM      8  O   UNL     1       3.836   0.857  18.148  0.00  0.00    +0.000 OA
ATOM      9  H   UNL     1       3.503   0.431  18.960  0.00  0.00    +0.000 HD
ENDBRANCH   5   8
BRANCH   6  10
ATOM     10  O   UNL     1       3.791   4.490  18.507  0.00  0.00    +0.000 OA
ATOM     11  H   UNL     1       2.839   4.506  18.301  0.00  0.00    +0.000 HD
ENDBRANCH   6  10
BRANCH   7  12
ATOM     12  O   UNL     1       5.144   1.648  20.426  0.00  0.00    +0.000 OA
ATOM     13  H   UNL     1       5.836   1.900  21.074  0.00  0.00    +0.000 HD
ENDBRANCH   7  12
BRANCH   4  14
ATOM     14  C   UNL     1       1.070   3.480  18.497  0.00  0.00    +0.000 C 
BRANCH  14  15
ATOM     15  O   UNL     1       1.216   3.992  17.171  0.00  0.00    +0.000 OA
ATOM     16  H   UNL     1       1.411   3.264  16.558  0.00  0.00    +0.000 HD
ENDBRANCH  14  15
ENDBRANCH   4  14
TORSDOF 5
ENDMDL
MODEL 2
REMARK VINA RESULT:      -5.2      1.556      2.525
REMARK  Name = 
REMARK  5 active torsions:
REMARK  status: ('A' for Active; 'I' for Inactive)
REMARK    1  A    between atoms: C_4  and  C_5
REMARK    2  A    between atoms: C_5  and  O_6
REMARK    3  A    between atoms: C_7  and  O_8
REMARK    4  A    between atoms: C_9  and  O_10
REMARK    5  A    between atoms: C_11  and  O_12
REMARK                            x       y       z     vdW  Elec       q    Type
REMARK                         _______ _______ _______ _____ _____    ______ ____
ROOT
ATOM      1  O   UNL     1       4.499   5.382  19.517  0.00  0.00    +0.000 OA
ATOM      2  C   UNL     1       3.948   4.347  19.167  0.00  0.00    +0.000 C 
ATOM      3  O   UNL     1       3.569   3.419  20.082  0.00  0.00    +0.000 OA
ATOM      4  C   UNL     1       2.381   2.619  19.860  0.00  0.00    +0.000 C 
ATOM      5  C   UNL     1       2.373   2.046  18.438  0.00  0.00    +0.000 C 
ATOM      6  C   UNL     1       2.521   3.170  17.408  0.00  0.00    +0.000 C 
ATOM      7  C   UNL     1       3.805   3.966  17.687  0.00  0.00    +0.000 C 
ENDROOT
BRANCH   5   8
ATOM      8  O   UNL     1       3.493   1.155  18.275  0.00  0.00    +0.000 OA
ATOM      9  H   UNL     1       3.396   0.403  18.889  0.00  0.00    +0.000 HD
ENDBRANCH   5   8
BRANCH   6  10
ATOM     10  O   UNL     1       1.344   3.975  17.406  0.00  0.00    +0.000 OA
ATOM     11  H   UNL     1       1.454   4.724  16.792  0.00  0.00    +0.000 HD
ENDBRANCH   6  10
BRANCH   7  12
ATOM     12  O   UNL     1       4.951   3.235  17.238  0.00  0.00    +0.000 OA
ATOM     13  H   UNL     1       4.819   2.300  17.505  0.00  0.00    +0.000 HD
ENDBRANCH   7  12
BRANCH   4  14
ATOM     14  C   UNL     1       1.136   3.433  20.251  0.00  0.00    +0.000 C 
BRANCH  14  15
ATOM     15  O   UNL     1      -0.065   2.835  19.758  0.00  0.00    +0.000 OA
ATOM     16  H   UNL     1      -0.558   2.435  20.494  0.00  0.00    +0.000 HD
ENDBRANCH  14  15
ENDBRANCH   4  14
TORSDOF 5
ENDMDL
MODEL 3
REMARK VINA RESULT:      -5.2      1.559      3.593
REMARK  Name = 
REMARK  5 active torsions:
REMARK  status: ('A' for Active; 'I' for Inactive)
REMARK    1  A    between atoms: C_4  and  C_5
REMARK    2  A    between atoms: C_5  and  O_6
REMARK    3  A    between atoms: C_7  and  O_8
REMARK    4  A    between atoms: C_9  and  O_10
REMARK    5  A    between atoms: C_11  and  O_12
REMARK                            x       y       z     vdW  Elec       q    Type
REMARK                         _______ _______ _______ _____ _____    ______ ____
ROOT
ATOM      1  O   UNL     1       2.434   5.886  18.494  0.00  0.00    +0.000 OA
ATOM      2  C   UNL     1       2.407   4.683  18.716  0.00  0.00    +0.000 C 
ATOM      3  O   UNL     1       3.308   4.112  19.555  0.00  0.00    +0.000 OA
ATOM      4  C   UNL     1       2.927   2.974  20.367  0.00  0.00    +0.000 C 
ATOM      5  C   UNL     1       2.200   1.923  19.520  0.00  0.00    +0.000 C 
ATOM      6  C   UNL     1       1.003   2.553  18.801  0.00  0.00    +0.000 C 
ATOM      7  C   UNL     1       1.475   3.738  17.945  0.00  0.00    +0.000 C 
ENDROOT
BRANCH   5   8
ATOM      8  O   UNL     1       3.097   1.416  18.514  0.00  0.00    +0.000 OA
ATOM      9  H   UNL     1       3.759   2.100  18.301  0.00  0.00    +0.000 HD
ENDBRANCH   5   8
BRANCH   6  10
ATOM     10  O   UNL     1       0.002   2.905  19.754  0.00  0.00    +0.000 OA
ATOM     11  H   UNL     1       0.408   3.033  20.631  0.00  0.00    +0.000 HD
ENDBRANCH   6  10
BRANCH   7  12
ATOM     12  O   UNL     1       2.106   3.268  16.749  0.00  0.00    +0.000 OA
ATOM     13  H   UNL     1       2.529   2.410  16.965  0.00  0.00    +0.000 HD
ENDBRANCH   7  12
BRANCH   4  14
ATOM     14  C   UNL     1       2.164   3.464  21.610  0.00  0.00    +0.000 C 
BRANCH  14  15
ATOM     15  O   UNL     1       1.455   2.401  22.250  0.00  0.00    +0.000 OA
ATOM     16  H   UNL     1       1.025   1.843  21.581  0.00  0.00    +0.000 HD
ENDBRANCH  14  15
ENDBRANCH   4  14
TORSDOF 5
ENDMDL
MODEL 4
REMARK VINA RESULT:      -5.2      1.371      2.673
REMARK  Name = 
REMARK  5 active torsions:
REMARK  status: ('A' for Active; 'I' for Inactive)
REMARK    1  A    between atoms: C_4  and  C_5
REMARK    2  A    between atoms: C_5  and  O_6
REMARK    3  A    between atoms: C_7  and  O_8
REMARK    4  A    between atoms: C_9  and  O_10
REMARK    5  A    between atoms: C_11  and  O_12
REMARK                            x       y       z     vdW  Elec       q    Type
REMARK                         _______ _______ _______ _____ _____    ______ ____
ROOT
ATOM      1  O   UNL     1       5.023   1.861  20.352  0.00  0.00    +0.000 OA
ATOM      2  C   UNL     1       4.169   2.503  19.756  0.00  0.00    +0.000 C 
ATOM      3  O   UNL     1       2.875   2.095  19.747  0.00  0.00    +0.000 OA
ATOM      4  C   UNL     1       1.804   3.071  19.716  0.00  0.00    +0.000 C 
ATOM      5  C   UNL     1       2.069   4.132  18.642  0.00  0.00    +0.000 C 
ATOM      6  C   UNL     1       3.441   4.778  18.856  0.00  0.00    +0.000 C 
ATOM      7  C   UNL     1       4.531   3.696  18.860  0.00  0.00    +0.000 C 
ENDROOT
BRANCH   5   8
ATOM      8  O   UNL     1       2.079   3.506  17.344  0.00  0.00    +0.000 OA
ATOM      9  H   UNL     1       2.747   3.943  16.783  0.00  0.00    +0.000 HD
ENDBRANCH   5   8
BRANCH   6  10
ATOM     10  O   UNL     1       3.419   5.565  20.046  0.00  0.00    +0.000 OA
ATOM     11  H   UNL     1       4.292   5.539  20.479  0.00  0.00    +0.000 HD
ENDBRANCH   6  10
BRANCH   7  12
ATOM     12  O   UNL     1       4.806   3.262  17.524  0.00  0.00    +0.000 OA
ATOM     13  H   UNL     1       4.533   3.988  16.923  0.00  0.00    +0.000 HD
ENDBRANCH   7  12
BRANCH   4  14
ATOM     14  C   UNL     1       1.566   3.614  21.136  0.00  0.00    +0.000 C 
BRANCH  14  15
ATOM     15  O   UNL     1       1.562   2.568  22.110  0.00  0.00    +0.000 OA
ATOM     16  H   UNL     1       0.682   2.503  22.518  0.00  0.00    +0.000 HD
ENDBRANCH  14  15
ENDBRANCH   4  14
TORSDOF 5
ENDMDL
MODEL 5
REMARK VINA RESULT:      -5.2      3.906      5.949
REMARK  Name = 
REMARK  5 active torsions:
REMARK  status: ('A' for Active; 'I' for Inactive)
REMARK    1  A    between atoms: C_4  and  C_5
REMARK    2  A    between atoms: C_5  and  O_6
REMARK    3  A    between atoms: C_7  and  O_8
REMARK    4  A    between atoms: C_9  and  O_10
REMARK    5  A    between atoms: C_11  and  O_12
REMARK                            x       y       z     vdW  Elec       q    Type
REMARK                         _______ _______ _______ _____ _____    ______ ____
ROOT
ATOM      1  O   UNL     1       7.410   4.684  14.873  0.00  0.00    +0.000 OA
ATOM      2  C   UNL     1       6.966   4.726  16.013  0.00  0.00    +0.000 C 
ATOM      3  O   UNL     1       7.802   4.772  17.081  0.00  0.00    +0.000 OA
ATOM      4  C   UNL     1       7.419   5.501  18.274  0.00  0.00    +0.000 C 
ATOM      5  C   UNL     1       5.988   5.142  18.691  0.00  0.00    +0.000 C 
ATOM      6  C   UNL     1       5.018   5.376  17.529  0.00  0.00    +0.000 C 
ATOM      7  C   UNL     1       5.468   4.564  16.305  0.00  0.00    +0.000 C 
ENDROOT
BRANCH   5   8
ATOM      8  O   UNL     1       5.926   3.745  19.037  0.00  0.00    +0.000 OA
ATOM      9  H   UNL     1       5.236   3.313  18.500  0.00  0.00    +0.000 HD
ENDBRANCH   5   8
BRANCH   6  10
ATOM     10  O   UNL     1       4.907   6.775  17.272  0.00  0.00    +0.000 OA
ATOM     11  H   UNL     1       5.083   6.955  16.331  0.00  0.00    +0.000 HD
ENDBRANCH   6  10
BRANCH   7  12
ATOM     12  O   UNL     1       5.130   3.183  16.472  0.00  0.00    +0.000 OA
ATOM     13  H   UNL     1       5.352   2.728  15.632  0.00  0.00    +0.000 HD
ENDBRANCH   7  12
BRANCH   4  14
ATOM     14  C   UNL     1       7.690   7.000  18.067  0.00  0.00    +0.000 C 
BRANCH  14  15
ATOM     15  O   UNL     1       8.645   7.501  19.006  0.00  0.00    +0.000 OA
ATOM     16  H   UNL     1       9.532   7.180  18.775  0.00  0.00    +0.000 HD
ENDBRANCH  14  15
ENDBRANCH   4  14
TORSDOF 5
ENDMDL
MODEL 6
REMARK VINA RESULT:      -5.2      1.433      3.323
REMARK  Name = 
REMARK  5 active torsions:
REMARK  status: ('A' for Active; 'I' for Inactive)
REMARK    1  A    between atoms: C_4  and  C_5
REMARK    2  A    between atoms: C_5  and  O_6
REMARK    3  A    between atoms: C_7  and  O_8
REMARK    4  A    between atoms: C_9  and  O_10
REMARK    5  A    between atoms: C_11  and  O_12
REMARK                            x       y       z     vdW  Elec       q    Type
REMARK                         _______ _______ _______ _____ _____    ______ ____
ROOT
ATOM      1  O   UNL     1       2.369   5.325  17.716  0.00  0.00    +0.000 OA
ATOM      2  C   UNL     1       2.871   4.424  18.375  0.00  0.00    +0.000 C 
ATOM      3  O   UNL     1       3.250   4.635  19.661  0.00  0.00    +0.000 OA
ATOM      4  C   UNL     1       3.159   3.562  20.632  0.00  0.00    +0.000 C 
ATOM      5  C   UNL     1       3.762   2.270  20.070  0.00  0.00    +0.000 C 
ATOM      6  C   UNL     1       3.101   1.908  18.737  0.00  0.00    +0.000 C 
ATOM      7  C   UNL     1       3.248   3.075  17.748  0.00  0.00    +0.000 C 
ENDROOT
BRANCH   5   8
ATOM      8  O   UNL     1       5.168   2.468  19.820  0.00  0.00    +0.000 OA
ATOM      9  H   UNL     1       5.524   3.096  20.477  0.00  0.00    +0.000 HD
ENDBRANCH   5   8
BRANCH   6  10
ATOM     10  O   UNL     1       1.746   1.524  18.964  0.00  0.00    +0.000 OA
ATOM     11  H   UNL     1       1.630   1.242  19.890  0.00  0.00    +0.000 HD
ENDBRANCH   6  10
BRANCH   7  12
ATOM     12  O   UNL     1       4.578   3.115  17.220  0.00  0.00    +0.000 OA
ATOM     13  H   UNL     1       4.709   2.287  16.709  0.00  0.00    +0.000 HD
ENDBRANCH   7  12
BRANCH   4  14
ATOM     14  C   UNL     1       1.710   3.450  21.136  0.00  0.00    +0.000 C 
BRANCH  14  15
ATOM     15  O   UNL     1       1.544   2.350  22.034  0.00  0.00    +0.000 OA
ATOM     16  H   UNL     1       0.616   2.294  22.316  0.00  0.00    +0.000 HD
ENDBRANCH  14  15
ENDBRANCH   4  14
TORSDOF 5
ENDMDL
MODEL 7
REMARK VINA RESULT:      -5.1      1.551      3.097
REMARK  Name = 
REMARK  5 active torsions:
REMARK  status: ('A' for Active; 'I' for Inactive)
REMARK    1  A    between atoms: C_4  and  C_5
REMARK    2  A    between atoms: C_5  and  O_6
REMARK    3  A    between atoms: C_7  and  O_8
REMARK    4  A    between atoms: C_9  and  O_10
REMARK    5  A    between atoms: C_11  and  O_12
REMARK                            x       y       z     vdW  Elec       q    Type
REMARK                         _______ _______ _______ _____ _____    ______ ____
ROOT
ATOM      1  O   UNL     1       2.278   4.589  21.360  0.00  0.00    +0.000 OA
ATOM      2  C   UNL     1       2.630   4.117  20.287  0.00  0.00    +0.000 C 
ATOM      3  O   UNL     1       2.994   4.925  19.260  0.00  0.00    +0.000 OA
ATOM      4  C   UNL     1       4.021   4.501  18.329  0.00  0.00    +0.000 C 
ATOM      5  C   UNL     1       3.762   3.067  17.854  0.00  0.00    +0.000 C 
ATOM      6  C   UNL     1       3.637   2.122  19.053  0.00  0.00    +0.000 C 
ATOM      7  C   UNL     1       2.523   2.615  19.990  0.00  0.00    +0.000 C 
ENDROOT
BRANCH   5   8
ATOM      8  O   UNL     1       2.518   3.019  17.129  0.00  0.00    +0.000 OA
ATOM      9  H   UNL     1       1.887   2.454  17.613  0.00  0.00    +0.000 HD
ENDBRANCH   5   8
BRANCH   6  10
ATOM     10  O   UNL     1       4.904   1.995  19.697  0.00  0.00    +0.000 OA
ATOM     11  H   UNL     1       4.916   1.194  20.253  0.00  0.00    +0.000 HD
ENDBRANCH   6  10
BRANCH   7  12
ATOM     12  O   UNL     1       1.238   2.295  19.446  0.00  0.00    +0.000 OA
ATOM     13  H   UNL     1       0.676   1.995  20.192  0.00  0.00    +0.000 HD
ENDBRANCH   7  12
BRANCH   4  14
ATOM     14  C   UNL     1       5.407   4.753  18.946  0.00  0.00    +0.000 C 
BRANCH  14  15
ATOM     15  O   UNL     1       6.431   4.021  18.268  0.00  0.00    +0.000 OA
ATOM     16  H   UNL     1       6.601   3.187  18.736  0.00  0.00    +0.000 HD
ENDBRANCH  14  15
ENDBRANCH   4  14
TORSDOF 5
ENDMDL
MODEL 8
REMARK VINA RESULT:      -5.1      3.700      4.726
REMARK  Name = 
REMARK  5 active torsions:
REMARK  status: ('A' for Active; 'I' for Inactive)
REMARK    1  A    between atoms: C_4  and  C_5
REMARK    2  A    between atoms: C_5  and  O_6
REMARK    3  A    between atoms: C_7  and  O_8
REMARK    4  A    between atoms: C_9  and  O_10
REMARK    5  A    between atoms: C_11  and  O_12
REMARK                            x       y       z     vdW  Elec       q    Type
REMARK                         _______ _______ _______ _____ _____    ______ ____
ROOT
ATOM      1  O   UNL     1       4.404   5.296  19.651  0.00  0.00    +0.000 OA
ATOM      2  C   UNL     1       5.379   5.137  18.929  0.00  0.00    +0.000 C 
ATOM      3  O   UNL     1       5.401   4.147  18.001  0.00  0.00    +0.000 OA
ATOM      4  C   UNL     1       6.104   4.338  16.748  0.00  0.00    +0.000 C 
ATOM      5  C   UNL     1       7.503   4.913  16.994  0.00  0.00    +0.000 C 
ATOM      6  C   UNL     1       7.414   6.202  17.816  0.00  0.00    +0.000 C 
ATOM      7  C   UNL     1       6.677   5.929  19.136  0.00  0.00    +0.000 C 
ENDROOT
BRANCH   5   8
ATOM      8  O   UNL     1       8.283   3.966  17.751  0.00  0.00    +0.000 OA
ATOM      9  H   UNL     1       8.270   4.221  18.692  0.00  0.00    +0.000 HD
ENDBRANCH   5   8
BRANCH   6  10
ATOM     10  O   UNL     1       6.810   7.229  17.031  0.00  0.00    +0.000 OA
ATOM     11  H   UNL     1       5.946   6.926  16.695  0.00  0.00    +0.000 HD
ENDBRANCH   6  10
BRANCH   7  12
ATOM     12  O   UNL     1       7.541   5.254  20.057  0.00  0.00    +0.000 OA
ATOM     13  H   UNL     1       7.938   5.941  20.635  0.00  0.00    +0.000 HD
ENDBRANCH   7  12
BRANCH   4  14
ATOM     14  C   UNL     1       5.219   5.146  15.783  0.00  0.00    +0.000 C 
BRANCH  14  15
ATOM     15  O   UNL     1       5.975   5.690  14.699  0.00  0.00    +0.000 OA
ATOM     16  H   UNL     1       5.572   6.524  14.404  0.00  0.00    +0.000 HD
ENDBRANCH  14  15
ENDBRANCH   4  14
TORSDOF 5
ENDMDL
MODEL 9
REMARK VINA RESULT:      -5.1      1.712      2.769
REMARK  Name = 
REMARK  5 active torsions:
REMARK  status: ('A' for Active; 'I' for Inactive)
REMARK    1  A    between atoms: C_4  and  C_5
REMARK    2  A    between atoms: C_5  and  O_6
REMARK    3  A    between atoms: C_7  and  O_8
REMARK    4  A    between atoms: C_9  and  O_10
REMARK    5  A    between atoms: C_11  and  O_12
REMARK                            x       y       z     vdW  Elec       q    Type
REMARK                         _______ _______ _______ _____ _____    ______ ____
ROOT
ATOM      1  O   UNL     1       2.312   5.583  20.079  0.00  0.00    +0.000 OA
ATOM      2  C   UNL     1       2.542   4.527  19.505  0.00  0.00    +0.000 C 
ATOM      3  O   UNL     1       2.346   4.409  18.167  0.00  0.00    +0.000 OA
ATOM      4  C   UNL     1       3.205   3.547  17.379  0.00  0.00    +0.000 C 
ATOM      5  C   UNL     1       3.359   2.177  18.050  0.00  0.00    +0.000 C 
ATOM      6  C   UNL     1       3.859   2.340  19.488  0.00  0.00    +0.000 C 
ATOM      7  C   UNL     1       2.898   3.247  20.273  0.00  0.00    +0.000 C 
ENDROOT
BRANCH   5   8
ATOM      8  O   UNL     1       2.075   1.524  18.105  0.00  0.00    +0.000 OA
ATOM      9  H   UNL     1       2.000   0.903  17.356  0.00  0.00    +0.000 HD
ENDBRANCH   5   8
BRANCH   6  10
ATOM     10  O   UNL     1       5.204   2.814  19.476  0.00  0.00    +0.000 OA
ATOM     11  H   UNL     1       5.527   2.877  18.559  0.00  0.00    +0.000 HD
ENDBRANCH   6  10
BRANCH   7  12
ATOM     12  O   UNL     1       1.716   2.525  20.634  0.00  0.00    +0.000 OA
ATOM     13  H   UNL     1       1.196   3.105  21.231  0.00  0.00    +0.000 HD
ENDBRANCH   7  12
BRANCH   4  14
ATOM     14  C   UNL     1       4.520   4.281  17.066  0.00  0.00    +0.000 C 
BRANCH  14  15
ATOM     15  O   UNL     1       5.515   3.392  16.554  0.00  0.00    +0.000 OA
ATOM     16  H   UNL     1       5.875   3.746  15.724  0.00  0.00    +0.000 HD
ENDBRANCH  14  15
ENDBRANCH   4  14
TORSDOF 5
ENDMDL
