MODEL 1
REMARK VINA RESULT:      -7.4      0.000      0.000
REMARK  Name = 
REMARK  11 active torsions:
REMARK  status: ('A' for Active; 'I' for Inactive)
REMARK    1  A    between atoms: C_1  and  C_2
REMARK    2  A    between atoms: C_2  and  C_3
REMARK    3  A    between atoms: C_3  and  C_4
REMARK    4  A    between atoms: C_4  and  N_5
REMARK    5  A    between atoms: C_6  and  N_7
REMARK    6  A    between atoms: C_8  and  N_9
REMARK    7  A    between atoms: N_9  and  C_10
REMARK    8  A    between atoms: C_10  and  C_11
REMARK    9  A    between atoms: C_16  and  O_17
REMARK   10  A    between atoms: O_17  and  C_18
REMARK   11  A    between atoms: C_19  and  C_21
REMARK                            x       y       z     vdW  Elec       q    Type
REMARK                         _______ _______ _______ _____ _____    ______ ____
ROOT
ATOM      1  N   UNL     1       4.005   6.020  18.227  0.00  0.00    +0.000 N 
ATOM      2  C   UNL     1       4.773   6.731  17.292  0.00  0.00    +0.000 C 
ATOM      3  O   UNL     1       4.949   7.949  17.415  0.00  0.00    +0.000 OA
ENDROOT
BRANCH   1   6
ATOM      4  N   UNL     1       2.336   2.778  18.362  0.00  0.00    +0.000 N 
ATOM      5  C   UNL     1       2.530   4.119  18.012  0.00  0.00    +0.000 A 
ATOM      6  C   UNL     1       3.780   4.646  18.136  0.00  0.00    +0.000 A 
ATOM      7  C   UNL     1       4.874   3.725  18.559  0.00  0.00    +0.000 A 
ATOM      8  O   UNL     1       5.921   4.099  19.076  0.00  0.00    +0.000 OA
ATOM      9  N   UNL     1       4.637   2.413  18.315  0.00  0.00    +0.000 N 
ATOM     10  C   UNL     1       3.404   1.911  18.583  0.00  0.00    +0.000 A 
ATOM     11  O   UNL     1       3.312   0.772  19.027  0.00  0.00    +0.000 OA
ATOM     12  H   UNL     1       5.377   1.805  18.630  0.00  0.00    +0.000 HD
BRANCH   5  13
ATOM     13  N   UNL     1       1.457   4.938  17.679  0.00  0.00    +0.000 N 
ATOM     14  H   UNL     1       1.497   5.845  18.133  0.00  0.00    +0.000 HD
ATOM     15  H   UNL     1       1.340   5.053  16.676  0.00  0.00    +0.000 HD
ENDBRANCH   5  13
BRANCH   4  16
ATOM     16  C   UNL     1       1.013   2.282  18.742  0.00  0.00    +0.000 C 
BRANCH  16  17
ATOM     17  C   UNL     1       0.416   2.870  20.014  0.00  0.00    +0.000 C 
BRANCH  17  19
ATOM     18  C   UNL     1       2.111   3.898  21.536  0.00  0.00    +0.000 C 
ATOM     19  C   UNL     1       1.302   2.650  21.236  0.00  0.00    +0.000 C 
ENDBRANCH  17  19
ENDBRANCH  16  17
ENDBRANCH   4  16
ENDBRANCH   1   6
BRANCH   2  20
ATOM     20  C   UNL     1       5.509   5.997  16.170  0.00  0.00    +0.000 C 
ATOM     21  C   UNL     1       6.846   6.045  16.201  0.00  0.00    +0.000 C 
ATOM     22  O   UNL     1       7.700   5.401  15.355  0.00  0.00    +0.000 OA
ATOM     23  C   UNL     1       7.087   4.817  14.213  0.00  0.00    +0.000 C 
ATOM     24  C   UNL     1       5.595   4.507  14.309  0.00  0.00    +0.000 C 
ATOM     25  O   UNL     1       4.822   5.262  15.233  0.00  0.00    +0.000 OA
ENDBRANCH   2  20
BRANCH   1  26
ATOM     26  C   UNL     1       3.482   6.763  19.393  0.00  0.00    +0.000 C 
BRANCH  26  27
ATOM     27  C   UNL     1       2.378   7.772  19.116  0.00  0.00    +0.000 A 
ATOM     28  C   UNL     1       2.126   8.179  17.792  0.00  0.00    +0.000 A 
ATOM     29  C   UNL     1       1.212   9.190  17.486  0.00  0.00    +0.000 A 
ATOM     30  C   UNL     1       0.491   9.797  18.501  0.00  0.00    +0.000 A 
ATOM     31  C   UNL     1       0.659   9.357  19.811  0.00  0.00    +0.000 A 
ATOM     32  C   UNL     1       1.570   8.333  20.124  0.00  0.00    +0.000 A 
BRANCH  32  33
ATOM     33  O   UNL     1       1.631   8.060  21.466  0.00  0.00    +0.000 OA
ATOM     34  C   UNL     1       1.232   9.095  22.355  0.00  0.00    +0.000 C 
ENDBRANCH  32  33
ENDBRANCH  26  27
ENDBRANCH   1  26
TORSDOF 9
ENDMDL
MODEL 2
REMARK VINA RESULT:      -7.3      4.165      7.489
REMARK  Name = 
REMARK  11 active torsions:
REMARK  status: ('A' for Active; 'I' for Inactive)
REMARK    1  A    between atoms: C_1  and  C_2
REMARK    2  A    between atoms: C_2  and  C_3
REMARK    3  A    between atoms: C_3  and  C_4
REMARK    4  A    between atoms: C_4  and  N_5
REMARK    5  A    between atoms: C_6  and  N_7
REMARK    6  A    between atoms: C_8  and  N_9
REMARK    7  A    between atoms: N_9  and  C_10
REMARK    8  A    between atoms: C_10  and  C_11
REMARK    9  A    between atoms: C_16  and  O_17
REMARK   10  A    between atoms: O_17  and  C_18
REMARK   11  A    between atoms: C_19  and  C_21
REMARK                            x       y       z     vdW  Elec       q    Type
REMARK                         _______ _______ _______ _____ _____    ______ ____
ROOT
ATOM      1  N   UNL     1      -0.625  10.963  19.544  0.00  0.00    +0.000 N 
ATOM      2  C   UNL     1      -0.390  12.343  19.449  0.00  0.00    +0.000 C 
ATOM      3  O   UNL     1      -1.319  13.128  19.227  0.00  0.00    +0.000 OA
ENDROOT
BRANCH   1   6
ATOM      4  N   UNL     1       1.848   8.327  19.044  0.00  0.00    +0.000 N 
ATOM      5  C   UNL     1       1.178   9.533  18.810  0.00  0.00    +0.000 A 
ATOM      6  C   UNL     1       0.388  10.037  19.798  0.00  0.00    +0.000 A 
ATOM      7  C   UNL     1       0.361   9.303  21.097  0.00  0.00    +0.000 A 
ATOM      8  O   UNL     1      -0.551   9.390  21.912  0.00  0.00    +0.000 OA
ATOM      9  N   UNL     1       1.446   8.525  21.330  0.00  0.00    +0.000 N 
ATOM     10  C   UNL     1       1.937   7.767  20.317  0.00  0.00    +0.000 A 
ATOM     11  O   UNL     1       2.381   6.653  20.572  0.00  0.00    +0.000 OA
ATOM     12  H   UNL     1       1.398   8.019  22.201  0.00  0.00    +0.000 HD
BRANCH   5  13
ATOM     13  N   UNL     1       1.200  10.137  17.558  0.00  0.00    +0.000 N 
ATOM     14  H   UNL     1       2.124  10.142  17.139  0.00  0.00    +0.000 HD
ATOM     15  H   UNL     1       0.524   9.739  16.912  0.00  0.00    +0.000 HD
ENDBRANCH   5  13
BRANCH   4  16
ATOM     16  C   UNL     1       2.281   7.478  17.935  0.00  0.00    +0.000 C 
BRANCH  16  17
ATOM     17  C   UNL     1       3.757   7.553  17.566  0.00  0.00    +0.000 C 
BRANCH  17  19
ATOM     18  C   UNL     1       5.243   6.237  16.048  0.00  0.00    +0.000 C 
ATOM     19  C   UNL     1       4.363   6.182  17.283  0.00  0.00    +0.000 C 
ENDBRANCH  17  19
ENDBRANCH  16  17
ENDBRANCH   4  16
ENDBRANCH   1   6
BRANCH   2  20
ATOM     20  C   UNL     1       0.998  12.919  19.737  0.00  0.00    +0.000 C 
ATOM     21  C   UNL     1       1.298  13.139  21.023  0.00  0.00    +0.000 C 
ATOM     22  O   UNL     1       2.496  13.567  21.514  0.00  0.00    +0.000 OA
ATOM     23  C   UNL     1       3.416  14.028  20.534  0.00  0.00    +0.000 C 
ATOM     24  C   UNL     1       3.216  13.528  19.105  0.00  0.00    +0.000 C 
ATOM     25  O   UNL     1       1.908  13.116  18.727  0.00  0.00    +0.000 OA
ENDBRANCH   2  20
BRANCH   1  26
ATOM     26  C   UNL     1      -2.023  10.496  19.444  0.00  0.00    +0.000 C 
BRANCH  26  27
ATOM     27  C   UNL     1      -2.656  10.540  18.062  0.00  0.00    +0.000 A 
ATOM     28  C   UNL     1      -2.066   9.824  17.004  0.00  0.00    +0.000 A 
ATOM     29  C   UNL     1      -2.528   9.921  15.690  0.00  0.00    +0.000 A 
ATOM     30  C   UNL     1      -3.628  10.713  15.403  0.00  0.00    +0.000 A 
ATOM     31  C   UNL     1      -4.283  11.368  16.443  0.00  0.00    +0.000 A 
ATOM     32  C   UNL     1      -3.828  11.266  17.770  0.00  0.00    +0.000 A 
BRANCH  32  33
ATOM     33  O   UNL     1      -4.571  12.007  18.651  0.00  0.00    +0.000 OA
ATOM     34  C   UNL     1      -5.848  11.496  19.010  0.00  0.00    +0.000 C 
ENDBRANCH  32  33
ENDBRANCH  26  27
ENDBRANCH   1  26
TORSDOF 9
ENDMDL
MODEL 3
REMARK VINA RESULT:      -7.2      7.635     10.604
REMARK  Name = 
REMARK  11 active torsions:
REMARK  status: ('A' for Active; 'I' for Inactive)
REMARK    1  A    between atoms: C_1  and  C_2
REMARK    2  A    between atoms: C_2  and  C_3
REMARK    3  A    between atoms: C_3  and  C_4
REMARK    4  A    between atoms: C_4  and  N_5
REMARK    5  A    between atoms: C_6  and  N_7
REMARK    6  A    between atoms: C_8  and  N_9
REMARK    7  A    between atoms: N_9  and  C_10
REMARK    8  A    between atoms: C_10  and  C_11
REMARK    9  A    between atoms: C_16  and  O_17
REMARK   10  A    between atoms: O_17  and  C_18
REMARK   11  A    between atoms: C_19  and  C_21
REMARK                            x       y       z     vdW  Elec       q    Type
REMARK                         _______ _______ _______ _____ _____    ______ ____
ROOT
ATOM      1  N   UNL     1      -0.282  15.360  21.597  0.00  0.00    +0.000 N 
ATOM      2  C   UNL     1      -0.383  16.724  21.281  0.00  0.00    +0.000 C 
ATOM      3  O   UNL     1      -0.681  17.553  22.148  0.00  0.00    +0.000 OA
ENDROOT
BRANCH   1   6
ATOM      4  N   UNL     1      -0.537  12.501  19.344  0.00  0.00    +0.000 N 
ATOM      5  C   UNL     1      -0.884  13.727  19.922  0.00  0.00    +0.000 A 
ATOM      6  C   UNL     1       0.055  14.387  20.656  0.00  0.00    +0.000 A 
ATOM      7  C   UNL     1       1.420  13.787  20.720  0.00  0.00    +0.000 A 
ATOM      8  O   UNL     1       2.229  14.024  21.611  0.00  0.00    +0.000 OA
ATOM      9  N   UNL     1       1.721  12.952  19.697  0.00  0.00    +0.000 N 
ATOM     10  C   UNL     1       0.784  12.063  19.281  0.00  0.00    +0.000 A 
ATOM     11  O   UNL     1       1.145  10.947  18.921  0.00  0.00    +0.000 OA
ATOM     12  H   UNL     1       2.638  12.539  19.772  0.00  0.00    +0.000 HD
BRANCH   5  13
ATOM     13  N   UNL     1      -2.190  14.203  19.871  0.00  0.00    +0.000 N 
ATOM     14  H   UNL     1      -2.304  14.972  19.218  0.00  0.00    +0.000 HD
ATOM     15  H   UNL     1      -2.872  13.474  19.678  0.00  0.00    +0.000 HD
ENDBRANCH   5  13
BRANCH   4  16
ATOM     16  C   UNL     1      -1.561  11.516  18.994  0.00  0.00    +0.000 C 
BRANCH  16  17
ATOM     17  C   UNL     1      -1.963  11.457  17.527  0.00  0.00    +0.000 C 
BRANCH  17  19
ATOM     18  C   UNL     1      -2.880   9.930  15.773  0.00  0.00    +0.000 C 
ATOM     19  C   UNL     1      -1.956  10.036  16.972  0.00  0.00    +0.000 C 
ENDBRANCH  17  19
ENDBRANCH  16  17
ENDBRANCH   4  16
ENDBRANCH   1   6
BRANCH   2  20
ATOM     20  C   UNL     1      -0.011  17.229  19.885  0.00  0.00    +0.000 C 
ATOM     21  C   UNL     1       1.224  17.724  19.740  0.00  0.00    +0.000 C 
ATOM     22  O   UNL     1       1.793  18.153  18.577  0.00  0.00    +0.000 OA
ATOM     23  C   UNL     1       0.896  18.284  17.482  0.00  0.00    +0.000 C 
ATOM     24  C   UNL     1      -0.397  17.475  17.544  0.00  0.00    +0.000 C 
ATOM     25  O   UNL     1      -0.880  17.100  18.828  0.00  0.00    +0.000 OA
ENDBRANCH   2  20
BRANCH   1  26
ATOM     26  C   UNL     1      -0.469  14.967  23.009  0.00  0.00    +0.000 C 
BRANCH  26  27
ATOM     27  C   UNL     1      -1.686  14.110  23.320  0.00  0.00    +0.000 A 
ATOM     28  C   UNL     1      -2.908  14.730  23.644  0.00  0.00    +0.000 A 
ATOM     29  C   UNL     1      -4.025  14.002  24.057  0.00  0.00    +0.000 A 
ATOM     30  C   UNL     1      -3.963  12.620  24.118  0.00  0.00    +0.000 A 
ATOM     31  C   UNL     1      -2.794  11.974  23.723  0.00  0.00    +0.000 A 
ATOM     32  C   UNL     1      -1.669  12.702  23.297  0.00  0.00    +0.000 A 
BRANCH  32  33
ATOM     33  O   UNL     1      -0.599  11.903  22.986  0.00  0.00    +0.000 OA
ATOM     34  C   UNL     1      -0.846  10.507  22.875  0.00  0.00    +0.000 C 
ENDBRANCH  32  33
ENDBRANCH  26  27
ENDBRANCH   1  26
TORSDOF 9
ENDMDL
MODEL 4
REMARK VINA RESULT:      -6.8      8.266     12.362
REMARK  Name = 
REMARK  11 active torsions:
REMARK  status: ('A' for Active; 'I' for Inactive)
REMARK    1  A    between atoms: C_1  and  C_2
REMARK    2  A    between atoms: C_2  and  C_3
REMARK    3  A    between atoms: C_3  and  C_4
REMARK    4  A    between atoms: C_4  and  N_5
REMARK    5  A    between atoms: C_6  and  N_7
REMARK    6  A    between atoms: C_8  and  N_9
REMARK    7  A    between atoms: N_9  and  C_10
REMARK    8  A    between atoms: C_10  and  C_11
REMARK    9  A    between atoms: C_16  and  O_17
REMARK   10  A    between atoms: O_17  and  C_18
REMARK   11  A    between atoms: C_19  and  C_21
REMARK                            x       y       z     vdW  Elec       q    Type
REMARK                         _______ _______ _______ _____ _____    ______ ____
ROOT
ATOM      1  N   UNL     1      -2.106  13.993  22.770  0.00  0.00    +0.000 N 
ATOM      2  C   UNL     1      -1.997  15.266  22.188  0.00  0.00    +0.000 C 
ATOM      3  O   UNL     1      -0.889  15.741  21.912  0.00  0.00    +0.000 OA
ENDROOT
BRANCH   1   6
ATOM      4  N   UNL     1      -5.561  12.845  22.513  0.00  0.00    +0.000 N 
ATOM      5  C   UNL     1      -4.219  13.001  22.147  0.00  0.00    +0.000 A 
ATOM      6  C   UNL     1      -3.332  13.411  23.096  0.00  0.00    +0.000 A 
ATOM      7  C   UNL     1      -3.846  13.585  24.486  0.00  0.00    +0.000 A 
ATOM      8  O   UNL     1      -3.307  14.292  25.330  0.00  0.00    +0.000 OA
ATOM      9  N   UNL     1      -4.970  12.882  24.766  0.00  0.00    +0.000 N 
ATOM     10  C   UNL     1      -5.967  12.847  23.846  0.00  0.00    +0.000 A 
ATOM     11  O   UNL     1      -7.130  12.859  24.232  0.00  0.00    +0.000 OA
ATOM     12  H   UNL     1      -5.315  13.031  25.702  0.00  0.00    +0.000 HD
BRANCH   5  13
ATOM     13  N   UNL     1      -3.816  12.878  20.822  0.00  0.00    +0.000 N 
ATOM     14  H   UNL     1      -4.531  13.167  20.164  0.00  0.00    +0.000 HD
ATOM     15  H   UNL     1      -2.942  13.358  20.625  0.00  0.00    +0.000 HD
ENDBRANCH   5  13
BRANCH   4  16
ATOM     16  C   UNL     1      -6.627  12.910  21.514  0.00  0.00    +0.000 C 
BRANCH  16  17
ATOM     17  C   UNL     1      -7.095  11.579  20.943  0.00  0.00    +0.000 C 
BRANCH  17  19
ATOM     18  C   UNL     1      -6.567  10.588  18.709  0.00  0.00    +0.000 C 
ATOM     19  C   UNL     1      -7.370  11.646  19.443  0.00  0.00    +0.000 C 
ENDBRANCH  17  19
ENDBRANCH  16  17
ENDBRANCH   4  16
ENDBRANCH   1   6
BRANCH   2  20
ATOM     20  C   UNL     1      -3.248  16.042  21.773  0.00  0.00    +0.000 C 
ATOM     21  C   UNL     1      -3.722  16.927  22.658  0.00  0.00    +0.000 C 
ATOM     22  O   UNL     1      -4.769  17.780  22.468  0.00  0.00    +0.000 OA
ATOM     23  C   UNL     1      -5.548  17.527  21.306  0.00  0.00    +0.000 C 
ATOM     24  C   UNL     1      -4.877  16.746  20.179  0.00  0.00    +0.000 C 
ATOM     25  O   UNL     1      -3.797  15.887  20.522  0.00  0.00    +0.000 OA
ENDBRANCH   2  20
BRANCH   1  26
ATOM     26  C   UNL     1      -0.863  13.220  22.969  0.00  0.00    +0.000 C 
BRANCH  26  27
ATOM     27  C   UNL     1      -0.765  11.891  22.237  0.00  0.00    +0.000 A 
ATOM     28  C   UNL     1      -0.703  10.694  22.976  0.00  0.00    +0.000 A 
ATOM     29  C   UNL     1      -0.491   9.454  22.369  0.00  0.00    +0.000 A 
ATOM     30  C   UNL     1      -0.374   9.373  20.991  0.00  0.00    +0.000 A 
ATOM     31  C   UNL     1      -0.514  10.529  20.228  0.00  0.00    +0.000 A 
ATOM     32  C   UNL     1      -0.738  11.778  20.833  0.00  0.00    +0.000 A 
BRANCH  32  33
ATOM     33  O   UNL     1      -0.810  12.807  19.930  0.00  0.00    +0.000 OA
ATOM     34  C   UNL     1      -0.607  12.481  18.561  0.00  0.00    +0.000 C 
ENDBRANCH  32  33
ENDBRANCH  26  27
ENDBRANCH   1  26
TORSDOF 9
ENDMDL
MODEL 5
REMARK VINA RESULT:      -6.8      7.289     10.000
REMARK  Name = 
REMARK  11 active torsions:
REMARK  status: ('A' for Active; 'I' for Inactive)
REMARK    1  A    between atoms: C_1  and  C_2
REMARK    2  A    between atoms: C_2  and  C_3
REMARK    3  A    between atoms: C_3  and  C_4
REMARK    4  A    between atoms: C_4  and  N_5
REMARK    5  A    between atoms: C_6  and  N_7
REMARK    6  A    between atoms: C_8  and  N_9
REMARK    7  A    between atoms: N_9  and  C_10
REMARK    8  A    between atoms: C_10  and  C_11
REMARK    9  A    between atoms: C_16  and  O_17
REMARK   10  A    between atoms: O_17  and  C_18
REMARK   11  A    between atoms: C_19  and  C_21
REMARK                            x       y       z     vdW  Elec       q    Type
REMARK                         _______ _______ _______ _____ _____    ______ ____
ROOT
ATOM      1  N   UNL     1       0.481  15.064  21.225  0.00  0.00    +0.000 N 
ATOM      2  C   UNL     1       0.755  16.396  20.877  0.00  0.00    +0.000 C 
ATOM      3  O   UNL     1       0.634  17.303  21.709  0.00  0.00    +0.000 OA
ENDROOT
BRANCH   1   6
ATOM      4  N   UNL     1      -0.368  12.242  19.073  0.00  0.00    +0.000 N 
ATOM      5  C   UNL     1      -0.446  13.537  19.599  0.00  0.00    +0.000 A 
ATOM      6  C   UNL     1       0.607  14.005  20.326  0.00  0.00    +0.000 A 
ATOM      7  C   UNL     1       1.808  13.126  20.436  0.00  0.00    +0.000 A 
ATOM      8  O   UNL     1       2.641  13.217  21.332  0.00  0.00    +0.000 OA
ATOM      9  N   UNL     1       1.931  12.206  19.449  0.00  0.00    +0.000 N 
ATOM     10  C   UNL     1       0.827  11.526  19.049  0.00  0.00    +0.000 A 
ATOM     11  O   UNL     1       0.939  10.345  18.736  0.00  0.00    +0.000 OA
ATOM     12  H   UNL     1       2.735  11.607  19.555  0.00  0.00    +0.000 HD
BRANCH   5  13
ATOM     13  N   UNL     1      -1.616  14.282  19.508  0.00  0.00    +0.000 N 
ATOM     14  H   UNL     1      -2.151  14.073  18.671  0.00  0.00    +0.000 HD
ATOM     15  H   UNL     1      -2.206  14.200  20.332  0.00  0.00    +0.000 HD
ENDBRANCH   5  13
BRANCH   4  16
ATOM     16  C   UNL     1      -1.578  11.490  18.740  0.00  0.00    +0.000 C 
BRANCH  16  17
ATOM     17  C   UNL     1      -2.011  11.524  17.281  0.00  0.00    +0.000 C 
BRANCH  17  19
ATOM     18  C   UNL     1      -3.417   9.487  17.629  0.00  0.00    +0.000 C 
ATOM     19  C   UNL     1      -2.375  10.144  16.743  0.00  0.00    +0.000 C 
ENDBRANCH  17  19
ENDBRANCH  16  17
ENDBRANCH   4  16
ENDBRANCH   1   6
BRANCH   2  20
ATOM     20  C   UNL     1       1.325  16.740  19.500  0.00  0.00    +0.000 C 
ATOM     21  C   UNL     1       0.569  17.522  18.720  0.00  0.00    +0.000 C 
ATOM     22  O   UNL     1       0.911  18.017  17.495  0.00  0.00    +0.000 OA
ATOM     23  C   UNL     1       2.084  17.452  16.925  0.00  0.00    +0.000 C 
ATOM     24  C   UNL     1       3.079  16.805  17.885  0.00  0.00    +0.000 C 
ATOM     25  O   UNL     1       2.582  16.327  19.129  0.00  0.00    +0.000 OA
ENDBRANCH   2  20
BRANCH   1  26
ATOM     26  C   UNL     1       0.118  14.782  22.629  0.00  0.00    +0.000 C 
BRANCH  26  27
ATOM     27  C   UNL     1      -1.195  14.050  22.857  0.00  0.00    +0.000 A 
ATOM     28  C   UNL     1      -2.388  14.788  22.985  0.00  0.00    +0.000 A 
ATOM     29  C   UNL     1      -3.603  14.185  23.316  0.00  0.00    +0.000 A 
ATOM     30  C   UNL     1      -3.667  12.812  23.489  0.00  0.00    +0.000 A 
ATOM     31  C   UNL     1      -2.521  12.048  23.288  0.00  0.00    +0.000 A 
ATOM     32  C   UNL     1      -1.296  12.648  22.945  0.00  0.00    +0.000 A 
BRANCH  32  33
ATOM     33  O   UNL     1      -0.271  11.746  22.826  0.00  0.00    +0.000 OA
ATOM     34  C   UNL     1      -0.619  10.418  22.456  0.00  0.00    +0.000 C 
ENDBRANCH  32  33
ENDBRANCH  26  27
ENDBRANCH   1  26
TORSDOF 9
ENDMDL
MODEL 6
REMARK VINA RESULT:      -6.8      4.428      7.774
REMARK  Name = 
REMARK  11 active torsions:
REMARK  status: ('A' for Active; 'I' for Inactive)
REMARK    1  A    between atoms: C_1  and  C_2
REMARK    2  A    between atoms: C_2  and  C_3
REMARK    3  A    between atoms: C_3  and  C_4
REMARK    4  A    between atoms: C_4  and  N_5
REMARK    5  A    between atoms: C_6  and  N_7
REMARK    6  A    between atoms: C_8  and  N_9
REMARK    7  A    between atoms: N_9  and  C_10
REMARK    8  A    between atoms: C_10  and  C_11
REMARK    9  A    between atoms: C_16  and  O_17
REMARK   10  A    between atoms: O_17  and  C_18
REMARK   11  A    between atoms: C_19  and  C_21
REMARK                            x       y       z     vdW  Elec       q    Type
REMARK                         _______ _______ _______ _____ _____    ______ ____
ROOT
ATOM      1  N   UNL     1      -0.612  11.564  19.848  0.00  0.00    +0.000 N 
ATOM      2  C   UNL     1      -0.249  12.911  19.696  0.00  0.00    +0.000 C 
ATOM      3  O   UNL     1      -1.106  13.776  19.483  0.00  0.00    +0.000 OA
ENDROOT
BRANCH   1   6
ATOM      4  N   UNL     1       1.583   8.694  19.340  0.00  0.00    +0.000 N 
ATOM      5  C   UNL     1       1.023   9.953  19.096  0.00  0.00    +0.000 A 
ATOM      6  C   UNL     1       0.316  10.552  20.094  0.00  0.00    +0.000 A 
ATOM      7  C   UNL     1       0.262   9.852  21.411  0.00  0.00    +0.000 A 
ATOM      8  O   UNL     1      -0.612  10.043  22.251  0.00  0.00    +0.000 OA
ATOM      9  N   UNL     1       1.274   8.979  21.632  0.00  0.00    +0.000 N 
ATOM     10  C   UNL     1       1.659   8.156  20.623  0.00  0.00    +0.000 A 
ATOM     11  O   UNL     1       2.003   7.010  20.893  0.00  0.00    +0.000 OA
ATOM     12  H   UNL     1       1.206   8.499  22.516  0.00  0.00    +0.000 HD
BRANCH   5  13
ATOM     13  N   UNL     1       1.063  10.525  17.829  0.00  0.00    +0.000 N 
ATOM     14  H   UNL     1       0.567  11.409  17.780  0.00  0.00    +0.000 HD
ATOM     15  H   UNL     1       2.008  10.631  17.469  0.00  0.00    +0.000 HD
ENDBRANCH   5  13
BRANCH   4  16
ATOM     16  C   UNL     1       1.899   7.783  18.239  0.00  0.00    +0.000 C 
BRANCH  16  17
ATOM     17  C   UNL     1       3.324   7.841  17.706  0.00  0.00    +0.000 C 
BRANCH  17  19
ATOM     18  C   UNL     1       4.972   6.459  16.433  0.00  0.00    +0.000 C 
ATOM     19  C   UNL     1       3.953   6.460  17.557  0.00  0.00    +0.000 C 
ENDBRANCH  17  19
ENDBRANCH  16  17
ENDBRANCH   4  16
ENDBRANCH   1   6
BRANCH   2  20
ATOM     20  C   UNL     1       1.200  13.356  19.911  0.00  0.00    +0.000 C 
ATOM     21  C   UNL     1       1.831  13.866  18.847  0.00  0.00    +0.000 C 
ATOM     22  O   UNL     1       3.088  14.396  18.829  0.00  0.00    +0.000 OA
ATOM     23  C   UNL     1       3.854  14.168  20.004  0.00  0.00    +0.000 C 
ATOM     24  C   UNL     1       3.082  13.862  21.286  0.00  0.00    +0.000 C 
ATOM     25  O   UNL     1       1.780  13.304  21.156  0.00  0.00    +0.000 OA
ENDBRANCH   2  20
BRANCH   1  26
ATOM     26  C   UNL     1      -2.052  11.234  19.817  0.00  0.00    +0.000 C 
BRANCH  26  27
ATOM     27  C   UNL     1      -2.686  11.090  18.443  0.00  0.00    +0.000 A 
ATOM     28  C   UNL     1      -1.989  10.416  17.423  0.00  0.00    +0.000 A 
ATOM     29  C   UNL     1      -2.464  10.356  16.111  0.00  0.00    +0.000 A 
ATOM     30  C   UNL     1      -3.678  10.940  15.790  0.00  0.00    +0.000 A 
ATOM     31  C   UNL     1      -4.429  11.542  16.796  0.00  0.00    +0.000 A 
ATOM     32  C   UNL     1      -3.961  11.596  18.121  0.00  0.00    +0.000 A 
BRANCH  32  33
ATOM     33  O   UNL     1      -4.813  12.260  18.965  0.00  0.00    +0.000 OA
ATOM     34  C   UNL     1      -5.967  12.854  18.383  0.00  0.00    +0.000 C 
ENDBRANCH  32  33
ENDBRANCH  26  27
ENDBRANCH   1  26
TORSDOF 9
ENDMDL
MODEL 7
REMARK VINA RESULT:      -6.8      6.765     10.364
REMARK  Name = 
REMARK  11 active torsions:
REMARK  status: ('A' for Active; 'I' for Inactive)
REMARK    1  A    between atoms: C_1  and  C_2
REMARK    2  A    between atoms: C_2  and  C_3
REMARK    3  A    between atoms: C_3  and  C_4
REMARK    4  A    between atoms: C_4  and  N_5
REMARK    5  A    between atoms: C_6  and  N_7
REMARK    6  A    between atoms: C_8  and  N_9
REMARK    7  A    between atoms: N_9  and  C_10
REMARK    8  A    between atoms: C_10  and  C_11
REMARK    9  A    between atoms: C_16  and  O_17
REMARK   10  A    between atoms: O_17  and  C_18
REMARK   11  A    between atoms: C_19  and  C_21
REMARK                            x       y       z     vdW  Elec       q    Type
REMARK                         _______ _______ _______ _____ _____    ______ ____
ROOT
ATOM      1  N   UNL     1      -0.060  13.769  21.180  0.00  0.00    +0.000 N 
ATOM      2  C   UNL     1       1.055  13.016  20.781  0.00  0.00    +0.000 C 
ATOM      3  O   UNL     1       2.125  13.571  20.503  0.00  0.00    +0.000 OA
ENDROOT
BRANCH   1   6
ATOM      4  N   UNL     1      -3.592  12.861  21.058  0.00  0.00    +0.000 N 
ATOM      5  C   UNL     1      -2.283  13.025  20.594  0.00  0.00    +0.000 A 
ATOM      6  C   UNL     1      -1.287  13.191  21.508  0.00  0.00    +0.000 A 
ATOM      7  C   UNL     1      -1.658  13.100  22.951  0.00  0.00    +0.000 A 
ATOM      8  O   UNL     1      -0.997  13.592  23.859  0.00  0.00    +0.000 OA
ATOM      9  N   UNL     1      -2.796  12.407  23.201  0.00  0.00    +0.000 N 
ATOM     10  C   UNL     1      -3.873  12.608  22.400  0.00  0.00    +0.000 A 
ATOM     11  O   UNL     1      -4.993  12.594  22.899  0.00  0.00    +0.000 OA
ATOM     12  H   UNL     1      -3.042  12.378  24.178  0.00  0.00    +0.000 HD
BRANCH   5  13
ATOM     13  N   UNL     1      -2.012  13.157  19.236  0.00  0.00    +0.000 N 
ATOM     14  H   UNL     1      -2.757  13.624  18.730  0.00  0.00    +0.000 HD
ATOM     15  H   UNL     1      -1.122  13.612  19.050  0.00  0.00    +0.000 HD
ENDBRANCH   5  13
BRANCH   4  16
ATOM     16  C   UNL     1      -4.739  13.179  20.208  0.00  0.00    +0.000 C 
BRANCH  16  17
ATOM     17  C   UNL     1      -5.390  12.004  19.491  0.00  0.00    +0.000 C 
BRANCH  17  19
ATOM     18  C   UNL     1      -7.372  10.887  20.528  0.00  0.00    +0.000 C 
ATOM     19  C   UNL     1      -6.911  12.008  19.615  0.00  0.00    +0.000 C 
ENDBRANCH  17  19
ENDBRANCH  16  17
ENDBRANCH   4  16
ENDBRANCH   1   6
BRANCH   2  20
ATOM     20  C   UNL     1       1.009  11.487  20.799  0.00  0.00    +0.000 C 
ATOM     21  C   UNL     1       0.972  10.878  19.607  0.00  0.00    +0.000 C 
ATOM     22  O   UNL     1       1.008   9.533  19.384  0.00  0.00    +0.000 OA
ATOM     23  C   UNL     1       0.843   8.727  20.544  0.00  0.00    +0.000 C 
ATOM     24  C   UNL     1       1.170   9.371  21.888  0.00  0.00    +0.000 C 
ATOM     25  O   UNL     1       1.086  10.788  21.980  0.00  0.00    +0.000 OA
ENDBRANCH   2  20
BRANCH   1  26
ATOM     26  C   UNL     1       0.113  15.229  21.324  0.00  0.00    +0.000 C 
BRANCH  26  27
ATOM     27  C   UNL     1      -0.460  16.094  20.213  0.00  0.00    +0.000 A 
ATOM     28  C   UNL     1       0.290  16.306  19.040  0.00  0.00    +0.000 A 
ATOM     29  C   UNL     1      -0.127  17.185  18.039  0.00  0.00    +0.000 A 
ATOM     30  C   UNL     1      -1.334  17.852  18.166  0.00  0.00    +0.000 A 
ATOM     31  C   UNL     1      -2.136  17.599  19.276  0.00  0.00    +0.000 A 
ATOM     32  C   UNL     1      -1.727  16.707  20.282  0.00  0.00    +0.000 A 
BRANCH  32  33
ATOM     33  O   UNL     1      -2.624  16.614  21.315  0.00  0.00    +0.000 OA
ATOM     34  C   UNL     1      -3.282  17.811  21.709  0.00  0.00    +0.000 C 
ENDBRANCH  32  33
ENDBRANCH  26  27
ENDBRANCH   1  26
TORSDOF 9
ENDMDL
MODEL 8
REMARK VINA RESULT:      -6.8      5.056      8.597
REMARK  Name = 
REMARK  11 active torsions:
REMARK  status: ('A' for Active; 'I' for Inactive)
REMARK    1  A    between atoms: C_1  and  C_2
REMARK    2  A    between atoms: C_2  and  C_3
REMARK    3  A    between atoms: C_3  and  C_4
REMARK    4  A    between atoms: C_4  and  N_5
REMARK    5  A    between atoms: C_6  and  N_7
REMARK    6  A    between atoms: C_8  and  N_9
REMARK    7  A    between atoms: N_9  and  C_10
REMARK    8  A    between atoms: C_10  and  C_11
REMARK    9  A    between atoms: C_16  and  O_17
REMARK   10  A    between atoms: O_17  and  C_18
REMARK   11  A    between atoms: C_19  and  C_21
REMARK                            x       y       z     vdW  Elec       q    Type
REMARK                         _______ _______ _______ _____ _____    ______ ____
ROOT
ATOM      1  N   UNL     1       0.197  13.326  20.458  0.00  0.00    +0.000 N 
ATOM      2  C   UNL     1      -0.980  13.708  19.795  0.00  0.00    +0.000 C 
ATOM      3  O   UNL     1      -1.316  14.896  19.737  0.00  0.00    +0.000 OA
ENDROOT
BRANCH   1   6
ATOM      4  N   UNL     1       1.129   9.928  19.509  0.00  0.00    +0.000 N 
ATOM      5  C   UNL     1       1.137  11.328  19.480  0.00  0.00    +0.000 A 
ATOM      6  C   UNL     1       0.621  12.001  20.546  0.00  0.00    +0.000 A 
ATOM      7  C   UNL     1       0.159  11.190  21.710  0.00  0.00    +0.000 A 
ATOM      8  O   UNL     1      -0.653  11.586  22.540  0.00  0.00    +0.000 OA
ATOM      9  N   UNL     1       0.718   9.959  21.802  0.00  0.00    +0.000 N 
ATOM     10  C   UNL     1       0.852   9.216  20.674  0.00  0.00    +0.000 A 
ATOM     11  O   UNL     1       0.689   8.002  20.741  0.00  0.00    +0.000 OA
ATOM     12  H   UNL     1       0.374   9.418  22.581  0.00  0.00    +0.000 HD
BRANCH   5  13
ATOM     13  N   UNL     1       1.531  12.021  18.342  0.00  0.00    +0.000 N 
ATOM     14  H   UNL     1       0.878  12.752  18.080  0.00  0.00    +0.000 HD
ATOM     15  H   UNL     1       2.472  12.399  18.411  0.00  0.00    +0.000 HD
ENDBRANCH   5  13
BRANCH   4  16
ATOM     16  C   UNL     1       1.175   9.149  18.272  0.00  0.00    +0.000 C 
BRANCH  16  17
ATOM     17  C   UNL     1       2.551   8.668  17.832  0.00  0.00    +0.000 C 
BRANCH  17  19
ATOM     18  C   UNL     1       4.096   6.727  17.524  0.00  0.00    +0.000 C 
ATOM     19  C   UNL     1       2.770   7.183  18.104  0.00  0.00    +0.000 C 
ENDBRANCH  17  19
ENDBRANCH  16  17
ENDBRANCH   4  16
ENDBRANCH   1   6
BRANCH   2  20
ATOM     20  C   UNL     1      -1.810  12.676  19.027  0.00  0.00    +0.000 C 
ATOM     21  C   UNL     1      -2.971  12.311  19.584  0.00  0.00    +0.000 C 
ATOM     22  O   UNL     1      -3.902  11.475  19.041  0.00  0.00    +0.000 OA
ATOM     23  C   UNL     1      -3.472  10.767  17.885  0.00  0.00    +0.000 C 
ATOM     24  C   UNL     1      -2.310  11.366  17.098  0.00  0.00    +0.000 C 
ATOM     25  O   UNL     1      -1.410  12.220  17.794  0.00  0.00    +0.000 OA
ENDBRANCH   2  20
BRANCH   1  26
ATOM     26  C   UNL     1       1.049  14.398  21.013  0.00  0.00    +0.000 C 
BRANCH  26  27
ATOM     27  C   UNL     1       2.264  14.796  20.190  0.00  0.00    +0.000 A 
ATOM     28  C   UNL     1       2.086  15.521  18.996  0.00  0.00    +0.000 A 
ATOM     29  C   UNL     1       3.147  15.811  18.136  0.00  0.00    +0.000 A 
ATOM     30  C   UNL     1       4.432  15.414  18.470  0.00  0.00    +0.000 A 
ATOM     31  C   UNL     1       4.650  14.769  19.684  0.00  0.00    +0.000 A 
ATOM     32  C   UNL     1       3.587  14.483  20.559  0.00  0.00    +0.000 A 
BRANCH  32  33
ATOM     33  O   UNL     1       3.984  13.810  21.684  0.00  0.00    +0.000 OA
ATOM     34  C   UNL     1       4.776  14.528  22.622  0.00  0.00    +0.000 C 
ENDBRANCH  32  33
ENDBRANCH  26  27
ENDBRANCH   1  26
TORSDOF 9
ENDMDL
MODEL 9
REMARK VINA RESULT:      -6.7      8.485     12.731
REMARK  Name = 
REMARK  11 active torsions:
REMARK  status: ('A' for Active; 'I' for Inactive)
REMARK    1  A    between atoms: C_1  and  C_2
REMARK    2  A    between atoms: C_2  and  C_3
REMARK    3  A    between atoms: C_3  and  C_4
REMARK    4  A    between atoms: C_4  and  N_5
REMARK    5  A    between atoms: C_6  and  N_7
REMARK    6  A    between atoms: C_8  and  N_9
REMARK    7  A    between atoms: N_9  and  C_10
REMARK    8  A    between atoms: C_10  and  C_11
REMARK    9  A    between atoms: C_16  and  O_17
REMARK   10  A    between atoms: O_17  and  C_18
REMARK   11  A    between atoms: C_19  and  C_21
REMARK                            x       y       z     vdW  Elec       q    Type
REMARK                         _______ _______ _______ _____ _____    ______ ____
ROOT
ATOM      1  N   UNL     1      -5.011  14.150  22.780  0.00  0.00    +0.000 N 
ATOM      2  C   UNL     1      -5.127  15.439  23.325  0.00  0.00    +0.000 C 
ATOM      3  O   UNL     1      -6.238  15.931  23.551  0.00  0.00    +0.000 OA
ENDROOT
BRANCH   1   6
ATOM      4  N   UNL     1      -2.166  12.776  20.955  0.00  0.00    +0.000 N 
ATOM      5  C   UNL     1      -3.131  13.719  21.326  0.00  0.00    +0.000 A 
ATOM      6  C   UNL     1      -3.781  13.549  22.511  0.00  0.00    +0.000 A 
ATOM      7  C   UNL     1      -3.353  12.407  23.371  0.00  0.00    +0.000 A 
ATOM      8  O   UNL     1      -4.060  11.900  24.235  0.00  0.00    +0.000 OA
ATOM      9  N   UNL     1      -2.094  11.964  23.138  0.00  0.00    +0.000 N 
ATOM     10  C   UNL     1      -1.674  11.831  21.854  0.00  0.00    +0.000 A 
ATOM     11  O   UNL     1      -0.939  10.893  21.565  0.00  0.00    +0.000 OA
ATOM     12  H   UNL     1      -1.832  11.177  23.712  0.00  0.00    +0.000 HD
BRANCH   5  13
ATOM     13  N   UNL     1      -3.523  14.728  20.454  0.00  0.00    +0.000 N 
ATOM     14  H   UNL     1      -4.433  14.557  20.037  0.00  0.00    +0.000 HD
ATOM     15  H   UNL     1      -3.498  15.652  20.877  0.00  0.00    +0.000 HD
ENDBRANCH   5  13
BRANCH   4  16
ATOM     16  C   UNL     1      -1.801  12.583  19.553  0.00  0.00    +0.000 C 
BRANCH  16  17
ATOM     17  C   UNL     1      -2.803  11.821  18.696  0.00  0.00    +0.000 C 
BRANCH  17  19
ATOM     18  C   UNL     1      -2.210   9.868  17.253  0.00  0.00    +0.000 C 
ATOM     19  C   UNL     1      -2.218  11.382  17.357  0.00  0.00    +0.000 C 
ENDBRANCH  17  19
ENDBRANCH  16  17
ENDBRANCH   4  16
ENDBRANCH   1   6
BRANCH   2  20
ATOM     20  C   UNL     1      -3.882  16.214  23.762  0.00  0.00    +0.000 C 
ATOM     21  C   UNL     1      -3.536  16.110  25.051  0.00  0.00    +0.000 C 
ATOM     22  O   UNL     1      -2.428  16.645  25.637  0.00  0.00    +0.000 OA
ATOM     23  C   UNL     1      -1.714  17.578  24.836  0.00  0.00    +0.000 C 
ATOM     24  C   UNL     1      -1.913  17.488  23.325  0.00  0.00    +0.000 C 
ATOM     25  O   UNL     1      -3.123  16.910  22.851  0.00  0.00    +0.000 OA
ENDBRANCH   2  20
BRANCH   1  26
ATOM     26  C   UNL     1      -6.255  13.384  22.560  0.00  0.00    +0.000 C 
BRANCH  26  27
ATOM     27  C   UNL     1      -6.569  12.996  21.124  0.00  0.00    +0.000 A 
ATOM     28  C   UNL     1      -6.700  11.635  20.786  0.00  0.00    +0.000 A 
ATOM     29  C   UNL     1      -6.867  11.210  19.466  0.00  0.00    +0.000 A 
ATOM     30  C   UNL     1      -6.947  12.143  18.446  0.00  0.00    +0.000 A 
ATOM     31  C   UNL     1      -6.903  13.499  18.760  0.00  0.00    +0.000 A 
ATOM     32  C   UNL     1      -6.746  13.934  20.088  0.00  0.00    +0.000 A 
BRANCH  32  33
ATOM     33  O   UNL     1      -6.685  15.298  20.203  0.00  0.00    +0.000 OA
ATOM     34  C   UNL     1      -7.916  15.988  20.374  0.00  0.00    +0.000 C 
ENDBRANCH  32  33
ENDBRANCH  26  27
ENDBRANCH   1  26
TORSDOF 9
ENDMDL
