MODEL 1
REMARK VINA RESULT:      -8.9      0.000      0.000
REMARK  Name = 
REMARK  4 active torsions:
REMARK  status: ('A' for Active; 'I' for Inactive)
REMARK    1  A    between atoms: N_1  and  S_2
REMARK    2  A    between atoms: S_2  and  C_5
REMARK    3  A    between atoms: C_8  and  N_9
REMARK    4  A    between atoms: C_11  and  C_12
REMARK                            x       y       z     vdW  Elec       q    Type
REMARK                         _______ _______ _______ _____ _____    ______ ____
ROOT
ATOM      1  N   UNL     1       2.793   5.768  19.100  0.00  0.00    +0.000 N 
ATOM      2  N   UNL     1       3.518   5.663  17.923  0.00  0.00    +0.000 NA
ATOM      3  C   UNL     1       4.178   4.570  17.686  0.00  0.00    +0.000 A 
ATOM      4  C   UNL     1       4.061   3.335  18.474  0.00  0.00    +0.000 A 
ATOM      5  C   UNL     1       3.425   3.467  19.636  0.00  0.00    +0.000 A 
ATOM      6  C   UNL     1       2.803   4.747  20.059  0.00  0.00    +0.000 A 
ATOM      7  O   UNL     1       2.337   4.773  21.197  0.00  0.00    +0.000 OA
ENDROOT
BRANCH   3   8
ATOM      8  C   UNL     1       5.344   4.644  16.765  0.00  0.00    +0.000 A 
ATOM      9  C   UNL     1       6.431   5.509  16.821  0.00  0.00    +0.000 A 
ATOM     10  C   UNL     1       7.269   5.619  15.690  0.00  0.00    +0.000 A 
ATOM     11  C   UNL     1       6.984   4.927  14.488  0.00  0.00    +0.000 A 
ATOM     12  C   UNL     1       5.886   4.089  14.455  0.00  0.00    +0.000 A 
ATOM     13  C   UNL     1       5.116   3.913  15.602  0.00  0.00    +0.000 A 
ATOM     14  C   UNL     1       5.370   3.406  13.236  0.00  0.00    +0.000 C 
ATOM     15  C   UNL     1       6.107   3.636  11.940  0.00  0.00    +0.000 C 
ATOM     16  C   UNL     1       7.409   4.425  11.975  0.00  0.00    +0.000 C 
ATOM     17  C   UNL     1       7.854   5.109  13.276  0.00  0.00    +0.000 C 
ENDBRANCH   3   8
BRANCH   1  21
ATOM     18  C   UNL     1       1.047   9.643  19.654  0.00  0.00    +0.000 A 
ATOM     19  C   UNL     1       1.111   8.759  20.726  0.00  0.00    +0.000 A 
ATOM     20  C   UNL     1       1.702   7.496  20.555  0.00  0.00    +0.000 A 
ATOM     21  C   UNL     1       2.230   7.083  19.318  0.00  0.00    +0.000 A 
ATOM     22  C   UNL     1       2.185   8.021  18.265  0.00  0.00    +0.000 A 
ATOM     23  C   UNL     1       1.593   9.284  18.422  0.00  0.00    +0.000 A 
BRANCH  18  24
ATOM     24  S   UNL     1       0.275  11.217  19.854  0.00  0.00    +0.000 S 
ATOM     25  O   UNL     1      -1.156  11.037  19.900  0.00  0.00    +0.000 OA
ATOM     26  O   UNL     1       0.908  12.176  18.980  0.00  0.00    +0.000 OA
BRANCH  24  27
ATOM     27  N   UNL     1       0.747  11.664  21.404  0.00  0.00    +0.000 NA
ATOM     28  H   UNL     1       1.494  12.359  21.339  0.00  0.00    +0.000 HD
ATOM     29  H   UNL     1       1.009  10.837  21.941  0.00  0.00    +0.000 HD
ENDBRANCH  24  27
ENDBRANCH  18  24
ENDBRANCH   1  21
TORSDOF 4
ENDMDL
MODEL 2
REMARK VINA RESULT:      -8.8      0.698      1.282
REMARK  Name = 
REMARK  4 active torsions:
REMARK  status: ('A' for Active; 'I' for Inactive)
REMARK    1  A    between atoms: N_1  and  S_2
REMARK    2  A    between atoms: S_2  and  C_5
REMARK    3  A    between atoms: C_8  and  N_9
REMARK    4  A    between atoms: C_11  and  C_12
REMARK                            x       y       z     vdW  Elec       q    Type
REMARK                         _______ _______ _______ _____ _____    ______ ____
ROOT
ATOM      1  N   UNL     1       2.799   5.767  19.086  0.00  0.00    +0.000 N 
ATOM      2  N   UNL     1       3.523   5.629  17.912  0.00  0.00    +0.000 NA
ATOM      3  C   UNL     1       4.202   4.538  17.717  0.00  0.00    +0.000 A 
ATOM      4  C   UNL     1       4.107   3.333  18.552  0.00  0.00    +0.000 A 
ATOM      5  C   UNL     1       3.471   3.499  19.710  0.00  0.00    +0.000 A 
ATOM      6  C   UNL     1       2.828   4.785  20.085  0.00  0.00    +0.000 A 
ATOM      7  O   UNL     1       2.365   4.847  21.222  0.00  0.00    +0.000 OA
ENDROOT
BRANCH   3   8
ATOM      8  C   UNL     1       5.364   4.596  16.790  0.00  0.00    +0.000 A 
ATOM      9  C   UNL     1       6.481   5.420  16.862  0.00  0.00    +0.000 A 
ATOM     10  C   UNL     1       7.316   5.531  15.728  0.00  0.00    +0.000 A 
ATOM     11  C   UNL     1       6.999   4.882  14.510  0.00  0.00    +0.000 A 
ATOM     12  C   UNL     1       5.873   4.084  14.462  0.00  0.00    +0.000 A 
ATOM     13  C   UNL     1       5.103   3.905  15.609  0.00  0.00    +0.000 A 
ATOM     14  C   UNL     1       5.326   3.452  13.230  0.00  0.00    +0.000 C 
ATOM     15  C   UNL     1       6.063   3.691  11.935  0.00  0.00    +0.000 C 
ATOM     16  C   UNL     1       7.391   4.432  11.982  0.00  0.00    +0.000 C 
ATOM     17  C   UNL     1       7.868   5.066  13.297  0.00  0.00    +0.000 C 
ENDBRANCH   3   8
BRANCH   1  21
ATOM     18  C   UNL     1       1.151   9.680  19.671  0.00  0.00    +0.000 A 
ATOM     19  C   UNL     1       1.588   9.301  18.405  0.00  0.00    +0.000 A 
ATOM     20  C   UNL     1       2.108   8.012  18.204  0.00  0.00    +0.000 A 
ATOM     21  C   UNL     1       2.215   7.080  19.254  0.00  0.00    +0.000 A 
ATOM     22  C   UNL     1       1.725   7.486  20.513  0.00  0.00    +0.000 A 
ATOM     23  C   UNL     1       1.207   8.772  20.728  0.00  0.00    +0.000 A 
BRANCH  18  24
ATOM     24  S   UNL     1       0.529  11.310  19.936  0.00  0.00    +0.000 S 
ATOM     25  O   UNL     1       1.237  11.910  21.041  0.00  0.00    +0.000 OA
ATOM     26  O   UNL     1      -0.913  11.291  19.858  0.00  0.00    +0.000 OA
BRANCH  24  27
ATOM     27  N   UNL     1       1.028  12.124  18.553  0.00  0.00    +0.000 NA
ATOM     28  H   UNL     1       0.550  13.026  18.505  0.00  0.00    +0.000 HD
ATOM     29  H   UNL     1       0.876  11.540  17.731  0.00  0.00    +0.000 HD
ENDBRANCH  24  27
ENDBRANCH  18  24
ENDBRANCH   1  21
TORSDOF 4
ENDMDL
MODEL 3
REMARK VINA RESULT:      -8.4      4.177      6.750
REMARK  Name = 
REMARK  4 active torsions:
REMARK  status: ('A' for Active; 'I' for Inactive)
REMARK    1  A    between atoms: N_1  and  S_2
REMARK    2  A    between atoms: S_2  and  C_5
REMARK    3  A    between atoms: C_8  and  N_9
REMARK    4  A    between atoms: C_11  and  C_12
REMARK                            x       y       z     vdW  Elec       q    Type
REMARK                         _______ _______ _______ _____ _____    ______ ____
ROOT
ATOM      1  N   UNL     1       0.547  11.651  20.347  0.00  0.00    +0.000 N 
ATOM      2  N   UNL     1       0.985  10.586  19.575  0.00  0.00    +0.000 NA
ATOM      3  C   UNL     1       0.846   9.378  20.033  0.00  0.00    +0.000 A 
ATOM      4  C   UNL     1       0.068   9.022  21.227  0.00  0.00    +0.000 A 
ATOM      5  C   UNL     1      -0.285  10.049  21.997  0.00  0.00    +0.000 A 
ATOM      6  C   UNL     1       0.010  11.457  21.626  0.00  0.00    +0.000 A 
ATOM      7  O   UNL     1      -0.271  12.308  22.467  0.00  0.00    +0.000 OA
ENDROOT
BRANCH   3   8
ATOM      8  C   UNL     1       1.761   8.326  19.515  0.00  0.00    +0.000 A 
ATOM      9  C   UNL     1       2.348   8.238  18.259  0.00  0.00    +0.000 A 
ATOM     10  C   UNL     1       2.935   7.014  17.868  0.00  0.00    +0.000 A 
ATOM     11  C   UNL     1       2.873   5.867  18.696  0.00  0.00    +0.000 A 
ATOM     12  C   UNL     1       2.266   5.978  19.932  0.00  0.00    +0.000 A 
ATOM     13  C   UNL     1       1.770   7.210  20.350  0.00  0.00    +0.000 A 
ATOM     14  C   UNL     1       1.993   4.841  20.854  0.00  0.00    +0.000 C 
ATOM     15  C   UNL     1       2.421   3.463  20.412  0.00  0.00    +0.000 C 
ATOM     16  C   UNL     1       3.231   3.331  19.130  0.00  0.00    +0.000 C 
ATOM     17  C   UNL     1       3.449   4.558  18.232  0.00  0.00    +0.000 C 
ENDBRANCH   3   8
BRANCH   1  21
ATOM     18  C   UNL     1       1.507  15.533  18.807  0.00  0.00    +0.000 A 
ATOM     19  C   UNL     1       2.527  14.705  19.263  0.00  0.00    +0.000 A 
ATOM     20  C   UNL     1       2.219  13.423  19.748  0.00  0.00    +0.000 A 
ATOM     21  C   UNL     1       0.896  12.944  19.799  0.00  0.00    +0.000 A 
ATOM     22  C   UNL     1      -0.106  13.796  19.291  0.00  0.00    +0.000 A 
ATOM     23  C   UNL     1       0.188  15.081  18.808  0.00  0.00    +0.000 A 
BRANCH  18  24
ATOM     24  S   UNL     1       1.884  17.158  18.228  0.00  0.00    +0.000 S 
ATOM     25  O   UNL     1       0.663  17.803  17.809  0.00  0.00    +0.000 OA
ATOM     26  O   UNL     1       3.061  17.109  17.394  0.00  0.00    +0.000 OA
BRANCH  24  27
ATOM     27  N   UNL     1       2.379  17.942  19.631  0.00  0.00    +0.000 NA
ATOM     28  H   UNL     1       1.559  18.322  20.109  0.00  0.00    +0.000 HD
ATOM     29  H   UNL     1       3.080  18.648  19.407  0.00  0.00    +0.000 HD
ENDBRANCH  24  27
ENDBRANCH  18  24
ENDBRANCH   1  21
TORSDOF 4
ENDMDL
MODEL 4
REMARK VINA RESULT:      -8.4      4.203      6.742
REMARK  Name = 
REMARK  4 active torsions:
REMARK  status: ('A' for Active; 'I' for Inactive)
REMARK    1  A    between atoms: N_1  and  S_2
REMARK    2  A    between atoms: S_2  and  C_5
REMARK    3  A    between atoms: C_8  and  N_9
REMARK    4  A    between atoms: C_11  and  C_12
REMARK                            x       y       z     vdW  Elec       q    Type
REMARK                         _______ _______ _______ _____ _____    ______ ____
ROOT
ATOM      1  N   UNL     1       0.464  11.485  20.680  0.00  0.00    +0.000 N 
ATOM      2  N   UNL     1       0.911  10.453  19.870  0.00  0.00    +0.000 NA
ATOM      3  C   UNL     1       0.775   9.227  20.279  0.00  0.00    +0.000 A 
ATOM      4  C   UNL     1      -0.006   8.820  21.455  0.00  0.00    +0.000 A 
ATOM      5  C   UNL     1      -0.367   9.815  22.263  0.00  0.00    +0.000 A 
ATOM      6  C   UNL     1      -0.078  11.237  21.948  0.00  0.00    +0.000 A 
ATOM      7  O   UNL     1      -0.366  12.054  22.821  0.00  0.00    +0.000 OA
ENDROOT
BRANCH   3   8
ATOM      8  C   UNL     1       1.698   8.200  19.725  0.00  0.00    +0.000 A 
ATOM      9  C   UNL     1       2.295   8.167  18.471  0.00  0.00    +0.000 A 
ATOM     10  C   UNL     1       2.890   6.963  18.034  0.00  0.00    +0.000 A 
ATOM     11  C   UNL     1       2.825   5.782  18.812  0.00  0.00    +0.000 A 
ATOM     12  C   UNL     1       2.208   5.838  20.046  0.00  0.00    +0.000 A 
ATOM     13  C   UNL     1       1.705   7.051  20.512  0.00  0.00    +0.000 A 
ATOM     14  C   UNL     1       1.932   4.663  20.918  0.00  0.00    +0.000 C 
ATOM     15  C   UNL     1       2.368   3.306  20.422  0.00  0.00    +0.000 C 
ATOM     16  C   UNL     1       3.188   3.230  19.142  0.00  0.00    +0.000 C 
ATOM     17  C   UNL     1       3.409   4.495  18.298  0.00  0.00    +0.000 C 
ENDBRANCH   3   8
BRANCH   1  21
ATOM     18  C   UNL     1       1.578  15.330  19.151  0.00  0.00    +0.000 A 
ATOM     19  C   UNL     1       0.283  14.862  18.955  0.00  0.00    +0.000 A 
ATOM     20  C   UNL     1      -0.093  13.612  19.473  0.00  0.00    +0.000 A 
ATOM     21  C   UNL     1       0.809  12.800  20.185  0.00  0.00    +0.000 A 
ATOM     22  C   UNL     1       2.101  13.324  20.400  0.00  0.00    +0.000 A 
ATOM     23  C   UNL     1       2.490  14.570  19.883  0.00  0.00    +0.000 A 
BRANCH  18  24
ATOM     24  S   UNL     1       2.067  16.884  18.472  0.00  0.00    +0.000 S 
ATOM     25  O   UNL     1       2.821  17.614  19.463  0.00  0.00    +0.000 OA
ATOM     26  O   UNL     1       0.954  17.467  17.760  0.00  0.00    +0.000 OA
BRANCH  24  27
ATOM     27  N   UNL     1       3.160  16.436  17.277  0.00  0.00    +0.000 NA
ATOM     28  H   UNL     1       4.084  16.806  17.513  0.00  0.00    +0.000 HD
ATOM     29  H   UNL     1       2.823  16.741  16.364  0.00  0.00    +0.000 HD
ENDBRANCH  24  27
ENDBRANCH  18  24
ENDBRANCH   1  21
TORSDOF 4
ENDMDL
MODEL 5
REMARK VINA RESULT:      -8.3      4.022      8.391
REMARK  Name = 
REMARK  4 active torsions:
REMARK  status: ('A' for Active; 'I' for Inactive)
REMARK    1  A    between atoms: N_1  and  S_2
REMARK    2  A    between atoms: S_2  and  C_5
REMARK    3  A    between atoms: C_8  and  N_9
REMARK    4  A    between atoms: C_11  and  C_12
REMARK                            x       y       z     vdW  Elec       q    Type
REMARK                         _______ _______ _______ _____ _____    ______ ____
ROOT
ATOM      1  N   UNL     1       2.396   7.210  19.323  0.00  0.00    +0.000 N 
ATOM      2  N   UNL     1       1.855   8.432  18.955  0.00  0.00    +0.000 NA
ATOM      3  C   UNL     1       1.008   9.010  19.753  0.00  0.00    +0.000 A 
ATOM      4  C   UNL     1       0.722   8.575  21.127  0.00  0.00    +0.000 A 
ATOM      5  C   UNL     1       1.187   7.368  21.443  0.00  0.00    +0.000 A 
ATOM      6  C   UNL     1       2.010   6.563  20.504  0.00  0.00    +0.000 A 
ATOM      7  O   UNL     1       2.290   5.424  20.871  0.00  0.00    +0.000 OA
ENDROOT
BRANCH   3   8
ATOM      8  C   UNL     1       0.044   9.978  19.164  0.00  0.00    +0.000 A 
ATOM      9  C   UNL     1      -0.596  11.043  19.788  0.00  0.00    +0.000 A 
ATOM     10  C   UNL     1      -1.695  11.648  19.140  0.00  0.00    +0.000 A 
ATOM     11  C   UNL     1      -2.195  11.150  17.913  0.00  0.00    +0.000 A 
ATOM     12  C   UNL     1      -1.552  10.079  17.325  0.00  0.00    +0.000 A 
ATOM     13  C   UNL     1      -0.413   9.544  17.923  0.00  0.00    +0.000 A 
ATOM     14  C   UNL     1      -2.034   9.351  16.118  0.00  0.00    +0.000 C 
ATOM     15  C   UNL     1      -3.317   9.824  15.482  0.00  0.00    +0.000 C 
ATOM     16  C   UNL     1      -3.964  11.096  16.011  0.00  0.00    +0.000 C 
ATOM     17  C   UNL     1      -3.406  11.771  17.273  0.00  0.00    +0.000 C 
ENDBRANCH   3   8
BRANCH   1  21
ATOM     18  C   UNL     1       4.880   5.446  16.309  0.00  0.00    +0.000 A 
ATOM     19  C   UNL     1       4.027   4.638  17.054  0.00  0.00    +0.000 A 
ATOM     20  C   UNL     1       3.195   5.215  18.028  0.00  0.00    +0.000 A 
ATOM     21  C   UNL     1       3.201   6.598  18.288  0.00  0.00    +0.000 A 
ATOM     22  C   UNL     1       4.049   7.390  17.485  0.00  0.00    +0.000 A 
ATOM     23  C   UNL     1       4.889   6.825  16.513  0.00  0.00    +0.000 A 
BRANCH  18  24
ATOM     24  S   UNL     1       5.953   4.722  15.108  0.00  0.00    +0.000 S 
ATOM     25  O   UNL     1       7.214   5.423  15.122  0.00  0.00    +0.000 OA
ATOM     26  O   UNL     1       5.215   4.477  13.892  0.00  0.00    +0.000 OA
BRANCH  24  27
ATOM     27  N   UNL     1       6.249   3.198  15.751  0.00  0.00    +0.000 NA
ATOM     28  H   UNL     1       6.893   3.286  16.540  0.00  0.00    +0.000 HD
ATOM     29  H   UNL     1       6.587   2.571  15.021  0.00  0.00    +0.000 HD
ENDBRANCH  24  27
ENDBRANCH  18  24
ENDBRANCH   1  21
TORSDOF 4
ENDMDL
MODEL 6
REMARK VINA RESULT:      -8.2      4.943     10.585
REMARK  Name = 
REMARK  4 active torsions:
REMARK  status: ('A' for Active; 'I' for Inactive)
REMARK    1  A    between atoms: N_1  and  S_2
REMARK    2  A    between atoms: S_2  and  C_5
REMARK    3  A    between atoms: C_8  and  N_9
REMARK    4  A    between atoms: C_11  and  C_12
REMARK                            x       y       z     vdW  Elec       q    Type
REMARK                         _______ _______ _______ _____ _____    ______ ____
ROOT
ATOM      1  N   UNL     1       0.528  10.779  19.294  0.00  0.00    +0.000 N 
ATOM      2  N   UNL     1      -0.637  10.766  18.544  0.00  0.00    +0.000 NA
ATOM      3  C   UNL     1      -1.389  11.826  18.531  0.00  0.00    +0.000 A 
ATOM      4  C   UNL     1      -1.005  13.130  19.088  0.00  0.00    +0.000 A 
ATOM      5  C   UNL     1       0.076  13.114  19.865  0.00  0.00    +0.000 A 
ATOM      6  C   UNL     1       0.882  11.885  20.078  0.00  0.00    +0.000 A 
ATOM      7  O   UNL     1       1.794  11.971  20.899  0.00  0.00    +0.000 OA
ENDROOT
BRANCH   3   8
ATOM      8  C   UNL     1      -2.833  11.654  18.216  0.00  0.00    +0.000 A 
ATOM      9  C   UNL     1      -3.416  11.354  16.991  0.00  0.00    +0.000 A 
ATOM     10  C   UNL     1      -4.809  11.533  16.841  0.00  0.00    +0.000 A 
ATOM     11  C   UNL     1      -5.601  12.074  17.883  0.00  0.00    +0.000 A 
ATOM     12  C   UNL     1      -4.992  12.380  19.083  0.00  0.00    +0.000 A 
ATOM     13  C   UNL     1      -3.635  12.116  19.256  0.00  0.00    +0.000 A 
ATOM     14  C   UNL     1      -5.649  13.083  20.220  0.00  0.00    +0.000 C 
ATOM     15  C   UNL     1      -7.094  13.483  20.054  0.00  0.00    +0.000 C 
ATOM     16  C   UNL     1      -7.836  13.020  18.808  0.00  0.00    +0.000 C 
ATOM     17  C   UNL     1      -7.071  12.315  17.679  0.00  0.00    +0.000 C 
ENDBRANCH   3   8
BRANCH   1  21
ATOM     18  C   UNL     1       2.392   6.925  19.489  0.00  0.00    +0.000 A 
ATOM     19  C   UNL     1       2.512   7.688  18.331  0.00  0.00    +0.000 A 
ATOM     20  C   UNL     1       1.922   8.961  18.271  0.00  0.00    +0.000 A 
ATOM     21  C   UNL     1       1.194   9.496  19.351  0.00  0.00    +0.000 A 
ATOM     22  C   UNL     1       1.128   8.711  20.521  0.00  0.00    +0.000 A 
ATOM     23  C   UNL     1       1.710   7.436  20.592  0.00  0.00    +0.000 A 
BRANCH  18  24
ATOM     24  S   UNL     1       3.103   5.311  19.558  0.00  0.00    +0.000 S 
ATOM     25  O   UNL     1       4.541   5.431  19.589  0.00  0.00    +0.000 OA
ATOM     26  O   UNL     1       2.417   4.445  18.627  0.00  0.00    +0.000 OA
BRANCH  24  27
ATOM     27  N   UNL     1       2.637   4.769  21.079  0.00  0.00    +0.000 NA
ATOM     28  H   UNL     1       1.748   4.271  20.999  0.00  0.00    +0.000 HD
ATOM     29  H   UNL     1       2.608   5.550  21.733  0.00  0.00    +0.000 HD
ENDBRANCH  24  27
ENDBRANCH  18  24
ENDBRANCH   1  21
TORSDOF 4
ENDMDL
MODEL 7
REMARK VINA RESULT:      -8.1      3.697      5.872
REMARK  Name = 
REMARK  4 active torsions:
REMARK  status: ('A' for Active; 'I' for Inactive)
REMARK    1  A    between atoms: N_1  and  S_2
REMARK    2  A    between atoms: S_2  and  C_5
REMARK    3  A    between atoms: C_8  and  N_9
REMARK    4  A    between atoms: C_11  and  C_12
REMARK                            x       y       z     vdW  Elec       q    Type
REMARK                         _______ _______ _______ _____ _____    ______ ____
ROOT
ATOM      1  N   UNL     1       0.760  10.040  19.928  0.00  0.00    +0.000 N 
ATOM      2  N   UNL     1       1.123   8.767  20.339  0.00  0.00    +0.000 NA
ATOM      3  C   UNL     1       1.839   8.030  19.544  0.00  0.00    +0.000 A 
ATOM      4  C   UNL     1       2.481   8.508  18.313  0.00  0.00    +0.000 A 
ATOM      5  C   UNL     1       2.070   9.702  17.890  0.00  0.00    +0.000 A 
ATOM      6  C   UNL     1       1.101  10.525  18.659  0.00  0.00    +0.000 A 
ATOM      7  O   UNL     1       0.719  11.559  18.115  0.00  0.00    +0.000 OA
ENDROOT
BRANCH   3   8
ATOM      8  C   UNL     1       1.767   6.553  19.708  0.00  0.00    +0.000 A 
ATOM      9  C   UNL     1       1.539   5.826  20.870  0.00  0.00    +0.000 A 
ATOM     10  C   UNL     1       1.810   4.440  20.868  0.00  0.00    +0.000 A 
ATOM     11  C   UNL     1       2.370   3.798  19.737  0.00  0.00    +0.000 A 
ATOM     12  C   UNL     1       2.604   4.549  18.602  0.00  0.00    +0.000 A 
ATOM     13  C   UNL     1       2.250   5.896  18.579  0.00  0.00    +0.000 A 
ATOM     14  C   UNL     1       3.315   4.061  17.387  0.00  0.00    +0.000 C 
ATOM     15  C   UNL     1       3.809   2.636  17.391  0.00  0.00    +0.000 C 
ATOM     16  C   UNL     1       3.429   1.739  18.560  0.00  0.00    +0.000 C 
ATOM     17  C   UNL     1       2.708   2.334  19.779  0.00  0.00    +0.000 C 
ENDBRANCH   3   8
BRANCH   1  21
ATOM     18  C   UNL     1      -2.060  11.957  22.524  0.00  0.00    +0.000 A 
ATOM     19  C   UNL     1      -1.213  10.977  23.034  0.00  0.00    +0.000 A 
ATOM     20  C   UNL     1      -0.272  10.362  22.192  0.00  0.00    +0.000 A 
ATOM     21  C   UNL     1      -0.161  10.699  20.829  0.00  0.00    +0.000 A 
ATOM     22  C   UNL     1      -1.008  11.723  20.358  0.00  0.00    +0.000 A 
ATOM     23  C   UNL     1      -1.955  12.342  21.189  0.00  0.00    +0.000 A 
BRANCH  18  24
ATOM     24  S   UNL     1      -3.267  12.708  23.570  0.00  0.00    +0.000 S 
ATOM     25  O   UNL     1      -2.698  13.889  24.173  0.00  0.00    +0.000 OA
ATOM     26  O   UNL     1      -3.934  11.687  24.343  0.00  0.00    +0.000 OA
BRANCH  24  27
ATOM     27  N   UNL     1      -4.422  13.244  22.472  0.00  0.00    +0.000 NA
ATOM     28  H   UNL     1      -4.956  12.442  22.131  0.00  0.00    +0.000 HD
ATOM     29  H   UNL     1      -3.974  13.780  21.729  0.00  0.00    +0.000 HD
ENDBRANCH  24  27
ENDBRANCH  18  24
ENDBRANCH   1  21
TORSDOF 4
ENDMDL
MODEL 8
REMARK VINA RESULT:      -8.1      4.917     10.532
REMARK  Name = 
REMARK  4 active torsions:
REMARK  status: ('A' for Active; 'I' for Inactive)
REMARK    1  A    between atoms: N_1  and  S_2
REMARK    2  A    between atoms: S_2  and  C_5
REMARK    3  A    between atoms: C_8  and  N_9
REMARK    4  A    between atoms: C_11  and  C_12
REMARK                            x       y       z     vdW  Elec       q    Type
REMARK                         _______ _______ _______ _____ _____    ______ ____
ROOT
ATOM      1  N   UNL     1       0.480  10.646  19.426  0.00  0.00    +0.000 N 
ATOM      2  N   UNL     1      -0.660  10.683  18.638  0.00  0.00    +0.000 NA
ATOM      3  C   UNL     1      -1.393  11.755  18.641  0.00  0.00    +0.000 A 
ATOM      4  C   UNL     1      -1.006  13.030  19.260  0.00  0.00    +0.000 A 
ATOM      5  C   UNL     1       0.048  12.966  20.072  0.00  0.00    +0.000 A 
ATOM      6  C   UNL     1       0.826  11.715  20.263  0.00  0.00    +0.000 A 
ATOM      7  O   UNL     1       1.711  11.753  21.116  0.00  0.00    +0.000 OA
ENDROOT
BRANCH   3   8
ATOM      8  C   UNL     1      -2.828  11.622  18.272  0.00  0.00    +0.000 A 
ATOM      9  C   UNL     1      -3.372  11.319  17.030  0.00  0.00    +0.000 A 
ATOM     10  C   UNL     1      -4.752  11.538  16.823  0.00  0.00    +0.000 A 
ATOM     11  C   UNL     1      -5.567  12.120  17.824  0.00  0.00    +0.000 A 
ATOM     12  C   UNL     1      -4.995  12.428  19.042  0.00  0.00    +0.000 A 
ATOM     13  C   UNL     1      -3.655  12.126  19.273  0.00  0.00    +0.000 A 
ATOM     14  C   UNL     1      -5.674  13.170  20.141  0.00  0.00    +0.000 C 
ATOM     15  C   UNL     1      -7.099  13.610  19.912  0.00  0.00    +0.000 C 
ATOM     16  C   UNL     1      -7.806  13.149  18.645  0.00  0.00    +0.000 C 
ATOM     17  C   UNL     1      -7.020  12.402  17.558  0.00  0.00    +0.000 C 
ENDBRANCH   3   8
BRANCH   1  21
ATOM     18  C   UNL     1       2.487   6.860  19.485  0.00  0.00    +0.000 A 
ATOM     19  C   UNL     1       1.779   7.279  20.607  0.00  0.00    +0.000 A 
ATOM     20  C   UNL     1       1.102   8.510  20.585  0.00  0.00    +0.000 A 
ATOM     21  C   UNL     1       1.122   9.350  19.456  0.00  0.00    +0.000 A 
ATOM     22  C   UNL     1       1.815   8.873  18.323  0.00  0.00    +0.000 A 
ATOM     23  C   UNL     1       2.500   7.648  18.335  0.00  0.00    +0.000 A 
BRANCH  18  24
ATOM     24  S   UNL     1       3.369   5.331  19.520  0.00  0.00    +0.000 S 
ATOM     25  O   UNL     1       2.814   4.492  20.555  0.00  0.00    +0.000 OA
ATOM     26  O   UNL     1       4.784   5.592  19.408  0.00  0.00    +0.000 OA
BRANCH  24  27
ATOM     27  N   UNL     1       2.940   4.626  18.056  0.00  0.00    +0.000 NA
ATOM     28  H   UNL     1       2.877   3.613  18.178  0.00  0.00    +0.000 HD
ATOM     29  H   UNL     1       3.598   4.906  17.328  0.00  0.00    +0.000 HD
ENDBRANCH  24  27
ENDBRANCH  18  24
ENDBRANCH   1  21
TORSDOF 4
ENDMDL
MODEL 9
REMARK VINA RESULT:      -8.1      4.860     10.656
REMARK  Name = 
REMARK  4 active torsions:
REMARK  status: ('A' for Active; 'I' for Inactive)
REMARK    1  A    between atoms: N_1  and  S_2
REMARK    2  A    between atoms: S_2  and  C_5
REMARK    3  A    between atoms: C_8  and  N_9
REMARK    4  A    between atoms: C_11  and  C_12
REMARK                            x       y       z     vdW  Elec       q    Type
REMARK                         _______ _______ _______ _____ _____    ______ ____
ROOT
ATOM      1  N   UNL     1       0.598  10.715  18.641  0.00  0.00    +0.000 N 
ATOM      2  N   UNL     1      -0.719  10.576  18.231  0.00  0.00    +0.000 NA
ATOM      3  C   UNL     1      -1.457  11.639  18.115  0.00  0.00    +0.000 A 
ATOM      4  C   UNL     1      -0.954  13.017  18.186  0.00  0.00    +0.000 A 
ATOM      5  C   UNL     1       0.288  13.141  18.650  0.00  0.00    +0.000 A 
ATOM      6  C   UNL     1       1.130  11.964  18.984  0.00  0.00    +0.000 A 
ATOM      7  O   UNL     1       2.218  12.207  19.502  0.00  0.00    +0.000 OA
ENDROOT
BRANCH   3   8
ATOM      8  C   UNL     1      -2.932  11.479  18.221  0.00  0.00    +0.000 A 
ATOM      9  C   UNL     1      -3.822  11.037  17.249  0.00  0.00    +0.000 A 
ATOM     10  C   UNL     1      -5.205  11.246  17.450  0.00  0.00    +0.000 A 
ATOM     11  C   UNL     1      -5.689  11.952  18.577  0.00  0.00    +0.000 A 
ATOM     12  C   UNL     1      -4.781  12.397  19.518  0.00  0.00    +0.000 A 
ATOM     13  C   UNL     1      -3.427  12.109  19.361  0.00  0.00    +0.000 A 
ATOM     14  C   UNL     1      -5.111  13.272  20.676  0.00  0.00    +0.000 C 
ATOM     15  C   UNL     1      -6.548  13.699  20.844  0.00  0.00    +0.000 C 
ATOM     16  C   UNL     1      -7.596  13.099  19.918  0.00  0.00    +0.000 C 
ATOM     17  C   UNL     1      -7.161  12.218  18.738  0.00  0.00    +0.000 C 
ENDBRANCH   3   8
BRANCH   1  21
ATOM     18  C   UNL     1       2.468   6.930  19.379  0.00  0.00    +0.000 A 
ATOM     19  C   UNL     1       2.585   7.520  18.125  0.00  0.00    +0.000 A 
ATOM     20  C   UNL     1       1.992   8.771  17.885  0.00  0.00    +0.000 A 
ATOM     21  C   UNL     1       1.266   9.453  18.879  0.00  0.00    +0.000 A 
ATOM     22  C   UNL     1       1.203   8.843  20.149  0.00  0.00    +0.000 A 
ATOM     23  C   UNL     1       1.786   7.592  20.400  0.00  0.00    +0.000 A 
BRANCH  18  24
ATOM     24  S   UNL     1       3.181   5.342  19.676  0.00  0.00    +0.000 S 
ATOM     25  O   UNL     1       2.537   4.744  20.820  0.00  0.00    +0.000 OA
ATOM     26  O   UNL     1       4.616   5.431  19.552  0.00  0.00    +0.000 OA
BRANCH  24  27
ATOM     27  N   UNL     1       2.684   4.459  18.335  0.00  0.00    +0.000 NA
ATOM     28  H   UNL     1       2.933   4.972  17.486  0.00  0.00    +0.000 HD
ATOM     29  H   UNL     1       1.688   4.250  18.405  0.00  0.00    +0.000 HD
ENDBRANCH  24  27
ENDBRANCH  18  24
ENDBRANCH   1  21
TORSDOF 4
ENDMDL
