MODEL 1
REMARK VINA RESULT:      -7.0      0.000      0.000
REMARK  Name = 
REMARK  7 active torsions:
REMARK  status: ('A' for Active; 'I' for Inactive)
REMARK    1  A    between atoms: C_1  and  C_2
REMARK    2  A    between atoms: C_4  and  O_5
REMARK    3  A    between atoms: C_13  and  N_14
REMARK    4  A    between atoms: N_14  and  C_15
REMARK    5  A    between atoms: N_14  and  C_16
REMARK    6  A    between atoms: C_19  and  C_20
REMARK    7  A    between atoms: C_24  and  C_25
REMARK                            x       y       z     vdW  Elec       q    Type
REMARK                         _______ _______ _______ _____ _____    ______ ____
ROOT
ATOM      1  C   UNL     1       5.187   4.474  14.887  0.00  0.00    +0.000 C 
ATOM      2  C   UNL     1       5.055   4.071  16.383  0.00  0.00    +0.000 C 
ATOM      3  C   UNL     1       4.889   5.000  17.397  0.00  0.00    +0.000 C 
ATOM      4  C   UNL     1       5.355   6.374  16.899  0.00  0.00    +0.000 C 
ATOM      5  C   UNL     1       3.997   7.001  16.700  0.00  0.00    +0.000 C 
ATOM      6  C   UNL     1       3.424   6.786  18.088  0.00  0.00    +0.000 C 
ATOM      7  C   UNL     1       2.238   7.528  18.493  0.00  0.00    +0.000 C 
ATOM      8  C   UNL     1       2.455   8.876  17.865  0.00  0.00    +0.000 C 
ATOM      9  C   UNL     1       1.270   9.691  18.134  0.00  0.00    +0.000 C 
ATOM     10  C   UNL     1       1.246   9.994  19.616  0.00  0.00    +0.000 C 
ATOM     11  C   UNL     1       0.470  11.261  19.625  0.00  0.00    +0.000 C 
ATOM     12  C   UNL     1       0.495  12.043  20.903  0.00  0.00    +0.000 C 
ATOM     13  C   UNL     1       0.140  10.969  22.000  0.00  0.00    +0.000 C 
ATOM     14  C   UNL     1       0.817   9.492  21.942  0.00  0.00    +0.000 C 
ATOM     15  C   UNL     1       0.877   8.760  20.505  0.00  0.00    +0.000 C 
ATOM     16  C   UNL     1      -0.510   8.138  20.236  0.00  0.00    +0.000 C 
ATOM     17  C   UNL     1       2.076   7.604  20.082  0.00  0.00    +0.000 C 
ATOM     18  C   UNL     1       2.152   6.089  20.550  0.00  0.00    +0.000 C 
ATOM     19  C   UNL     1       3.392   5.212  19.897  0.00  0.00    +0.000 C 
ATOM     20  C   UNL     1       3.503   5.252  18.322  0.00  0.00    +0.000 C 
ATOM     21  C   UNL     1       2.313   4.447  17.743  0.00  0.00    +0.000 C 
ENDROOT
BRANCH  12  22
ATOM     22  N   UNL     1       1.715  12.925  21.027  0.00  0.00    +0.000 NA
ATOM     23  C   UNL     1       1.358  14.259  21.562  0.00  0.00    +0.000 C 
ATOM     24  C   UNL     1       2.405  13.247  19.737  0.00  0.00    +0.000 C 
ENDBRANCH  12  22
BRANCH   4  25
ATOM     25  O   UNL     1       6.137   7.029  17.853  0.00  0.00    +0.000 OA
ATOM     26  H   UNL     1       6.756   6.376  18.207  0.00  0.00    +0.000 HD
ENDBRANCH   4  25
TORSDOF 2
ENDMDL
MODEL 2
REMARK VINA RESULT:      -6.7      1.111      1.266
REMARK  Name = 
REMARK  7 active torsions:
REMARK  status: ('A' for Active; 'I' for Inactive)
REMARK    1  A    between atoms: C_1  and  C_2
REMARK    2  A    between atoms: C_4  and  O_5
REMARK    3  A    between atoms: C_13  and  N_14
REMARK    4  A    between atoms: N_14  and  C_15
REMARK    5  A    between atoms: N_14  and  C_16
REMARK    6  A    between atoms: C_19  and  C_20
REMARK    7  A    between atoms: C_24  and  C_25
REMARK                            x       y       z     vdW  Elec       q    Type
REMARK                         _______ _______ _______ _____ _____    ______ ____
ROOT
ATOM      1  C   UNL     1       6.182   4.384  14.243  0.00  0.00    +0.000 C 
ATOM      2  C   UNL     1       6.324   4.014  15.748  0.00  0.00    +0.000 C 
ATOM      3  C   UNL     1       6.053   4.910  16.768  0.00  0.00    +0.000 C 
ATOM      4  C   UNL     1       6.107   6.338  16.208  0.00  0.00    +0.000 C 
ATOM      5  C   UNL     1       4.623   6.609  16.170  0.00  0.00    +0.000 C 
ATOM      6  C   UNL     1       4.282   6.310  17.617  0.00  0.00    +0.000 C 
ATOM      7  C   UNL     1       3.004   6.756  18.156  0.00  0.00    +0.000 C 
ATOM      8  C   UNL     1       2.811   8.094  17.498  0.00  0.00    +0.000 C 
ATOM      9  C   UNL     1       1.501   8.605  17.901  0.00  0.00    +0.000 C 
ATOM     10  C   UNL     1       1.573   8.945  19.373  0.00  0.00    +0.000 C 
ATOM     11  C   UNL     1       0.516   9.986  19.467  0.00  0.00    +0.000 C 
ATOM     12  C   UNL     1       0.494  10.795  20.727  0.00  0.00    +0.000 C 
ATOM     13  C   UNL     1       0.541   9.707  21.866  0.00  0.00    +0.000 C 
ATOM     14  C   UNL     1       1.549   8.437  21.737  0.00  0.00    +0.000 C 
ATOM     15  C   UNL     1       1.622   7.692  20.308  0.00  0.00    +0.000 C 
ATOM     16  C   UNL     1       0.409   6.742  20.210  0.00  0.00    +0.000 C 
ATOM     17  C   UNL     1       3.011   6.847  19.753  0.00  0.00    +0.000 C 
ATOM     18  C   UNL     1       3.510   5.413  20.217  0.00  0.00    +0.000 C 
ATOM     19  C   UNL     1       4.844   4.841  19.427  0.00  0.00    +0.000 C 
ATOM     20  C   UNL     1       4.762   4.851  17.850  0.00  0.00    +0.000 C 
ATOM     21  C   UNL     1       3.748   3.761  17.423  0.00  0.00    +0.000 C 
ENDROOT
BRANCH  12  22
ATOM     22  N   UNL     1       1.466  11.951  20.700  0.00  0.00    +0.000 NA
ATOM     23  C   UNL     1       0.882  13.156  21.330  0.00  0.00    +0.000 C 
ATOM     24  C   UNL     1       1.848  12.431  19.333  0.00  0.00    +0.000 C 
ENDBRANCH  12  22
BRANCH   4  25
ATOM     25  O   UNL     1       6.808   7.197  17.058  0.00  0.00    +0.000 OA
ATOM     26  H   UNL     1       6.160   7.807  17.437  0.00  0.00    +0.000 HD
ENDBRANCH   4  25
TORSDOF 2
ENDMDL
MODEL 3
REMARK VINA RESULT:      -5.8      0.872      1.101
REMARK  Name = 
REMARK  7 active torsions:
REMARK  status: ('A' for Active; 'I' for Inactive)
REMARK    1  A    between atoms: C_1  and  C_2
REMARK    2  A    between atoms: C_4  and  O_5
REMARK    3  A    between atoms: C_13  and  N_14
REMARK    4  A    between atoms: N_14  and  C_15
REMARK    5  A    between atoms: N_14  and  C_16
REMARK    6  A    between atoms: C_19  and  C_20
REMARK    7  A    between atoms: C_24  and  C_25
REMARK                            x       y       z     vdW  Elec       q    Type
REMARK                         _______ _______ _______ _____ _____    ______ ____
ROOT
ATOM      1  C   UNL     1       4.850   4.042  15.649  0.00  0.00    +0.000 C 
ATOM      2  C   UNL     1       4.602   3.926  17.180  0.00  0.00    +0.000 C 
ATOM      3  C   UNL     1       4.478   5.031  18.005  0.00  0.00    +0.000 C 
ATOM      4  C   UNL     1       5.103   6.247  17.309  0.00  0.00    +0.000 C 
ATOM      5  C   UNL     1       3.826   6.947  16.914  0.00  0.00    +0.000 C 
ATOM      6  C   UNL     1       3.164   7.035  18.276  0.00  0.00    +0.000 C 
ATOM      7  C   UNL     1       2.038   7.940  18.466  0.00  0.00    +0.000 C 
ATOM      8  C   UNL     1       2.420   9.129  17.630  0.00  0.00    +0.000 C 
ATOM      9  C   UNL     1       1.310  10.081  17.673  0.00  0.00    +0.000 C 
ATOM     10  C   UNL     1       1.240  10.644  19.076  0.00  0.00    +0.000 C 
ATOM     11  C   UNL     1       0.595  11.957  18.813  0.00  0.00    +0.000 C 
ATOM     12  C   UNL     1       0.632  12.948  19.935  0.00  0.00    +0.000 C 
ATOM     13  C   UNL     1       0.116  12.124  21.175  0.00  0.00    +0.000 C 
ATOM     14  C   UNL     1       0.645  10.606  21.419  0.00  0.00    +0.000 C 
ATOM     15  C   UNL     1       0.706   9.627  20.137  0.00  0.00    +0.000 C 
ATOM     16  C   UNL     1      -0.721   9.092  19.886  0.00  0.00    +0.000 C 
ATOM     17  C   UNL     1       1.803   8.312  20.003  0.00  0.00    +0.000 C 
ATOM     18  C   UNL     1       1.705   6.904  20.729  0.00  0.00    +0.000 C 
ATOM     19  C   UNL     1       2.884   5.818  20.323  0.00  0.00    +0.000 C 
ATOM     20  C   UNL     1       3.078   5.567  18.777  0.00  0.00    +0.000 C 
ATOM     21  C   UNL     1       1.845   4.780  18.266  0.00  0.00    +0.000 C 
ENDROOT
BRANCH  12  22
ATOM     22  N   UNL     1       1.924  13.727  19.987  0.00  0.00    +0.000 NA
ATOM     23  C   UNL     1       2.735  13.502  18.770  0.00  0.00    +0.000 C 
ATOM     24  C   UNL     1       2.857  13.344  21.095  0.00  0.00    +0.000 C 
ENDBRANCH  12  22
BRANCH   4  25
ATOM     25  O   UNL     1       5.896   6.990  18.187  0.00  0.00    +0.000 OA
ATOM     26  H   UNL     1       6.689   7.251  17.698  0.00  0.00    +0.000 HD
ENDBRANCH   4  25
TORSDOF 2
ENDMDL
MODEL 4
REMARK VINA RESULT:      -5.7      4.612      7.729
REMARK  Name = 
REMARK  7 active torsions:
REMARK  status: ('A' for Active; 'I' for Inactive)
REMARK    1  A    between atoms: C_1  and  C_2
REMARK    2  A    between atoms: C_4  and  O_5
REMARK    3  A    between atoms: C_13  and  N_14
REMARK    4  A    between atoms: N_14  and  C_15
REMARK    5  A    between atoms: N_14  and  C_16
REMARK    6  A    between atoms: C_19  and  C_20
REMARK    7  A    between atoms: C_24  and  C_25
REMARK                            x       y       z     vdW  Elec       q    Type
REMARK                         _______ _______ _______ _____ _____    ______ ____
ROOT
ATOM      1  C   UNL     1       1.892   8.713  18.738  0.00  0.00    +0.000 C 
ATOM      2  C   UNL     1       1.668  10.088  18.046  0.00  0.00    +0.000 C 
ATOM      3  C   UNL     1       0.539  10.860  18.262  0.00  0.00    +0.000 C 
ATOM      4  C   UNL     1      -0.578   9.968  18.819  0.00  0.00    +0.000 C 
ATOM      5  C   UNL     1      -0.525  10.430  20.254  0.00  0.00    +0.000 C 
ATOM      6  C   UNL     1      -0.700  11.921  20.038  0.00  0.00    +0.000 C 
ATOM      7  C   UNL     1      -1.052  12.770  21.168  0.00  0.00    +0.000 C 
ATOM      8  C   UNL     1      -2.004  11.909  21.951  0.00  0.00    +0.000 C 
ATOM      9  C   UNL     1      -2.361  12.633  23.170  0.00  0.00    +0.000 C 
ATOM     10  C   UNL     1      -3.209  13.820  22.770  0.00  0.00    +0.000 C 
ATOM     11  C   UNL     1      -3.989  14.034  24.017  0.00  0.00    +0.000 C 
ATOM     12  C   UNL     1      -5.173  14.945  23.909  0.00  0.00    +0.000 C 
ATOM     13  C   UNL     1      -4.592  16.222  23.191  0.00  0.00    +0.000 C 
ATOM     14  C   UNL     1      -3.580  16.056  21.929  0.00  0.00    +0.000 C 
ATOM     15  C   UNL     1      -2.404  14.959  22.061  0.00  0.00    +0.000 C 
ATOM     16  C   UNL     1      -1.266  15.586  22.894  0.00  0.00    +0.000 C 
ATOM     17  C   UNL     1      -1.704  14.158  20.712  0.00  0.00    +0.000 C 
ATOM     18  C   UNL     1      -0.654  14.756  19.682  0.00  0.00    +0.000 C 
ATOM     19  C   UNL     1      -0.109  13.695  18.537  0.00  0.00    +0.000 C 
ATOM     20  C   UNL     1       0.459  12.328  19.086  0.00  0.00    +0.000 C 
ATOM     21  C   UNL     1       1.804  12.624  19.795  0.00  0.00    +0.000 C 
ENDROOT
BRANCH  12  22
ATOM     22  N   UNL     1      -6.408  14.245  23.395  0.00  0.00    +0.000 NA
ATOM     23  C   UNL     1      -7.617  15.075  23.597  0.00  0.00    +0.000 C 
ATOM     24  C   UNL     1      -6.752  12.964  24.091  0.00  0.00    +0.000 C 
ENDBRANCH  12  22
BRANCH   4  25
ATOM     25  O   UNL     1      -1.801  10.227  18.196  0.00  0.00    +0.000 OA
ATOM     26  H   UNL     1      -2.476   9.736  18.685  0.00  0.00    +0.000 HD
ENDBRANCH   4  25
TORSDOF 2
ENDMDL
MODEL 5
REMARK VINA RESULT:      -5.7      8.137     10.134
REMARK  Name = 
REMARK  7 active torsions:
REMARK  status: ('A' for Active; 'I' for Inactive)
REMARK    1  A    between atoms: C_1  and  C_2
REMARK    2  A    between atoms: C_4  and  O_5
REMARK    3  A    between atoms: C_13  and  N_14
REMARK    4  A    between atoms: N_14  and  C_15
REMARK    5  A    between atoms: N_14  and  C_16
REMARK    6  A    between atoms: C_19  and  C_20
REMARK    7  A    between atoms: C_24  and  C_25
REMARK                            x       y       z     vdW  Elec       q    Type
REMARK                         _______ _______ _______ _____ _____    ______ ____
ROOT
ATOM      1  C   UNL     1      10.821  16.115  16.568  0.00  0.00    +0.000 C 
ATOM      2  C   UNL     1      11.238  14.713  17.099  0.00  0.00    +0.000 C 
ATOM      3  C   UNL     1      11.289  14.408  18.448  0.00  0.00    +0.000 C 
ATOM      4  C   UNL     1      11.379  15.711  19.253  0.00  0.00    +0.000 C 
ATOM      5  C   UNL     1       9.959  15.745  19.764  0.00  0.00    +0.000 C 
ATOM      6  C   UNL     1       9.903  14.380  20.422  0.00  0.00    +0.000 C 
ATOM      7  C   UNL     1       8.826  14.081  21.356  0.00  0.00    +0.000 C 
ATOM      8  C   UNL     1       8.644  15.383  22.085  0.00  0.00    +0.000 C 
ATOM      9  C   UNL     1       7.513  15.227  23.000  0.00  0.00    +0.000 C 
ATOM     10  C   UNL     1       7.933  14.268  24.092  0.00  0.00    +0.000 C 
ATOM     11  C   UNL     1       7.040  14.701  25.198  0.00  0.00    +0.000 C 
ATOM     12  C   UNL     1       7.375  14.181  26.562  0.00  0.00    +0.000 C 
ATOM     13  C   UNL     1       7.544  12.631  26.335  0.00  0.00    +0.000 C 
ATOM     14  C   UNL     1       8.357  12.083  25.037  0.00  0.00    +0.000 C 
ATOM     15  C   UNL     1       8.043  12.781  23.617  0.00  0.00    +0.000 C 
ATOM     16  C   UNL     1       6.740  12.162  23.065  0.00  0.00    +0.000 C 
ATOM     17  C   UNL     1       9.182  12.867  22.334  0.00  0.00    +0.000 C 
ATOM     18  C   UNL     1       9.609  11.695  21.352  0.00  0.00    +0.000 C 
ATOM     19  C   UNL     1      10.674  12.124  20.163  0.00  0.00    +0.000 C 
ATOM     20  C   UNL     1      10.259  13.374  19.292  0.00  0.00    +0.000 C 
ATOM     21  C   UNL     1       9.065  12.954  18.400  0.00  0.00    +0.000 C 
ENDROOT
BRANCH  12  22
ATOM     22  N   UNL     1       8.438  14.998  27.257  0.00  0.00    +0.000 NA
ATOM     23  C   UNL     1       8.751  14.443  28.594  0.00  0.00    +0.000 C 
ATOM     24  C   UNL     1       8.061  16.416  27.555  0.00  0.00    +0.000 C 
ENDBRANCH  12  22
BRANCH   4  25
ATOM     25  O   UNL     1      12.333  15.624  20.269  0.00  0.00    +0.000 OA
ATOM     26  H   UNL     1      13.195  15.785  19.860  0.00  0.00    +0.000 HD
ENDBRANCH   4  25
TORSDOF 2
ENDMDL
MODEL 6
REMARK VINA RESULT:      -5.7      5.535      8.353
REMARK  Name = 
REMARK  7 active torsions:
REMARK  status: ('A' for Active; 'I' for Inactive)
REMARK    1  A    between atoms: C_1  and  C_2
REMARK    2  A    between atoms: C_4  and  O_5
REMARK    3  A    between atoms: C_13  and  N_14
REMARK    4  A    between atoms: N_14  and  C_15
REMARK    5  A    between atoms: N_14  and  C_16
REMARK    6  A    between atoms: C_19  and  C_20
REMARK    7  A    between atoms: C_24  and  C_25
REMARK                            x       y       z     vdW  Elec       q    Type
REMARK                         _______ _______ _______ _____ _____    ______ ____
ROOT
ATOM      1  C   UNL     1      -0.107   9.527  17.700  0.00  0.00    +0.000 C 
ATOM      2  C   UNL     1       0.630  10.435  18.726  0.00  0.00    +0.000 C 
ATOM      3  C   UNL     1       0.080  11.604  19.223  0.00  0.00    +0.000 C 
ATOM      4  C   UNL     1      -1.030  12.077  18.276  0.00  0.00    +0.000 C 
ATOM      5  C   UNL     1      -2.215  11.679  19.120  0.00  0.00    +0.000 C 
ATOM      6  C   UNL     1      -1.863  12.415  20.399  0.00  0.00    +0.000 C 
ATOM      7  C   UNL     1      -2.887  12.609  21.417  0.00  0.00    +0.000 C 
ATOM      8  C   UNL     1      -4.124  12.868  20.602  0.00  0.00    +0.000 C 
ATOM      9  C   UNL     1      -5.250  12.993  21.528  0.00  0.00    +0.000 C 
ATOM     10  C   UNL     1      -5.066  14.277  22.306  0.00  0.00    +0.000 C 
ATOM     11  C   UNL     1      -6.475  14.588  22.661  0.00  0.00    +0.000 C 
ATOM     12  C   UNL     1      -6.738  15.967  23.184  0.00  0.00    +0.000 C 
ATOM     13  C   UNL     1      -5.651  16.148  24.310  0.00  0.00    +0.000 C 
ATOM     14  C   UNL     1      -4.123  15.658  24.053  0.00  0.00    +0.000 C 
ATOM     15  C   UNL     1      -3.914  14.214  23.363  0.00  0.00    +0.000 C 
ATOM     16  C   UNL     1      -4.076  13.140  24.460  0.00  0.00    +0.000 C 
ATOM     17  C   UNL     1      -2.539  13.810  22.415  0.00  0.00    +0.000 C 
ATOM     18  C   UNL     1      -1.082  13.464  22.939  0.00  0.00    +0.000 C 
ATOM     19  C   UNL     1       0.005  13.034  21.770  0.00  0.00    +0.000 C 
ATOM     20  C   UNL     1      -0.459  11.881  20.796  0.00  0.00    +0.000 C 
ATOM     21  C   UNL     1      -0.474  10.558  21.603  0.00  0.00    +0.000 C 
ENDROOT
BRANCH  12  22
ATOM     22  N   UNL     1      -6.913  16.987  22.084  0.00  0.00    +0.000 NA
ATOM     23  C   UNL     1      -7.574  16.392  20.901  0.00  0.00    +0.000 C 
ATOM     24  C   UNL     1      -5.642  17.546  21.522  0.00  0.00    +0.000 C 
ENDBRANCH  12  22
BRANCH   4  25
ATOM     25  O   UNL     1      -0.952  13.452  18.038  0.00  0.00    +0.000 OA
ATOM     26  H   UNL     1      -0.078  13.624  17.663  0.00  0.00    +0.000 HD
ENDBRANCH   4  25
TORSDOF 2
ENDMDL
MODEL 7
REMARK VINA RESULT:      -5.6      5.483      8.099
REMARK  Name = 
REMARK  7 active torsions:
REMARK  status: ('A' for Active; 'I' for Inactive)
REMARK    1  A    between atoms: C_1  and  C_2
REMARK    2  A    between atoms: C_4  and  O_5
REMARK    3  A    between atoms: C_13  and  N_14
REMARK    4  A    between atoms: N_14  and  C_15
REMARK    5  A    between atoms: N_14  and  C_16
REMARK    6  A    between atoms: C_19  and  C_20
REMARK    7  A    between atoms: C_24  and  C_25
REMARK                            x       y       z     vdW  Elec       q    Type
REMARK                         _______ _______ _______ _____ _____    ______ ____
ROOT
ATOM      1  C   UNL     1       6.629  16.251  18.840  0.00  0.00    +0.000 C 
ATOM      2  C   UNL     1       5.433  16.951  19.545  0.00  0.00    +0.000 C 
ATOM      3  C   UNL     1       4.113  16.674  19.234  0.00  0.00    +0.000 C 
ATOM      4  C   UNL     1       4.051  16.024  17.845  0.00  0.00    +0.000 C 
ATOM      5  C   UNL     1       3.788  14.605  18.284  0.00  0.00    +0.000 C 
ATOM      6  C   UNL     1       2.553  14.837  19.134  0.00  0.00    +0.000 C 
ATOM      7  C   UNL     1       1.721  13.701  19.510  0.00  0.00    +0.000 C 
ATOM      8  C   UNL     1       1.755  12.839  18.279  0.00  0.00    +0.000 C 
ATOM      9  C   UNL     1       1.016  11.611  18.575  0.00  0.00    +0.000 C 
ATOM     10  C   UNL     1      -0.447  11.975  18.709  0.00  0.00    +0.000 C 
ATOM     11  C   UNL     1      -1.086  10.682  18.352  0.00  0.00    +0.000 C 
ATOM     12  C   UNL     1      -2.557  10.726  18.073  0.00  0.00    +0.000 C 
ATOM     13  C   UNL     1      -3.145  11.506  19.309  0.00  0.00    +0.000 C 
ATOM     14  C   UNL     1      -2.387  12.831  19.870  0.00  0.00    +0.000 C 
ATOM     15  C   UNL     1      -0.782  12.759  20.021  0.00  0.00    +0.000 C 
ATOM     16  C   UNL     1      -0.466  12.018  21.338  0.00  0.00    +0.000 C 
ATOM     17  C   UNL     1       0.238  14.138  19.921  0.00  0.00    +0.000 C 
ATOM     18  C   UNL     1       0.459  15.249  21.033  0.00  0.00    +0.000 C 
ATOM     19  C   UNL     1       1.576  16.408  20.659  0.00  0.00    +0.000 C 
ATOM     20  C   UNL     1       2.990  15.874  20.205  0.00  0.00    +0.000 C 
ATOM     21  C   UNL     1       3.688  15.265  21.447  0.00  0.00    +0.000 C 
ENDROOT
BRANCH  12  22
ATOM     22  N   UNL     1      -2.873  11.140  16.655  0.00  0.00    +0.000 NA
ATOM     23  C   UNL     1      -4.305  11.485  16.505  0.00  0.00    +0.000 C 
ATOM     24  C   UNL     1      -2.667  10.078  15.619  0.00  0.00    +0.000 C 
ENDBRANCH  12  22
BRANCH   4  25
ATOM     25  O   UNL     1       3.025  16.566  17.069  0.00  0.00    +0.000 OA
ATOM     26  H   UNL     1       2.647  17.300  17.573  0.00  0.00    +0.000 HD
ENDBRANCH   4  25
TORSDOF 2
ENDMDL
MODEL 8
REMARK VINA RESULT:      -5.6      7.793     10.342
REMARK  Name = 
REMARK  7 active torsions:
REMARK  status: ('A' for Active; 'I' for Inactive)
REMARK    1  A    between atoms: C_1  and  C_2
REMARK    2  A    between atoms: C_4  and  O_5
REMARK    3  A    between atoms: C_13  and  N_14
REMARK    4  A    between atoms: N_14  and  C_15
REMARK    5  A    between atoms: N_14  and  C_16
REMARK    6  A    between atoms: C_19  and  C_20
REMARK    7  A    between atoms: C_24  and  C_25
REMARK                            x       y       z     vdW  Elec       q    Type
REMARK                         _______ _______ _______ _____ _____    ______ ____
ROOT
ATOM      1  C   UNL     1       0.945  17.349  17.988  0.00  0.00    +0.000 C 
ATOM      2  C   UNL     1       1.170  16.428  19.221  0.00  0.00    +0.000 C 
ATOM      3  C   UNL     1       2.247  15.564  19.325  0.00  0.00    +0.000 C 
ATOM      4  C   UNL     1       2.819  15.307  17.925  0.00  0.00    +0.000 C 
ATOM      5  C   UNL     1       4.057  16.163  18.040  0.00  0.00    +0.000 C 
ATOM      6  C   UNL     1       4.658  15.556  19.294  0.00  0.00    +0.000 C 
ATOM      7  C   UNL     1       6.050  15.831  19.624  0.00  0.00    +0.000 C 
ATOM      8  C   UNL     1       6.719  15.834  18.277  0.00  0.00    +0.000 C 
ATOM      9  C   UNL     1       8.123  16.191  18.478  0.00  0.00    +0.000 C 
ATOM     10  C   UNL     1       8.793  15.043  19.201  0.00  0.00    +0.000 C 
ATOM     11  C   UNL     1      10.200  15.224  18.761  0.00  0.00    +0.000 C 
ATOM     12  C   UNL     1      11.130  14.081  19.031  0.00  0.00    +0.000 C 
ATOM     13  C   UNL     1      10.884  13.755  20.552  0.00  0.00    +0.000 C 
ATOM     14  C   UNL     1       9.369  13.723  21.142  0.00  0.00    +0.000 C 
ATOM     15  C   UNL     1       8.377  14.917  20.704  0.00  0.00    +0.000 C 
ATOM     16  C   UNL     1       8.697  16.143  21.587  0.00  0.00    +0.000 C 
ATOM     17  C   UNL     1       6.669  14.746  20.622  0.00  0.00    +0.000 C 
ATOM     18  C   UNL     1       5.650  14.716  21.838  0.00  0.00    +0.000 C 
ATOM     19  C   UNL     1       4.054  14.622  21.418  0.00  0.00    +0.000 C 
ATOM     20  C   UNL     1       3.555  15.701  20.379  0.00  0.00    +0.000 C 
ATOM     21  C   UNL     1       3.530  17.073  21.097  0.00  0.00    +0.000 C 
ENDROOT
BRANCH  12  22
ATOM     22  N   UNL     1      11.061  13.006  17.972  0.00  0.00    +0.000 NA
ATOM     23  C   UNL     1      11.757  11.776  18.412  0.00  0.00    +0.000 C 
ATOM     24  C   UNL     1      11.740  13.339  16.679  0.00  0.00    +0.000 C 
ENDBRANCH  12  22
BRANCH   4  25
ATOM     25  O   UNL     1       3.096  13.953  17.723  0.00  0.00    +0.000 OA
ATOM     26  H   UNL     1       3.707  13.683  18.423  0.00  0.00    +0.000 HD
ENDBRANCH   4  25
TORSDOF 2
ENDMDL
MODEL 9
REMARK VINA RESULT:      -5.4      8.372     11.387
REMARK  Name = 
REMARK  7 active torsions:
REMARK  status: ('A' for Active; 'I' for Inactive)
REMARK    1  A    between atoms: C_1  and  C_2
REMARK    2  A    between atoms: C_4  and  O_5
REMARK    3  A    between atoms: C_13  and  N_14
REMARK    4  A    between atoms: N_14  and  C_15
REMARK    5  A    between atoms: N_14  and  C_16
REMARK    6  A    between atoms: C_19  and  C_20
REMARK    7  A    between atoms: C_24  and  C_25
REMARK                            x       y       z     vdW  Elec       q    Type
REMARK                         _______ _______ _______ _____ _____    ______ ____
ROOT
ATOM      1  C   UNL     1       7.786  15.750  27.676  0.00  0.00    +0.000 C 
ATOM      2  C   UNL     1       6.986  14.677  26.884  0.00  0.00    +0.000 C 
ATOM      3  C   UNL     1       6.926  14.656  25.500  0.00  0.00    +0.000 C 
ATOM      4  C   UNL     1       7.299  16.044  24.963  0.00  0.00    +0.000 C 
ATOM      5  C   UNL     1       8.687  15.717  24.470  0.00  0.00    +0.000 C 
ATOM      6  C   UNL     1       8.355  14.549  23.561  0.00  0.00    +0.000 C 
ATOM      7  C   UNL     1       9.342  14.099  22.588  0.00  0.00    +0.000 C 
ATOM      8  C   UNL     1       9.967  15.385  22.124  0.00  0.00    +0.000 C 
ATOM      9  C   UNL     1      11.047  15.047  21.198  0.00  0.00    +0.000 C 
ATOM     10  C   UNL     1      10.419  14.488  19.940  0.00  0.00    +0.000 C 
ATOM     11  C   UNL     1      11.470  14.810  18.940  0.00  0.00    +0.000 C 
ATOM     12  C   UNL     1      11.075  14.682  17.501  0.00  0.00    +0.000 C 
ATOM     13  C   UNL     1      10.416  13.252  17.424  0.00  0.00    +0.000 C 
ATOM     14  C   UNL     1       9.394  12.764  18.590  0.00  0.00    +0.000 C 
ATOM     15  C   UNL     1       9.820  13.054  20.119  0.00  0.00    +0.000 C 
ATOM     16  C   UNL     1      10.827  11.962  20.542  0.00  0.00    +0.000 C 
ATOM     17  C   UNL     1       8.687  13.262  21.393  0.00  0.00    +0.000 C 
ATOM     18  C   UNL     1       7.854  12.128  22.129  0.00  0.00    +0.000 C 
ATOM     19  C   UNL     1       6.904  12.650  23.377  0.00  0.00    +0.000 C 
ATOM     20  C   UNL     1       7.633  13.521  24.474  0.00  0.00    +0.000 C 
ATOM     21  C   UNL     1       8.577  12.586  25.270  0.00  0.00    +0.000 C 
ENDROOT
BRANCH  12  22
ATOM     22  N   UNL     1      10.366  15.907  16.975  0.00  0.00    +0.000 NA
ATOM     23  C   UNL     1      11.148  17.135  17.245  0.00  0.00    +0.000 C 
ATOM     24  C   UNL     1       9.041  16.199  17.609  0.00  0.00    +0.000 C 
ENDBRANCH  12  22
BRANCH   4  25
ATOM     25  O   UNL     1       6.431  16.453  23.948  0.00  0.00    +0.000 OA
ATOM     26  H   UNL     1       6.979  16.688  23.186  0.00  0.00    +0.000 HD
ENDBRANCH   4  25
TORSDOF 2
ENDMDL
