MODEL 1
REMARK VINA RESULT:      -9.7      0.000      0.000
REMARK  Name = 
REMARK  8 active torsions:
REMARK  status: ('A' for Active; 'I' for Inactive)
REMARK    1  A    between atoms: C_1  and  C_2
REMARK    2  A    between atoms: C_2  and  C_3
REMARK    3  A    between atoms: C_7  and  N_8
REMARK    4  A    between atoms: C_9  and  C_11
REMARK    5  A    between atoms: C_11  and  N_12
REMARK    6  A    between atoms: C_14  and  C_15
REMARK    7  A    between atoms: C_15  and  C_16
REMARK    8  A    between atoms: C_22  and  C_23
REMARK                            x       y       z     vdW  Elec       q    Type
REMARK                         _______ _______ _______ _____ _____    ______ ____
ROOT
ATOM      1  N   UNL     1       7.291   6.036  17.833  0.00  0.00    +0.000 N 
ATOM      2  N   UNL     1       7.229   6.354  16.470  0.00  0.00    +0.000 NA
ATOM      3  C   UNL     1       6.240   5.846  15.797  0.00  0.00    +0.000 A 
ATOM      4  N   UNL     1       5.056   5.407  16.568  0.00  0.00    +0.000 N 
ATOM      5  C   UNL     1       5.563   4.449  17.414  0.00  0.00    +0.000 A 
ATOM      6  C   UNL     1       4.449   3.688  17.159  0.00  0.00    +0.000 A 
ATOM      7  C   UNL     1       3.585   4.553  17.844  0.00  0.00    +0.000 A 
ATOM      8  C   UNL     1       2.575   4.048  18.728  0.00  0.00    +0.000 A 
ATOM      9  C   UNL     1       1.853   4.738  19.656  0.00  0.00    +0.000 A 
ATOM     10  C   UNL     1       0.867   3.979  20.514  0.00  0.00    +0.000 C 
ATOM     11  C   UNL     1       2.195   6.059  19.632  0.00  0.00    +0.000 A 
ATOM     12  C   UNL     1       3.160   6.598  18.623  0.00  0.00    +0.000 A 
ATOM     13  C   UNL     1       4.104   6.027  17.593  0.00  0.00    +0.000 A 
ATOM     14  C   UNL     1       6.410   5.097  18.436  0.00  0.00    +0.000 A 
ATOM     15  O   UNL     1       6.272   4.996  19.649  0.00  0.00    +0.000 OA
ENDROOT
BRANCH   3  16
ATOM     16  C   UNL     1       6.851   5.072  14.461  0.00  0.00    +0.000 C 
ATOM     17  C   UNL     1       6.348   3.821  13.686  0.00  0.00    +0.000 C 
ENDBRANCH   3  16
BRANCH   1  18
ATOM     18  C   UNL     1       8.325   6.734  18.605  0.00  0.00    +0.000 C 
BRANCH  18  20
ATOM     19  N   UNL     1       9.194   8.989  19.233  0.00  0.00    +0.000 N 
ATOM     20  C   UNL     1       8.300   8.270  18.440  0.00  0.00    +0.000 C 
ATOM     21  O   UNL     1       7.542   8.803  17.623  0.00  0.00    +0.000 OA
ATOM     22  H   UNL     1       9.818   8.472  19.841  0.00  0.00    +0.000 HD
BRANCH  19  27
ATOM     23  C   UNL     1      10.054  12.447  18.041  0.00  0.00    +0.000 A 
ATOM     24  C   UNL     1       9.713  13.208  19.152  0.00  0.00    +0.000 A 
ATOM     25  C   UNL     1       9.202  12.568  20.285  0.00  0.00    +0.000 A 
ATOM     26  C   UNL     1       9.035  11.179  20.313  0.00  0.00    +0.000 A 
ATOM     27  C   UNL     1       9.323  10.403  19.196  0.00  0.00    +0.000 A 
ATOM     28  C   UNL     1       9.803  11.066  18.059  0.00  0.00    +0.000 A 
BRANCH  23  30
ATOM     29  C   UNL     1      11.282  14.411  17.167  0.00  0.00    +0.000 C 
ATOM     30  C   UNL     1      10.837  12.980  16.869  0.00  0.00    +0.000 C 
ENDBRANCH  23  30
ENDBRANCH  19  27
ENDBRANCH  18  20
ENDBRANCH   1  18
TORSDOF 5
ENDMDL
MODEL 2
REMARK VINA RESULT:      -9.7      0.725      1.814
REMARK  Name = 
REMARK  8 active torsions:
REMARK  status: ('A' for Active; 'I' for Inactive)
REMARK    1  A    between atoms: C_1  and  C_2
REMARK    2  A    between atoms: C_2  and  C_3
REMARK    3  A    between atoms: C_7  and  N_8
REMARK    4  A    between atoms: C_9  and  C_11
REMARK    5  A    between atoms: C_11  and  N_12
REMARK    6  A    between atoms: C_14  and  C_15
REMARK    7  A    between atoms: C_15  and  C_16
REMARK    8  A    between atoms: C_22  and  C_23
REMARK                            x       y       z     vdW  Elec       q    Type
REMARK                         _______ _______ _______ _____ _____    ______ ____
ROOT
ATOM      1  N   UNL     1       7.234   5.930  17.746  0.00  0.00    +0.000 N 
ATOM      2  N   UNL     1       7.168   6.240  16.380  0.00  0.00    +0.000 NA
ATOM      3  C   UNL     1       6.178   5.729  15.712  0.00  0.00    +0.000 A 
ATOM      4  N   UNL     1       4.994   5.297  16.489  0.00  0.00    +0.000 N 
ATOM      5  C   UNL     1       5.502   4.343  17.340  0.00  0.00    +0.000 A 
ATOM      6  C   UNL     1       4.386   3.583  17.093  0.00  0.00    +0.000 A 
ATOM      7  C   UNL     1       3.525   4.454  17.774  0.00  0.00    +0.000 A 
ATOM      8  C   UNL     1       2.516   3.956  18.663  0.00  0.00    +0.000 A 
ATOM      9  C   UNL     1       1.797   4.653  19.589  0.00  0.00    +0.000 A 
ATOM     10  C   UNL     1       0.812   3.901  20.454  0.00  0.00    +0.000 C 
ATOM     11  C   UNL     1       2.141   5.973  19.555  0.00  0.00    +0.000 A 
ATOM     12  C   UNL     1       3.106   6.505  18.541  0.00  0.00    +0.000 A 
ATOM     13  C   UNL     1       4.046   5.925  17.513  0.00  0.00    +0.000 A 
ATOM     14  C   UNL     1       6.352   4.996  18.356  0.00  0.00    +0.000 A 
ATOM     15  O   UNL     1       6.217   4.903  19.570  0.00  0.00    +0.000 OA
ENDROOT
BRANCH   3  16
ATOM     16  C   UNL     1       6.784   4.946  14.380  0.00  0.00    +0.000 C 
ATOM     17  C   UNL     1       6.193   3.800  13.513  0.00  0.00    +0.000 C 
ENDBRANCH   3  16
BRANCH   1  18
ATOM     18  C   UNL     1       8.270   6.631  18.510  0.00  0.00    +0.000 C 
BRANCH  18  20
ATOM     19  N   UNL     1       9.093   8.889  19.192  0.00  0.00    +0.000 N 
ATOM     20  C   UNL     1       8.202   8.170  18.394  0.00  0.00    +0.000 C 
ATOM     21  O   UNL     1       7.415   8.708  17.609  0.00  0.00    +0.000 OA
ATOM     22  H   UNL     1       9.742   8.370  19.771  0.00  0.00    +0.000 HD
BRANCH  19  27
ATOM     23  C   UNL     1       9.205  12.438  20.421  0.00  0.00    +0.000 A 
ATOM     24  C   UNL     1       9.229  13.137  19.222  0.00  0.00    +0.000 A 
ATOM     25  C   UNL     1       9.207  12.427  18.017  0.00  0.00    +0.000 A 
ATOM     26  C   UNL     1       9.158  11.028  18.008  0.00  0.00    +0.000 A 
ATOM     27  C   UNL     1       9.184  10.306  19.196  0.00  0.00    +0.000 A 
ATOM     28  C   UNL     1       9.239  11.034  20.391  0.00  0.00    +0.000 A 
BRANCH  23  30
ATOM     29  C   UNL     1       8.539  12.018  22.767  0.00  0.00    +0.000 C 
ATOM     30  C   UNL     1       8.975  13.083  21.763  0.00  0.00    +0.000 C 
ENDBRANCH  23  30
ENDBRANCH  19  27
ENDBRANCH  18  20
ENDBRANCH   1  18
TORSDOF 5
ENDMDL
MODEL 3
REMARK VINA RESULT:      -9.1      0.981      1.421
REMARK  Name = 
REMARK  8 active torsions:
REMARK  status: ('A' for Active; 'I' for Inactive)
REMARK    1  A    between atoms: C_1  and  C_2
REMARK    2  A    between atoms: C_2  and  C_3
REMARK    3  A    between atoms: C_7  and  N_8
REMARK    4  A    between atoms: C_9  and  C_11
REMARK    5  A    between atoms: C_11  and  N_12
REMARK    6  A    between atoms: C_14  and  C_15
REMARK    7  A    between atoms: C_15  and  C_16
REMARK    8  A    between atoms: C_22  and  C_23
REMARK                            x       y       z     vdW  Elec       q    Type
REMARK                         _______ _______ _______ _____ _____    ______ ____
ROOT
ATOM      1  N   UNL     1       7.119   6.115  17.934  0.00  0.00    +0.000 N 
ATOM      2  N   UNL     1       7.017   6.389  16.563  0.00  0.00    +0.000 NA
ATOM      3  C   UNL     1       6.084   5.762  15.911  0.00  0.00    +0.000 A 
ATOM      4  N   UNL     1       4.956   5.222  16.702  0.00  0.00    +0.000 N 
ATOM      5  C   UNL     1       5.565   4.345  17.568  0.00  0.00    +0.000 A 
ATOM      6  C   UNL     1       4.535   3.465  17.342  0.00  0.00    +0.000 A 
ATOM      7  C   UNL     1       3.588   4.254  18.010  0.00  0.00    +0.000 A 
ATOM      8  C   UNL     1       2.641   3.669  18.914  0.00  0.00    +0.000 A 
ATOM      9  C   UNL     1       1.855   4.304  19.830  0.00  0.00    +0.000 A 
ATOM     10  C   UNL     1       0.958   3.470  20.714  0.00  0.00    +0.000 C 
ATOM     11  C   UNL     1       2.056   5.653  19.768  0.00  0.00    +0.000 A 
ATOM     12  C   UNL     1       2.956   6.263  18.739  0.00  0.00    +0.000 A 
ATOM     13  C   UNL     1       3.949   5.767  17.718  0.00  0.00    +0.000 A 
ATOM     14  C   UNL     1       6.344   5.105  18.567  0.00  0.00    +0.000 A 
ATOM     15  O   UNL     1       6.222   5.022  19.784  0.00  0.00    +0.000 OA
ENDROOT
BRANCH   3  16
ATOM     16  C   UNL     1       6.767   5.021  14.591  0.00  0.00    +0.000 C 
ATOM     17  C   UNL     1       6.249   3.868  13.687  0.00  0.00    +0.000 C 
ENDBRANCH   3  16
BRANCH   1  18
ATOM     18  C   UNL     1       8.077   6.937  18.680  0.00  0.00    +0.000 C 
BRANCH  18  20
ATOM     19  N   UNL     1       9.041   9.234  18.865  0.00  0.00    +0.000 N 
ATOM     20  C   UNL     1       8.263   8.360  18.106  0.00  0.00    +0.000 C 
ATOM     21  O   UNL     1       7.765   8.670  17.019  0.00  0.00    +0.000 OA
ATOM     22  H   UNL     1       9.456   8.885  19.720  0.00  0.00    +0.000 HD
BRANCH  19  27
ATOM     23  C   UNL     1       8.577  12.823  17.852  0.00  0.00    +0.000 A 
ATOM     24  C   UNL     1       9.886  13.196  17.579  0.00  0.00    +0.000 A 
ATOM     25  C   UNL     1      10.910  12.256  17.731  0.00  0.00    +0.000 A 
ATOM     26  C   UNL     1      10.631  10.951  18.151  0.00  0.00    +0.000 A 
ATOM     27  C   UNL     1       9.335  10.568  18.479  0.00  0.00    +0.000 A 
ATOM     28  C   UNL     1       8.328  11.533  18.350  0.00  0.00    +0.000 A 
BRANCH  23  30
ATOM     29  C   UNL     1       7.220  14.786  18.505  0.00  0.00    +0.000 C 
ATOM     30  C   UNL     1       7.375  13.655  17.490  0.00  0.00    +0.000 C 
ENDBRANCH  23  30
ENDBRANCH  19  27
ENDBRANCH  18  20
ENDBRANCH   1  18
TORSDOF 5
ENDMDL
MODEL 4
REMARK VINA RESULT:      -9.1      0.879      1.187
REMARK  Name = 
REMARK  8 active torsions:
REMARK  status: ('A' for Active; 'I' for Inactive)
REMARK    1  A    between atoms: C_1  and  C_2
REMARK    2  A    between atoms: C_2  and  C_3
REMARK    3  A    between atoms: C_7  and  N_8
REMARK    4  A    between atoms: C_9  and  C_11
REMARK    5  A    between atoms: C_11  and  N_12
REMARK    6  A    between atoms: C_14  and  C_15
REMARK    7  A    between atoms: C_15  and  C_16
REMARK    8  A    between atoms: C_22  and  C_23
REMARK                            x       y       z     vdW  Elec       q    Type
REMARK                         _______ _______ _______ _____ _____    ______ ____
ROOT
ATOM      1  N   UNL     1       7.168   5.929  17.854  0.00  0.00    +0.000 N 
ATOM      2  N   UNL     1       7.161   6.176  16.474  0.00  0.00    +0.000 NA
ATOM      3  C   UNL     1       6.241   5.576  15.779  0.00  0.00    +0.000 A 
ATOM      4  N   UNL     1       5.044   5.105  16.511  0.00  0.00    +0.000 N 
ATOM      5  C   UNL     1       5.560   4.222  17.431  0.00  0.00    +0.000 A 
ATOM      6  C   UNL     1       4.507   3.383  17.160  0.00  0.00    +0.000 A 
ATOM      7  C   UNL     1       3.558   4.228  17.753  0.00  0.00    +0.000 A 
ATOM      8  C   UNL     1       2.534   3.706  18.610  0.00  0.00    +0.000 A 
ATOM      9  C   UNL     1       1.723   4.397  19.464  0.00  0.00    +0.000 A 
ATOM     10  C   UNL     1       0.739   3.623  20.309  0.00  0.00    +0.000 C 
ATOM     11  C   UNL     1       1.989   5.733  19.387  0.00  0.00    +0.000 A 
ATOM     12  C   UNL     1       2.975   6.280  18.401  0.00  0.00    +0.000 A 
ATOM     13  C   UNL     1       4.004   5.716  17.453  0.00  0.00    +0.000 A 
ATOM     14  C   UNL     1       6.311   4.970  18.459  0.00  0.00    +0.000 A 
ATOM     15  O   UNL     1       6.114   4.921  19.667  0.00  0.00    +0.000 OA
ENDROOT
BRANCH   3  16
ATOM     16  C   UNL     1       6.967   4.776  14.518  0.00  0.00    +0.000 C 
ATOM     17  C   UNL     1       7.771   5.308  13.299  0.00  0.00    +0.000 C 
ENDBRANCH   3  16
BRANCH   1  18
ATOM     18  C   UNL     1       8.116   6.726  18.639  0.00  0.00    +0.000 C 
BRANCH  18  20
ATOM     19  N   UNL     1       8.978   9.044  18.988  0.00  0.00    +0.000 N 
ATOM     20  C   UNL     1       8.262   8.186  18.154  0.00  0.00    +0.000 C 
ATOM     21  O   UNL     1       7.788   8.539  17.069  0.00  0.00    +0.000 OA
ATOM     22  H   UNL     1       9.378   8.663  19.837  0.00  0.00    +0.000 HD
BRANCH  19  27
ATOM     23  C   UNL     1      10.552  12.456  19.019  0.00  0.00    +0.000 A 
ATOM     24  C   UNL     1       9.671  13.166  18.213  0.00  0.00    +0.000 A 
ATOM     25  C   UNL     1       8.563  12.509  17.669  0.00  0.00    +0.000 A 
ATOM     26  C   UNL     1       8.334  11.152  17.928  0.00  0.00    +0.000 A 
ATOM     27  C   UNL     1       9.229  10.410  18.689  0.00  0.00    +0.000 A 
ATOM     28  C   UNL     1      10.349  11.078  19.199  0.00  0.00    +0.000 A 
BRANCH  23  30
ATOM     29  C   UNL     1      11.444  14.617  19.832  0.00  0.00    +0.000 C 
ATOM     30  C   UNL     1      11.626  13.100  19.856  0.00  0.00    +0.000 C 
ENDBRANCH  23  30
ENDBRANCH  19  27
ENDBRANCH  18  20
ENDBRANCH   1  18
TORSDOF 5
ENDMDL
MODEL 5
REMARK VINA RESULT:      -9.0      4.714      8.267
REMARK  Name = 
REMARK  8 active torsions:
REMARK  status: ('A' for Active; 'I' for Inactive)
REMARK    1  A    between atoms: C_1  and  C_2
REMARK    2  A    between atoms: C_2  and  C_3
REMARK    3  A    between atoms: C_7  and  N_8
REMARK    4  A    between atoms: C_9  and  C_11
REMARK    5  A    between atoms: C_11  and  N_12
REMARK    6  A    between atoms: C_14  and  C_15
REMARK    7  A    between atoms: C_15  and  C_16
REMARK    8  A    between atoms: C_22  and  C_23
REMARK                            x       y       z     vdW  Elec       q    Type
REMARK                         _______ _______ _______ _____ _____    ______ ____
ROOT
ATOM      1  N   UNL     1       2.333   6.937  19.822  0.00  0.00    +0.000 N 
ATOM      2  N   UNL     1       2.109   5.895  20.732  0.00  0.00    +0.000 NA
ATOM      3  C   UNL     1       2.378   4.692  20.320  0.00  0.00    +0.000 A 
ATOM      4  N   UNL     1       3.308   4.566  19.176  0.00  0.00    +0.000 N 
ATOM      5  C   UNL     1       2.673   5.254  18.170  0.00  0.00    +0.000 A 
ATOM      6  C   UNL     1       3.039   4.252  17.305  0.00  0.00    +0.000 A 
ATOM      7  C   UNL     1       4.401   4.579  17.352  0.00  0.00    +0.000 A 
ATOM      8  C   UNL     1       5.197   4.618  16.160  0.00  0.00    +0.000 A 
ATOM      9  C   UNL     1       6.434   5.168  15.996  0.00  0.00    +0.000 A 
ATOM     10  C   UNL     1       7.066   5.130  14.625  0.00  0.00    +0.000 C 
ATOM     11  C   UNL     1       6.878   5.689  17.178  0.00  0.00    +0.000 A 
ATOM     12  C   UNL     1       6.093   5.536  18.444  0.00  0.00    +0.000 A 
ATOM     13  C   UNL     1       4.717   5.054  18.829  0.00  0.00    +0.000 A 
ATOM     14  C   UNL     1       2.703   6.700  18.470  0.00  0.00    +0.000 A 
ATOM     15  O   UNL     1       3.152   7.574  17.738  0.00  0.00    +0.000 OA
ENDROOT
BRANCH   3  16
ATOM     16  C   UNL     1       1.048   3.733  20.581  0.00  0.00    +0.000 C 
ATOM     17  C   UNL     1       0.400   2.626  19.703  0.00  0.00    +0.000 C 
ENDBRANCH   3  16
BRANCH   1  18
ATOM     18  C   UNL     1       2.165   8.294  20.353  0.00  0.00    +0.000 C 
BRANCH  18  20
ATOM     19  N   UNL     1       0.511   9.730  19.152  0.00  0.00    +0.000 N 
ATOM     20  C   UNL     1       0.730   8.850  20.212  0.00  0.00    +0.000 C 
ATOM     21  O   UNL     1      -0.162   8.494  20.989  0.00  0.00    +0.000 OA
ATOM     22  H   UNL     1       1.284   9.931  18.529  0.00  0.00    +0.000 HD
BRANCH  19  27
ATOM     23  C   UNL     1      -2.797  10.403  17.501  0.00  0.00    +0.000 A 
ATOM     24  C   UNL     1      -3.202  11.551  18.170  0.00  0.00    +0.000 A 
ATOM     25  C   UNL     1      -2.376  12.092  19.160  0.00  0.00    +0.000 A 
ATOM     26  C   UNL     1      -1.152  11.494  19.480  0.00  0.00    +0.000 A 
ATOM     27  C   UNL     1      -0.749  10.317  18.860  0.00  0.00    +0.000 A 
ATOM     28  C   UNL     1      -1.604   9.773  17.894  0.00  0.00    +0.000 A 
BRANCH  23  30
ATOM     29  C   UNL     1      -3.020  10.699  15.055  0.00  0.00    +0.000 C 
ATOM     30  C   UNL     1      -3.468   9.875  16.260  0.00  0.00    +0.000 C 
ENDBRANCH  23  30
ENDBRANCH  19  27
ENDBRANCH  18  20
ENDBRANCH   1  18
TORSDOF 5
ENDMDL
MODEL 6
REMARK VINA RESULT:      -8.7      4.734      8.423
REMARK  Name = 
REMARK  8 active torsions:
REMARK  status: ('A' for Active; 'I' for Inactive)
REMARK    1  A    between atoms: C_1  and  C_2
REMARK    2  A    between atoms: C_2  and  C_3
REMARK    3  A    between atoms: C_7  and  N_8
REMARK    4  A    between atoms: C_9  and  C_11
REMARK    5  A    between atoms: C_11  and  N_12
REMARK    6  A    between atoms: C_14  and  C_15
REMARK    7  A    between atoms: C_15  and  C_16
REMARK    8  A    between atoms: C_22  and  C_23
REMARK                            x       y       z     vdW  Elec       q    Type
REMARK                         _______ _______ _______ _____ _____    ______ ____
ROOT
ATOM      1  N   UNL     1       2.279   7.046  19.736  0.00  0.00    +0.000 N 
ATOM      2  N   UNL     1       2.041   6.034  20.676  0.00  0.00    +0.000 NA
ATOM      3  C   UNL     1       2.315   4.818  20.305  0.00  0.00    +0.000 A 
ATOM      4  N   UNL     1       3.261   4.655  19.178  0.00  0.00    +0.000 N 
ATOM      5  C   UNL     1       2.639   5.311  18.143  0.00  0.00    +0.000 A 
ATOM      6  C   UNL     1       3.016   4.282  17.315  0.00  0.00    +0.000 A 
ATOM      7  C   UNL     1       4.377   4.610  17.370  0.00  0.00    +0.000 A 
ATOM      8  C   UNL     1       5.189   4.611  16.188  0.00  0.00    +0.000 A 
ATOM      9  C   UNL     1       6.429   5.156  16.023  0.00  0.00    +0.000 A 
ATOM     10  C   UNL     1       7.078   5.073  14.661  0.00  0.00    +0.000 C 
ATOM     11  C   UNL     1       6.857   5.713  17.193  0.00  0.00    +0.000 A 
ATOM     12  C   UNL     1       6.056   5.601  18.452  0.00  0.00    +0.000 A 
ATOM     13  C   UNL     1       4.674   5.132  18.835  0.00  0.00    +0.000 A 
ATOM     14  C   UNL     1       2.666   6.766  18.397  0.00  0.00    +0.000 A 
ATOM     15  O   UNL     1       3.125   7.616  17.644  0.00  0.00    +0.000 OA
ENDROOT
BRANCH   3  16
ATOM     16  C   UNL     1       0.982   3.868  20.580  0.00  0.00    +0.000 C 
ATOM     17  C   UNL     1       0.419   2.649  19.796  0.00  0.00    +0.000 C 
ENDBRANCH   3  16
BRANCH   1  18
ATOM     18  C   UNL     1       2.104   8.420  20.220  0.00  0.00    +0.000 C 
BRANCH  18  20
ATOM     19  N   UNL     1       0.478   9.791  18.912  0.00  0.00    +0.000 N 
ATOM     20  C   UNL     1       0.676   8.977  20.027  0.00  0.00    +0.000 C 
ATOM     21  O   UNL     1      -0.228   8.677  20.814  0.00  0.00    +0.000 OA
ATOM     22  H   UNL     1       1.260   9.946  18.287  0.00  0.00    +0.000 HD
BRANCH  19  27
ATOM     23  C   UNL     1      -2.642  11.877  19.095  0.00  0.00    +0.000 A 
ATOM     24  C   UNL     1      -3.328  11.435  17.971  0.00  0.00    +0.000 A 
ATOM     25  C   UNL     1      -2.752  10.449  17.164  0.00  0.00    +0.000 A 
ATOM     26  C   UNL     1      -1.500   9.905  17.477  0.00  0.00    +0.000 A 
ATOM     27  C   UNL     1      -0.773  10.368  18.567  0.00  0.00    +0.000 A 
ATOM     28  C   UNL     1      -1.353  11.379  19.345  0.00  0.00    +0.000 A 
BRANCH  23  30
ATOM     29  C   UNL     1      -4.775  12.574  20.138  0.00  0.00    +0.000 C 
ATOM     30  C   UNL     1      -3.257  12.739  20.167  0.00  0.00    +0.000 C 
ENDBRANCH  23  30
ENDBRANCH  19  27
ENDBRANCH  18  20
ENDBRANCH   1  18
TORSDOF 5
ENDMDL
MODEL 7
REMARK VINA RESULT:      -8.4      4.838      7.177
REMARK  Name = 
REMARK  8 active torsions:
REMARK  status: ('A' for Active; 'I' for Inactive)
REMARK    1  A    between atoms: C_1  and  C_2
REMARK    2  A    between atoms: C_2  and  C_3
REMARK    3  A    between atoms: C_7  and  N_8
REMARK    4  A    between atoms: C_9  and  C_11
REMARK    5  A    between atoms: C_11  and  N_12
REMARK    6  A    between atoms: C_14  and  C_15
REMARK    7  A    between atoms: C_15  and  C_16
REMARK    8  A    between atoms: C_22  and  C_23
REMARK                            x       y       z     vdW  Elec       q    Type
REMARK                         _______ _______ _______ _____ _____    ______ ____
ROOT
ATOM      1  N   UNL     1       5.195   4.502  18.188  0.00  0.00    +0.000 N 
ATOM      2  N   UNL     1       4.432   3.537  17.516  0.00  0.00    +0.000 NA
ATOM      3  C   UNL     1       3.201   3.390  17.906  0.00  0.00    +0.000 A 
ATOM      4  N   UNL     1       2.589   4.519  18.642  0.00  0.00    +0.000 N 
ATOM      5  C   UNL     1       3.397   4.655  19.746  0.00  0.00    +0.000 A 
ATOM      6  C   UNL     1       2.267   4.840  20.503  0.00  0.00    +0.000 A 
ATOM      7  C   UNL     1       1.976   6.089  19.938  0.00  0.00    +0.000 A 
ATOM      8  C   UNL     1       1.567   7.195  20.753  0.00  0.00    +0.000 A 
ATOM      9  C   UNL     1       1.513   8.514  20.409  0.00  0.00    +0.000 A 
ATOM     10  C   UNL     1       1.090   9.516  21.457  0.00  0.00    +0.000 C 
ATOM     11  C   UNL     1       1.888   8.677  19.107  0.00  0.00    +0.000 A 
ATOM     12  C   UNL     1       2.196   7.504  18.229  0.00  0.00    +0.000 A 
ATOM     13  C   UNL     1       2.390   6.019  18.412  0.00  0.00    +0.000 A 
ATOM     14  C   UNL     1       4.708   5.196  19.330  0.00  0.00    +0.000 A 
ATOM     15  O   UNL     1       5.237   6.208  19.771  0.00  0.00    +0.000 OA
ENDROOT
BRANCH   3  16
ATOM     16  C   UNL     1       2.936   1.783  18.228  0.00  0.00    +0.000 C 
ATOM     17  C   UNL     1       3.865   0.698  18.840  0.00  0.00    +0.000 C 
ENDBRANCH   3  16
BRANCH   1  18
ATOM     18  C   UNL     1       6.531   4.756  17.639  0.00  0.00    +0.000 C 
BRANCH  18  20
ATOM     19  N   UNL     1       6.258   3.881  15.316  0.00  0.00    +0.000 N 
ATOM     20  C   UNL     1       6.548   4.989  16.111  0.00  0.00    +0.000 C 
ATOM     21  O   UNL     1       6.778   6.111  15.649  0.00  0.00    +0.000 OA
ATOM     22  H   UNL     1       6.029   3.008  15.775  0.00  0.00    +0.000 HD
BRANCH  19  27
ATOM     23  C   UNL     1       4.977   3.558  11.797  0.00  0.00    +0.000 A 
ATOM     24  C   UNL     1       6.120   3.857  11.067  0.00  0.00    +0.000 A 
ATOM     25  C   UNL     1       7.304   4.161  11.746  0.00  0.00    +0.000 A 
ATOM     26  C   UNL     1       7.349   4.165  13.145  0.00  0.00    +0.000 A 
ATOM     27  C   UNL     1       6.206   3.919  13.897  0.00  0.00    +0.000 A 
ATOM     28  C   UNL     1       5.023   3.648  13.199  0.00  0.00    +0.000 A 
BRANCH  23  30
ATOM     29  C   UNL     1       3.237   3.888  10.069  0.00  0.00    +0.000 C 
ATOM     30  C   UNL     1       3.725   2.977  11.194  0.00  0.00    +0.000 C 
ENDBRANCH  23  30
ENDBRANCH  19  27
ENDBRANCH  18  20
ENDBRANCH   1  18
TORSDOF 5
ENDMDL
MODEL 8
REMARK VINA RESULT:      -8.3      4.926      7.564
REMARK  Name = 
REMARK  8 active torsions:
REMARK  status: ('A' for Active; 'I' for Inactive)
REMARK    1  A    between atoms: C_1  and  C_2
REMARK    2  A    between atoms: C_2  and  C_3
REMARK    3  A    between atoms: C_7  and  N_8
REMARK    4  A    between atoms: C_9  and  C_11
REMARK    5  A    between atoms: C_11  and  N_12
REMARK    6  A    between atoms: C_14  and  C_15
REMARK    7  A    between atoms: C_15  and  C_16
REMARK    8  A    between atoms: C_22  and  C_23
REMARK                            x       y       z     vdW  Elec       q    Type
REMARK                         _______ _______ _______ _____ _____    ______ ____
ROOT
ATOM      1  N   UNL     1       2.541   6.374  19.788  0.00  0.00    +0.000 N 
ATOM      2  N   UNL     1       2.224   5.240  20.549  0.00  0.00    +0.000 NA
ATOM      3  C   UNL     1       2.401   4.086  19.978  0.00  0.00    +0.000 A 
ATOM      4  N   UNL     1       3.330   4.039  18.828  0.00  0.00    +0.000 N 
ATOM      5  C   UNL     1       2.762   4.905  17.923  0.00  0.00    +0.000 A 
ATOM      6  C   UNL     1       3.056   4.003  16.931  0.00  0.00    +0.000 A 
ATOM      7  C   UNL     1       4.439   4.210  17.022  0.00  0.00    +0.000 A 
ATOM      8  C   UNL     1       5.248   4.344  15.846  0.00  0.00    +0.000 A 
ATOM      9  C   UNL     1       6.528   4.810  15.757  0.00  0.00    +0.000 A 
ATOM     10  C   UNL     1       7.168   4.905  14.392  0.00  0.00    +0.000 C 
ATOM     11  C   UNL     1       6.999   5.129  16.998  0.00  0.00    +0.000 A 
ATOM     12  C   UNL     1       6.191   4.871  18.232  0.00  0.00    +0.000 A 
ATOM     13  C   UNL     1       4.776   4.454  18.549  0.00  0.00    +0.000 A 
ATOM     14  C   UNL     1       2.905   6.291  18.416  0.00  0.00    +0.000 A 
ATOM     15  O   UNL     1       3.430   7.216  17.809  0.00  0.00    +0.000 OA
ENDROOT
BRANCH   3  16
ATOM     16  C   UNL     1       0.996   3.210  20.109  0.00  0.00    +0.000 C 
ATOM     17  C   UNL     1       0.301   2.241  19.111  0.00  0.00    +0.000 C 
ENDBRANCH   3  16
BRANCH   1  18
ATOM     18  C   UNL     1       2.476   7.656  20.496  0.00  0.00    +0.000 C 
BRANCH  18  20
ATOM     19  N   UNL     1       1.291   9.326  19.065  0.00  0.00    +0.000 N 
ATOM     20  C   UNL     1       1.212   8.486  20.177  0.00  0.00    +0.000 C 
ATOM     21  O   UNL     1       0.193   8.371  20.865  0.00  0.00    +0.000 OA
ATOM     22  H   UNL     1       2.147   9.323  18.524  0.00  0.00    +0.000 HD
BRANCH  19  27
ATOM     23  C   UNL     1      -1.017  12.266  18.679  0.00  0.00    +0.000 A 
ATOM     24  C   UNL     1      -1.983  11.739  17.831  0.00  0.00    +0.000 A 
ATOM     25  C   UNL     1      -1.862  10.416  17.396  0.00  0.00    +0.000 A 
ATOM     26  C   UNL     1      -0.785   9.620  17.806  0.00  0.00    +0.000 A 
ATOM     27  C   UNL     1       0.220  10.141  18.613  0.00  0.00    +0.000 A 
ATOM     28  C   UNL     1       0.097  11.478  19.012  0.00  0.00    +0.000 A 
BRANCH  23  30
ATOM     29  C   UNL     1      -0.159  14.581  18.848  0.00  0.00    +0.000 C 
ATOM     30  C   UNL     1      -1.165  13.576  19.407  0.00  0.00    +0.000 C 
ENDBRANCH  23  30
ENDBRANCH  19  27
ENDBRANCH  18  20
ENDBRANCH   1  18
TORSDOF 5
ENDMDL
MODEL 9
REMARK VINA RESULT:      -8.1      5.987     10.166
REMARK  Name = 
REMARK  8 active torsions:
REMARK  status: ('A' for Active; 'I' for Inactive)
REMARK    1  A    between atoms: C_1  and  C_2
REMARK    2  A    between atoms: C_2  and  C_3
REMARK    3  A    between atoms: C_7  and  N_8
REMARK    4  A    between atoms: C_9  and  C_11
REMARK    5  A    between atoms: C_11  and  N_12
REMARK    6  A    between atoms: C_14  and  C_15
REMARK    7  A    between atoms: C_15  and  C_16
REMARK    8  A    between atoms: C_22  and  C_23
REMARK                            x       y       z     vdW  Elec       q    Type
REMARK                         _______ _______ _______ _____ _____    ______ ____
ROOT
ATOM      1  N   UNL     1       0.492  10.561  20.519  0.00  0.00    +0.000 N 
ATOM      2  N   UNL     1      -0.011   9.992  19.341  0.00  0.00    +0.000 NA
ATOM      3  C   UNL     1      -0.422  10.817  18.424  0.00  0.00    +0.000 A 
ATOM      4  N   UNL     1       0.097  12.201  18.483  0.00  0.00    +0.000 N 
ATOM      5  C   UNL     1      -0.326  12.649  19.712  0.00  0.00    +0.000 A 
ATOM      6  C   UNL     1      -0.648  13.847  19.124  0.00  0.00    +0.000 A 
ATOM      7  C   UNL     1       0.688  14.202  18.893  0.00  0.00    +0.000 A 
ATOM      8  C   UNL     1       1.159  15.530  19.157  0.00  0.00    +0.000 A 
ATOM      9  C   UNL     1       2.451  15.959  19.248  0.00  0.00    +0.000 A 
ATOM     10  C   UNL     1       2.708  17.409  19.584  0.00  0.00    +0.000 C 
ATOM     11  C   UNL     1       3.308  14.922  19.015  0.00  0.00    +0.000 A 
ATOM     12  C   UNL     1       2.807  13.567  18.620  0.00  0.00    +0.000 A 
ATOM     13  C   UNL     1       1.471  12.872  18.540  0.00  0.00    +0.000 A 
ATOM     14  C   UNL     1       0.436  11.959  20.773  0.00  0.00    +0.000 A 
ATOM     15  O   UNL     1       1.088  12.503  21.656  0.00  0.00    +0.000 OA
ENDROOT
BRANCH   3  16
ATOM     16  C   UNL     1      -1.966  10.392  17.984  0.00  0.00    +0.000 C 
ATOM     17  C   UNL     1      -2.555   9.968  16.610  0.00  0.00    +0.000 C 
ENDBRANCH   3  16
BRANCH   1  18
ATOM     18  C   UNL     1       1.086   9.623  21.477  0.00  0.00    +0.000 C 
BRANCH  18  20
ATOM     19  N   UNL     1       2.107   7.742  20.189  0.00  0.00    +0.000 N 
ATOM     20  C   UNL     1       1.057   8.149  21.013  0.00  0.00    +0.000 C 
ATOM     21  O   UNL     1       0.160   7.388  21.390  0.00  0.00    +0.000 OA
ATOM     22  H   UNL     1       2.830   8.415  19.967  0.00  0.00    +0.000 HD
BRANCH  19  27
ATOM     23  C   UNL     1       2.511   4.008  20.085  0.00  0.00    +0.000 A 
ATOM     24  C   UNL     1       2.675   3.793  18.723  0.00  0.00    +0.000 A 
ATOM     25  C   UNL     1       2.650   4.886  17.852  0.00  0.00    +0.000 A 
ATOM     26  C   UNL     1       2.467   6.187  18.336  0.00  0.00    +0.000 A 
ATOM     27  C   UNL     1       2.251   6.421  19.689  0.00  0.00    +0.000 A 
ATOM     28  C   UNL     1       2.247   5.310  20.541  0.00  0.00    +0.000 A 
BRANCH  23  30
ATOM     29  C   UNL     1       1.435   2.513  21.738  0.00  0.00    +0.000 C 
ATOM     30  C   UNL     1       2.766   2.958  21.136  0.00  0.00    +0.000 C 
ENDBRANCH  23  30
ENDBRANCH  19  27
ENDBRANCH  18  20
ENDBRANCH   1  18
TORSDOF 5
ENDMDL
