MODEL 1
REMARK VINA RESULT:      -5.6      0.000      0.000
REMARK  Name = 
REMARK  6 active torsions:
REMARK  status: ('A' for Active; 'I' for Inactive)
REMARK    1  A    between atoms: C_1  and  C_2
REMARK    2  A    between atoms: C_2  and  C_4
REMARK    3  A    between atoms: C_5  and  C_6
REMARK    4  A    between atoms: C_6  and  O_7
REMARK    5  A    between atoms: C_10  and  C_11
REMARK    6  A    between atoms: C_12  and  O_13
REMARK                            x       y       z     vdW  Elec       q    Type
REMARK                         _______ _______ _______ _____ _____    ______ ____
ROOT
ATOM      1  C   UNL     1       5.124   4.697  18.507  0.00  0.00    +0.000 A 
ATOM      2  C   UNL     1       4.359   5.645  17.803  0.00  0.00    +0.000 A 
ATOM      3  C   UNL     1       2.992   5.398  17.711  0.00  0.00    +0.000 A 
ATOM      4  N   UNL     1       2.366   4.312  18.218  0.00  0.00    +0.000 NA
ATOM      5  C   UNL     1       3.117   3.405  18.877  0.00  0.00    +0.000 A 
ATOM      6  C   UNL     1       2.371   2.224  19.424  0.00  0.00    +0.000 C 
ATOM      7  C   UNL     1       4.493   3.564  19.057  0.00  0.00    +0.000 A 
ENDROOT
BRANCH   1   9
ATOM      8  C   UNL     1       7.562   4.622  17.611  0.00  0.00    +0.000 C 
ATOM      9  C   UNL     1       6.586   4.912  18.726  0.00  0.00    +0.000 C 
ATOM     10  O   UNL     1       6.974   5.345  19.814  0.00  0.00    +0.000 OA
ENDBRANCH   1   9
BRANCH   7  11
ATOM     11  O   UNL     1       5.228   2.663  19.778  0.00  0.00    +0.000 OA
ATOM     12  H   UNL     1       5.481   1.903  19.231  0.00  0.00    +0.000 HD
ENDBRANCH   7  11
BRANCH   2  13
ATOM     13  C   UNL     1       4.873   6.928  17.209  0.00  0.00    +0.000 C 
BRANCH  13  14
ATOM     14  O   UNL     1       5.322   6.772  15.873  0.00  0.00    +0.000 OA
ATOM     15  H   UNL     1       5.243   7.666  15.475  0.00  0.00    +0.000 HD
ENDBRANCH  13  14
ENDBRANCH   2  13
TORSDOF 4
ENDMDL
MODEL 2
REMARK VINA RESULT:      -5.4      2.088      3.687
REMARK  Name = 
REMARK  6 active torsions:
REMARK  status: ('A' for Active; 'I' for Inactive)
REMARK    1  A    between atoms: C_1  and  C_2
REMARK    2  A    between atoms: C_2  and  C_4
REMARK    3  A    between atoms: C_5  and  C_6
REMARK    4  A    between atoms: C_6  and  O_7
REMARK    5  A    between atoms: C_10  and  C_11
REMARK    6  A    between atoms: C_12  and  O_13
REMARK                            x       y       z     vdW  Elec       q    Type
REMARK                         _______ _______ _______ _____ _____    ______ ____
ROOT
ATOM      1  C   UNL     1       4.380   4.218  18.507  0.00  0.00    +0.000 A 
ATOM      2  C   UNL     1       3.217   4.987  18.316  0.00  0.00    +0.000 A 
ATOM      3  C   UNL     1       3.395   6.266  17.795  0.00  0.00    +0.000 A 
ATOM      4  N   UNL     1       4.591   6.819  17.494  0.00  0.00    +0.000 NA
ATOM      5  C   UNL     1       5.697   6.073  17.698  0.00  0.00    +0.000 A 
ATOM      6  C   UNL     1       6.997   6.734  17.341  0.00  0.00    +0.000 C 
ATOM      7  C   UNL     1       5.637   4.766  18.188  0.00  0.00    +0.000 A 
ENDROOT
BRANCH   1   9
ATOM      8  C   UNL     1       3.605   1.765  18.135  0.00  0.00    +0.000 C 
ATOM      9  C   UNL     1       4.287   2.807  18.989  0.00  0.00    +0.000 C 
ATOM     10  O   UNL     1       4.789   2.509  20.076  0.00  0.00    +0.000 OA
ENDBRANCH   1   9
BRANCH   7  11
ATOM     11  O   UNL     1       6.764   4.006  18.334  0.00  0.00    +0.000 OA
ATOM     12  H   UNL     1       7.420   4.457  18.889  0.00  0.00    +0.000 HD
ENDBRANCH   7  11
BRANCH   2  13
ATOM     13  C   UNL     1       1.805   4.526  18.554  0.00  0.00    +0.000 C 
BRANCH  13  14
ATOM     14  O   UNL     1       1.136   4.168  17.355  0.00  0.00    +0.000 OA
ATOM     15  H   UNL     1       1.108   3.186  17.366  0.00  0.00    +0.000 HD
ENDBRANCH  13  14
ENDBRANCH   2  13
TORSDOF 4
ENDMDL
MODEL 3
REMARK VINA RESULT:      -5.4      1.817      2.238
REMARK  Name = 
REMARK  6 active torsions:
REMARK  status: ('A' for Active; 'I' for Inactive)
REMARK    1  A    between atoms: C_1  and  C_2
REMARK    2  A    between atoms: C_2  and  C_4
REMARK    3  A    between atoms: C_5  and  C_6
REMARK    4  A    between atoms: C_6  and  O_7
REMARK    5  A    between atoms: C_10  and  C_11
REMARK    6  A    between atoms: C_12  and  O_13
REMARK                            x       y       z     vdW  Elec       q    Type
REMARK                         _______ _______ _______ _____ _____    ______ ____
ROOT
ATOM      1  C   UNL     1       5.874   5.084  18.194  0.00  0.00    +0.000 A 
ATOM      2  C   UNL     1       6.057   4.501  16.927  0.00  0.00    +0.000 A 
ATOM      3  C   UNL     1       4.919   3.999  16.301  0.00  0.00    +0.000 A 
ATOM      4  N   UNL     1       3.676   4.009  16.833  0.00  0.00    +0.000 NA
ATOM      5  C   UNL     1       3.520   4.559  18.056  0.00  0.00    +0.000 A 
ATOM      6  C   UNL     1       2.120   4.548  18.595  0.00  0.00    +0.000 C 
ATOM      7  C   UNL     1       4.586   5.119  18.764  0.00  0.00    +0.000 A 
ENDROOT
BRANCH   1   9
ATOM      8  C   UNL     1       7.732   6.898  18.296  0.00  0.00    +0.000 C 
ATOM      9  C   UNL     1       7.020   5.717  18.912  0.00  0.00    +0.000 C 
ATOM     10  O   UNL     1       7.357   5.276  20.014  0.00  0.00    +0.000 OA
ENDBRANCH   1   9
BRANCH   7  11
ATOM     11  O   UNL     1       4.398   5.723  19.976  0.00  0.00    +0.000 OA
ATOM     12  H   UNL     1       3.994   6.598  19.871  0.00  0.00    +0.000 HD
ENDBRANCH   7  11
BRANCH   2  13
ATOM     13  C   UNL     1       7.352   4.437  16.164  0.00  0.00    +0.000 C 
BRANCH  13  14
ATOM     14  O   UNL     1       7.439   5.424  15.149  0.00  0.00    +0.000 OA
ATOM     15  H   UNL     1       6.509   5.690  14.977  0.00  0.00    +0.000 HD
ENDBRANCH  13  14
ENDBRANCH   2  13
TORSDOF 4
ENDMDL
MODEL 4
REMARK VINA RESULT:      -5.3      1.887      4.129
REMARK  Name = 
REMARK  6 active torsions:
REMARK  status: ('A' for Active; 'I' for Inactive)
REMARK    1  A    between atoms: C_1  and  C_2
REMARK    2  A    between atoms: C_2  and  C_4
REMARK    3  A    between atoms: C_5  and  C_6
REMARK    4  A    between atoms: C_6  and  O_7
REMARK    5  A    between atoms: C_10  and  C_11
REMARK    6  A    between atoms: C_12  and  O_13
REMARK                            x       y       z     vdW  Elec       q    Type
REMARK                         _______ _______ _______ _____ _____    ______ ____
ROOT
ATOM      1  C   UNL     1       3.810   3.753  19.327  0.00  0.00    +0.000 A 
ATOM      2  C   UNL     1       2.684   4.312  19.959  0.00  0.00    +0.000 A 
ATOM      3  C   UNL     1       2.402   5.643  19.665  0.00  0.00    +0.000 A 
ATOM      4  N   UNL     1       3.141   6.430  18.851  0.00  0.00    +0.000 NA
ATOM      5  C   UNL     1       4.226   5.882  18.264  0.00  0.00    +0.000 A 
ATOM      6  C   UNL     1       5.006   6.797  17.366  0.00  0.00    +0.000 C 
ATOM      7  C   UNL     1       4.588   4.548  18.462  0.00  0.00    +0.000 A 
ENDROOT
BRANCH   1   9
ATOM      8  C   UNL     1       3.531   1.268  18.621  0.00  0.00    +0.000 C 
ATOM      9  C   UNL     1       4.152   2.312  19.518  0.00  0.00    +0.000 C 
ATOM     10  O   UNL     1       4.957   1.996  20.398  0.00  0.00    +0.000 OA
ENDBRANCH   1   9
BRANCH   7  11
ATOM     11  O   UNL     1       5.659   3.995  17.814  0.00  0.00    +0.000 OA
ATOM     12  H   UNL     1       5.657   3.029  17.899  0.00  0.00    +0.000 HD
ENDBRANCH   7  11
BRANCH   2  13
ATOM     13  C   UNL     1       1.725   3.582  20.860  0.00  0.00    +0.000 C 
BRANCH  13  14
ATOM     14  O   UNL     1       2.248   3.375  22.162  0.00  0.00    +0.000 OA
ATOM     15  H   UNL     1       2.815   2.577  22.082  0.00  0.00    +0.000 HD
ENDBRANCH  13  14
ENDBRANCH   2  13
TORSDOF 4
ENDMDL
MODEL 5
REMARK VINA RESULT:      -5.3      2.043      2.185
REMARK  Name = 
REMARK  6 active torsions:
REMARK  status: ('A' for Active; 'I' for Inactive)
REMARK    1  A    between atoms: C_1  and  C_2
REMARK    2  A    between atoms: C_2  and  C_4
REMARK    3  A    between atoms: C_5  and  C_6
REMARK    4  A    between atoms: C_6  and  O_7
REMARK    5  A    between atoms: C_10  and  C_11
REMARK    6  A    between atoms: C_12  and  O_13
REMARK                            x       y       z     vdW  Elec       q    Type
REMARK                         _______ _______ _______ _____ _____    ______ ____
ROOT
ATOM      1  C   UNL     1       5.844   4.485  17.493  0.00  0.00    +0.000 A 
ATOM      2  C   UNL     1       5.076   4.241  16.340  0.00  0.00    +0.000 A 
ATOM      3  C   UNL     1       3.775   3.788  16.544  0.00  0.00    +0.000 A 
ATOM      4  N   UNL     1       3.220   3.544  17.752  0.00  0.00    +0.000 NA
ATOM      5  C   UNL     1       3.976   3.770  18.847  0.00  0.00    +0.000 A 
ATOM      6  C   UNL     1       3.309   3.489  20.161  0.00  0.00    +0.000 C 
ATOM      7  C   UNL     1       5.285   4.252  18.764  0.00  0.00    +0.000 A 
ENDROOT
BRANCH   1   9
ATOM      8  C   UNL     1       7.427   6.540  17.327  0.00  0.00    +0.000 C 
ATOM      9  C   UNL     1       7.224   5.044  17.381  0.00  0.00    +0.000 C 
ATOM     10  O   UNL     1       8.186   4.271  17.356  0.00  0.00    +0.000 OA
ENDBRANCH   1   9
BRANCH   7  11
ATOM     11  O   UNL     1       6.015   4.529  19.887  0.00  0.00    +0.000 OA
ATOM     12  H   UNL     1       5.593   5.226  20.414  0.00  0.00    +0.000 HD
ENDBRANCH   7  11
BRANCH   2  13
ATOM     13  C   UNL     1       5.508   4.492  14.922  0.00  0.00    +0.000 C 
BRANCH  13  14
ATOM     14  O   UNL     1       6.288   3.433  14.391  0.00  0.00    +0.000 OA
ATOM     15  H   UNL     1       7.166   3.834  14.208  0.00  0.00    +0.000 HD
ENDBRANCH  13  14
ENDBRANCH   2  13
TORSDOF 4
ENDMDL
MODEL 6
REMARK VINA RESULT:      -5.3      0.933      1.014
REMARK  Name = 
REMARK  6 active torsions:
REMARK  status: ('A' for Active; 'I' for Inactive)
REMARK    1  A    between atoms: C_1  and  C_2
REMARK    2  A    between atoms: C_2  and  C_4
REMARK    3  A    between atoms: C_5  and  C_6
REMARK    4  A    between atoms: C_6  and  O_7
REMARK    5  A    between atoms: C_10  and  C_11
REMARK    6  A    between atoms: C_12  and  O_13
REMARK                            x       y       z     vdW  Elec       q    Type
REMARK                         _______ _______ _______ _____ _____    ______ ____
ROOT
ATOM      1  C   UNL     1       5.107   4.788  18.201  0.00  0.00    +0.000 A 
ATOM      2  C   UNL     1       4.271   5.761  17.624  0.00  0.00    +0.000 A 
ATOM      3  C   UNL     1       2.904   5.622  17.852  0.00  0.00    +0.000 A 
ATOM      4  N   UNL     1       2.335   4.617  18.554  0.00  0.00    +0.000 NA
ATOM      5  C   UNL     1       3.151   3.684  19.088  0.00  0.00    +0.000 A 
ATOM      6  C   UNL     1       2.467   2.594  19.862  0.00  0.00    +0.000 C 
ATOM      7  C   UNL     1       4.540   3.738  18.948  0.00  0.00    +0.000 A 
ENDROOT
BRANCH   1   9
ATOM      8  C   UNL     1       7.386   5.605  19.145  0.00  0.00    +0.000 C 
ATOM      9  C   UNL     1       6.592   4.892  18.076  0.00  0.00    +0.000 C 
ATOM     10  O   UNL     1       7.152   4.374  17.107  0.00  0.00    +0.000 OA
ENDBRANCH   1   9
BRANCH   7  11
ATOM     11  O   UNL     1       5.354   2.815  19.545  0.00  0.00    +0.000 OA
ATOM     12  H   UNL     1       5.360   2.926  20.509  0.00  0.00    +0.000 HD
ENDBRANCH   7  11
BRANCH   2  13
ATOM     13  C   UNL     1       4.724   6.969  16.850  0.00  0.00    +0.000 C 
BRANCH  13  14
ATOM     14  O   UNL     1       5.329   6.629  15.612  0.00  0.00    +0.000 OA
ATOM     15  H   UNL     1       5.373   5.648  15.614  0.00  0.00    +0.000 HD
ENDBRANCH  13  14
ENDBRANCH   2  13
TORSDOF 4
ENDMDL
MODEL 7
REMARK VINA RESULT:      -5.2      2.083      3.864
REMARK  Name = 
REMARK  6 active torsions:
REMARK  status: ('A' for Active; 'I' for Inactive)
REMARK    1  A    between atoms: C_1  and  C_2
REMARK    2  A    between atoms: C_2  and  C_4
REMARK    3  A    between atoms: C_5  and  C_6
REMARK    4  A    between atoms: C_6  and  O_7
REMARK    5  A    between atoms: C_10  and  C_11
REMARK    6  A    between atoms: C_12  and  O_13
REMARK                            x       y       z     vdW  Elec       q    Type
REMARK                         _______ _______ _______ _____ _____    ______ ____
ROOT
ATOM      1  C   UNL     1       4.686   4.158  18.620  0.00  0.00    +0.000 A 
ATOM      2  C   UNL     1       4.003   4.085  17.392  0.00  0.00    +0.000 A 
ATOM      3  C   UNL     1       4.515   4.852  16.348  0.00  0.00    +0.000 A 
ATOM      4  N   UNL     1       5.586   5.671  16.442  0.00  0.00    +0.000 NA
ATOM      5  C   UNL     1       6.220   5.741  17.632  0.00  0.00    +0.000 A 
ATOM      6  C   UNL     1       7.405   6.660  17.679  0.00  0.00    +0.000 C 
ATOM      7  C   UNL     1       5.814   4.993  18.740  0.00  0.00    +0.000 A 
ENDROOT
BRANCH   1   9
ATOM      8  C   UNL     1       2.993   3.652  20.525  0.00  0.00    +0.000 C 
ATOM      9  C   UNL     1       4.260   3.315  19.776  0.00  0.00    +0.000 C 
ATOM     10  O   UNL     1       4.944   2.337  20.092  0.00  0.00    +0.000 OA
ENDBRANCH   1   9
BRANCH   7  11
ATOM     11  O   UNL     1       6.503   5.034  19.920  0.00  0.00    +0.000 OA
ATOM     12  H   UNL     1       6.997   5.865  20.007  0.00  0.00    +0.000 HD
ENDBRANCH   7  11
BRANCH   2  13
ATOM     13  C   UNL     1       2.824   3.202  17.089  0.00  0.00    +0.000 C 
BRANCH  13  14
ATOM     14  O   UNL     1       1.582   3.857  17.295  0.00  0.00    +0.000 OA
ATOM     15  H   UNL     1       1.095   3.744  16.450  0.00  0.00    +0.000 HD
ENDBRANCH  13  14
ENDBRANCH   2  13
TORSDOF 4
ENDMDL
MODEL 8
REMARK VINA RESULT:      -5.2      2.616      4.459
REMARK  Name = 
REMARK  6 active torsions:
REMARK  status: ('A' for Active; 'I' for Inactive)
REMARK    1  A    between atoms: C_1  and  C_2
REMARK    2  A    between atoms: C_2  and  C_4
REMARK    3  A    between atoms: C_5  and  C_6
REMARK    4  A    between atoms: C_6  and  O_7
REMARK    5  A    between atoms: C_10  and  C_11
REMARK    6  A    between atoms: C_12  and  O_13
REMARK                            x       y       z     vdW  Elec       q    Type
REMARK                         _______ _______ _______ _____ _____    ______ ____
ROOT
ATOM      1  C   UNL     1       3.093   3.626  19.387  0.00  0.00    +0.000 A 
ATOM      2  C   UNL     1       3.469   2.832  18.288  0.00  0.00    +0.000 A 
ATOM      3  C   UNL     1       3.926   3.507  17.159  0.00  0.00    +0.000 A 
ATOM      4  N   UNL     1       4.004   4.851  17.040  0.00  0.00    +0.000 NA
ATOM      5  C   UNL     1       3.625   5.598  18.098  0.00  0.00    +0.000 A 
ATOM      6  C   UNL     1       3.737   7.083  17.913  0.00  0.00    +0.000 C 
ATOM      7  C   UNL     1       3.177   5.029  19.292  0.00  0.00    +0.000 A 
ENDROOT
BRANCH   1   9
ATOM      8  C   UNL     1       1.194   2.945  21.025  0.00  0.00    +0.000 C 
ATOM      9  C   UNL     1       2.661   2.993  20.668  0.00  0.00    +0.000 C 
ATOM     10  O   UNL     1       3.513   2.498  21.412  0.00  0.00    +0.000 OA
ENDBRANCH   1   9
BRANCH   7  11
ATOM     11  O   UNL     1       2.852   5.801  20.373  0.00  0.00    +0.000 OA
ATOM     12  H   UNL     1       3.638   6.007  20.904  0.00  0.00    +0.000 HD
ENDBRANCH   7  11
BRANCH   2  13
ATOM     13  C   UNL     1       3.490   1.328  18.252  0.00  0.00    +0.000 C 
BRANCH  13  14
ATOM     14  O   UNL     1       4.560   0.777  19.002  0.00  0.00    +0.000 OA
ATOM     15  H   UNL     1       4.138   0.123  19.600  0.00  0.00    +0.000 HD
ENDBRANCH  13  14
ENDBRANCH   2  13
TORSDOF 4
ENDMDL
MODEL 9
REMARK VINA RESULT:      -5.2      2.459      4.062
REMARK  Name = 
REMARK  6 active torsions:
REMARK  status: ('A' for Active; 'I' for Inactive)
REMARK    1  A    between atoms: C_1  and  C_2
REMARK    2  A    between atoms: C_2  and  C_4
REMARK    3  A    between atoms: C_5  and  C_6
REMARK    4  A    between atoms: C_6  and  O_7
REMARK    5  A    between atoms: C_10  and  C_11
REMARK    6  A    between atoms: C_12  and  O_13
REMARK                            x       y       z     vdW  Elec       q    Type
REMARK                         _______ _______ _______ _____ _____    ______ ____
ROOT
ATOM      1  C   UNL     1       5.668   4.598  18.015  0.00  0.00    +0.000 A 
ATOM      2  C   UNL     1       6.830   5.369  18.205  0.00  0.00    +0.000 A 
ATOM      3  C   UNL     1       7.512   5.760  17.056  0.00  0.00    +0.000 A 
ATOM      4  N   UNL     1       7.156   5.430  15.794  0.00  0.00    +0.000 NA
ATOM      5  C   UNL     1       6.047   4.677  15.632  0.00  0.00    +0.000 A 
ATOM      6  C   UNL     1       5.696   4.345  14.211  0.00  0.00    +0.000 C 
ATOM      7  C   UNL     1       5.268   4.252  16.710  0.00  0.00    +0.000 A 
ENDROOT
BRANCH   1   9
ATOM      8  C   UNL     1       3.761   5.131  19.698  0.00  0.00    +0.000 C 
ATOM      9  C   UNL     1       4.827   4.194  19.181  0.00  0.00    +0.000 C 
ATOM     10  O   UNL     1       5.001   3.085  19.694  0.00  0.00    +0.000 OA
ENDBRANCH   1   9
BRANCH   7  11
ATOM     11  O   UNL     1       4.117   3.538  16.521  0.00  0.00    +0.000 OA
ATOM     12  H   UNL     1       3.978   2.904  17.241  0.00  0.00    +0.000 HD
ENDBRANCH   7  11
BRANCH   2  13
ATOM     13  C   UNL     1       7.354   5.865  19.525  0.00  0.00    +0.000 C 
BRANCH  13  14
ATOM     14  O   UNL     1       8.518   5.172  19.947  0.00  0.00    +0.000 OA
ATOM     15  H   UNL     1       8.949   5.775  20.592  0.00  0.00    +0.000 HD
ENDBRANCH  13  14
ENDBRANCH   2  13
TORSDOF 4
ENDMDL
