MODEL 1
REMARK VINA RESULT:      -7.2      0.000      0.000
REMARK  Name = 
REMARK  12 active torsions:
REMARK  status: ('A' for Active; 'I' for Inactive)
REMARK    1  A    between atoms: C_1  and  C_2
REMARK    2  A    between atoms: C_2  and  O_4
REMARK    3  A    between atoms: O_4  and  C_5
REMARK    4  A    between atoms: C_8  and  C_9
REMARK    5  A    between atoms: C_10  and  C_11
REMARK    6  A    between atoms: C_11  and  C_13
REMARK    7  A    between atoms: C_13  and  C_14
REMARK    8  A    between atoms: C_14  and  C_15
REMARK    9  A    between atoms: C_15  and  N_16
REMARK   10  A    between atoms: C_20  and  O_21
REMARK   11  A    between atoms: O_21  and  C_22
REMARK   12  A    between atoms: C_22  and  C_23
REMARK                            x       y       z     vdW  Elec       q    Type
REMARK                         _______ _______ _______ _____ _____    ______ ____
ROOT
ATOM      1  C   UNL     1       4.239   5.201  19.006  0.00  0.00    +0.000 A 
ATOM      2  C   UNL     1       4.544   6.036  17.924  0.00  0.00    +0.000 A 
ATOM      3  C   UNL     1       3.733   7.125  17.603  0.00  0.00    +0.000 A 
ATOM      4  C   UNL     1       2.600   7.418  18.364  0.00  0.00    +0.000 A 
ATOM      5  C   UNL     1       2.327   6.624  19.483  0.00  0.00    +0.000 A 
ATOM      6  C   UNL     1       3.143   5.523  19.806  0.00  0.00    +0.000 A 
ENDROOT
BRANCH   4   7
ATOM      7  C   UNL     1       1.749   8.575  18.058  0.00  0.00    +0.000 C 
ATOM      8  C   UNL     1       1.144   9.303  19.008  0.00  0.00    +0.000 C 
BRANCH   8   9
ATOM      9  C   UNL     1       0.261  10.449  18.647  0.00  0.00    +0.000 C 
ATOM     10  O   UNL     1      -0.546  10.364  17.727  0.00  0.00    +0.000 OA
BRANCH   9  11
ATOM     11  C   UNL     1       0.438  11.716  19.468  0.00  0.00    +0.000 C 
BRANCH  11  12
ATOM     12  C   UNL     1       0.420  11.463  20.975  0.00  0.00    +0.000 C 
BRANCH  12  13
ATOM     13  C   UNL     1      -0.749  12.157  21.672  0.00  0.00    +0.000 C 
BRANCH  13  14
ATOM     14  N   UNL     1      -0.760  11.755  23.082  0.00  0.00    +0.000 NA
ATOM     15  N   UNL     1      -0.256  10.643  23.323  0.00  0.00    +0.000 NA
ATOM     16  N   UNL     1       0.214   9.627  23.539  0.00  0.00    +0.000 NA
ENDBRANCH  13  14
ENDBRANCH  12  13
ENDBRANCH  11  12
ENDBRANCH   9  11
ENDBRANCH   8   9
ENDBRANCH   4   7
BRANCH   1  17
ATOM     17  O   UNL     1       5.134   4.169  19.329  0.00  0.00    +0.000 OA
BRANCH  17  19
ATOM     18  C   UNL     1       3.859   2.718  17.952  0.00  0.00    +0.000 C 
ATOM     19  C   UNL     1       4.665   2.852  19.211  0.00  0.00    +0.000 C 
ATOM     20  O   UNL     1       4.782   1.957  20.036  0.00  0.00    +0.000 OA
ENDBRANCH  17  19
ENDBRANCH   1  17
BRANCH   6  21
ATOM     21  O   UNL     1       2.711   4.891  21.008  0.00  0.00    +0.000 OA
BRANCH  21  22
ATOM     22  C   UNL     1       2.080   3.686  21.332  0.00  0.00    +0.000 C 
ATOM     23  C   UNL     1       0.947   3.472  20.360  0.00  0.00    +0.000 C 
ATOM     24  O   UNL     1       2.360   2.940  22.259  0.00  0.00    +0.000 OA
ENDBRANCH  21  22
ENDBRANCH   6  21
TORSDOF 10
ENDMDL
MODEL 2
REMARK VINA RESULT:      -7.2      6.170      8.437
REMARK  Name = 
REMARK  12 active torsions:
REMARK  status: ('A' for Active; 'I' for Inactive)
REMARK    1  A    between atoms: C_1  and  C_2
REMARK    2  A    between atoms: C_2  and  O_4
REMARK    3  A    between atoms: O_4  and  C_5
REMARK    4  A    between atoms: C_8  and  C_9
REMARK    5  A    between atoms: C_10  and  C_11
REMARK    6  A    between atoms: C_11  and  C_13
REMARK    7  A    between atoms: C_13  and  C_14
REMARK    8  A    between atoms: C_14  and  C_15
REMARK    9  A    between atoms: C_15  and  N_16
REMARK   10  A    between atoms: C_20  and  O_21
REMARK   11  A    between atoms: O_21  and  C_22
REMARK   12  A    between atoms: C_22  and  C_23
REMARK                            x       y       z     vdW  Elec       q    Type
REMARK                         _______ _______ _______ _____ _____    ______ ____
ROOT
ATOM      1  C   UNL     1       3.530   5.079  19.428  0.00  0.00    +0.000 A 
ATOM      2  C   UNL     1       3.078   6.016  18.490  0.00  0.00    +0.000 A 
ATOM      3  C   UNL     1       3.755   6.215  17.287  0.00  0.00    +0.000 A 
ATOM      4  C   UNL     1       4.898   5.474  16.981  0.00  0.00    +0.000 A 
ATOM      5  C   UNL     1       5.317   4.494  17.888  0.00  0.00    +0.000 A 
ATOM      6  C   UNL     1       4.636   4.294  19.104  0.00  0.00    +0.000 A 
ENDROOT
BRANCH   4   7
ATOM      7  C   UNL     1       5.610   5.652  15.709  0.00  0.00    +0.000 C 
ATOM      8  C   UNL     1       6.195   4.637  15.057  0.00  0.00    +0.000 C 
BRANCH   8   9
ATOM      9  C   UNL     1       6.936   4.870  13.785  0.00  0.00    +0.000 C 
ATOM     10  O   UNL     1       8.047   5.393  13.784  0.00  0.00    +0.000 OA
BRANCH   9  11
ATOM     11  C   UNL     1       6.228   4.445  12.508  0.00  0.00    +0.000 C 
BRANCH  11  12
ATOM     12  C   UNL     1       6.413   2.964  12.184  0.00  0.00    +0.000 C 
BRANCH  12  13
ATOM     13  C   UNL     1       5.244   2.388  11.387  0.00  0.00    +0.000 C 
BRANCH  13  14
ATOM     14  N   UNL     1       4.120   3.329  11.457  0.00  0.00    +0.000 NA
ATOM     15  N   UNL     1       3.488   3.484  10.397  0.00  0.00    +0.000 NA
ATOM     16  N   UNL     1       2.910   3.617   9.424  0.00  0.00    +0.000 NA
ENDBRANCH  13  14
ENDBRANCH  12  13
ENDBRANCH  11  12
ENDBRANCH   9  11
ENDBRANCH   8   9
ENDBRANCH   4   7
BRANCH   1  17
ATOM     17  O   UNL     1       2.764   4.866  20.584  0.00  0.00    +0.000 OA
BRANCH  17  19
ATOM     18  C   UNL     1       1.706   3.090  21.748  0.00  0.00    +0.000 C 
ATOM     19  C   UNL     1       1.724   3.927  20.502  0.00  0.00    +0.000 C 
ATOM     20  O   UNL     1       0.997   3.722  19.541  0.00  0.00    +0.000 OA
ENDBRANCH  17  19
ENDBRANCH   1  17
BRANCH   6  21
ATOM     21  O   UNL     1       5.202   3.217  19.845  0.00  0.00    +0.000 OA
BRANCH  21  22
ATOM     22  C   UNL     1       4.838   1.896  20.122  0.00  0.00    +0.000 C 
ATOM     23  C   UNL     1       3.883   1.436  19.051  0.00  0.00    +0.000 C 
ATOM     24  O   UNL     1       5.195   1.224  21.080  0.00  0.00    +0.000 OA
ENDBRANCH  21  22
ENDBRANCH   6  21
TORSDOF 10
ENDMDL
MODEL 3
REMARK VINA RESULT:      -7.1      3.452      3.920
REMARK  Name = 
REMARK  12 active torsions:
REMARK  status: ('A' for Active; 'I' for Inactive)
REMARK    1  A    between atoms: C_1  and  C_2
REMARK    2  A    between atoms: C_2  and  O_4
REMARK    3  A    between atoms: O_4  and  C_5
REMARK    4  A    between atoms: C_8  and  C_9
REMARK    5  A    between atoms: C_10  and  C_11
REMARK    6  A    between atoms: C_11  and  C_13
REMARK    7  A    between atoms: C_13  and  C_14
REMARK    8  A    between atoms: C_14  and  C_15
REMARK    9  A    between atoms: C_15  and  N_16
REMARK   10  A    between atoms: C_20  and  O_21
REMARK   11  A    between atoms: O_21  and  C_22
REMARK   12  A    between atoms: C_22  and  C_23
REMARK                            x       y       z     vdW  Elec       q    Type
REMARK                         _______ _______ _______ _____ _____    ______ ____
ROOT
ATOM      1  C   UNL     1       4.268   5.230  17.436  0.00  0.00    +0.000 A 
ATOM      2  C   UNL     1       4.466   6.551  17.015  0.00  0.00    +0.000 A 
ATOM      3  C   UNL     1       3.639   7.582  17.462  0.00  0.00    +0.000 A 
ATOM      4  C   UNL     1       2.596   7.322  18.353  0.00  0.00    +0.000 A 
ATOM      5  C   UNL     1       2.434   6.014  18.823  0.00  0.00    +0.000 A 
ATOM      6  C   UNL     1       3.266   4.973  18.371  0.00  0.00    +0.000 A 
ENDROOT
BRANCH   4   7
ATOM      7  C   UNL     1       1.731   8.397  18.854  0.00  0.00    +0.000 C 
ATOM      8  C   UNL     1       1.491   9.519  18.160  0.00  0.00    +0.000 C 
BRANCH   8   9
ATOM      9  C   UNL     1       0.633  10.600  18.723  0.00  0.00    +0.000 C 
ATOM     10  O   UNL     1       1.120  11.649  19.133  0.00  0.00    +0.000 OA
BRANCH   9  11
ATOM     11  C   UNL     1      -0.859  10.313  18.776  0.00  0.00    +0.000 C 
BRANCH  11  12
ATOM     12  C   UNL     1      -1.485  10.133  17.394  0.00  0.00    +0.000 C 
BRANCH  12  13
ATOM     13  C   UNL     1      -2.512  11.216  17.070  0.00  0.00    +0.000 C 
BRANCH  13  14
ATOM     14  N   UNL     1      -3.548  10.637  16.206  0.00  0.00    +0.000 NA
ATOM     15  N   UNL     1      -3.179  10.347  15.054  0.00  0.00    +0.000 NA
ATOM     16  N   UNL     1      -2.834  10.076  14.002  0.00  0.00    +0.000 NA
ENDBRANCH  13  14
ENDBRANCH  12  13
ENDBRANCH  11  12
ENDBRANCH   9  11
ENDBRANCH   8   9
ENDBRANCH   4   7
BRANCH   1  17
ATOM     17  O   UNL     1       5.180   4.250  17.016  0.00  0.00    +0.000 OA
BRANCH  17  19
ATOM     18  C   UNL     1       7.315   4.552  16.028  0.00  0.00    +0.000 C 
ATOM     19  C   UNL     1       6.536   4.465  17.308  0.00  0.00    +0.000 C 
ATOM     20  O   UNL     1       7.053   4.475  18.416  0.00  0.00    +0.000 OA
ENDBRANCH  17  19
ENDBRANCH   1  17
BRANCH   6  21
ATOM     21  O   UNL     1       2.957   3.742  19.017  0.00  0.00    +0.000 OA
BRANCH  21  22
ATOM     22  C   UNL     1       3.548   2.960  20.013  0.00  0.00    +0.000 C 
ATOM     23  C   UNL     1       2.589   2.870  21.173  0.00  0.00    +0.000 C 
ATOM     24  O   UNL     1       4.662   2.456  19.984  0.00  0.00    +0.000 OA
ENDBRANCH  21  22
ENDBRANCH   6  21
TORSDOF 10
ENDMDL
MODEL 4
REMARK VINA RESULT:      -7.1      4.844      6.853
REMARK  Name = 
REMARK  12 active torsions:
REMARK  status: ('A' for Active; 'I' for Inactive)
REMARK    1  A    between atoms: C_1  and  C_2
REMARK    2  A    between atoms: C_2  and  O_4
REMARK    3  A    between atoms: O_4  and  C_5
REMARK    4  A    between atoms: C_8  and  C_9
REMARK    5  A    between atoms: C_10  and  C_11
REMARK    6  A    between atoms: C_11  and  C_13
REMARK    7  A    between atoms: C_13  and  C_14
REMARK    8  A    between atoms: C_14  and  C_15
REMARK    9  A    between atoms: C_15  and  N_16
REMARK   10  A    between atoms: C_20  and  O_21
REMARK   11  A    between atoms: O_21  and  C_22
REMARK   12  A    between atoms: C_22  and  C_23
REMARK                            x       y       z     vdW  Elec       q    Type
REMARK                         _______ _______ _______ _____ _____    ______ ____
ROOT
ATOM      1  C   UNL     1       6.548   4.908  15.714  0.00  0.00    +0.000 A 
ATOM      2  C   UNL     1       5.501   3.979  15.695  0.00  0.00    +0.000 A 
ATOM      3  C   UNL     1       4.380   4.139  16.510  0.00  0.00    +0.000 A 
ATOM      4  C   UNL     1       4.270   5.241  17.360  0.00  0.00    +0.000 A 
ATOM      5  C   UNL     1       5.285   6.203  17.336  0.00  0.00    +0.000 A 
ATOM      6  C   UNL     1       6.418   6.041  16.516  0.00  0.00    +0.000 A 
ENDROOT
BRANCH   4   7
ATOM      7  C   UNL     1       3.087   5.440  18.207  0.00  0.00    +0.000 C 
ATOM      8  C   UNL     1       3.153   5.987  19.430  0.00  0.00    +0.000 C 
BRANCH   8   9
ATOM      9  C   UNL     1       1.930   6.137  20.268  0.00  0.00    +0.000 C 
ATOM     10  O   UNL     1       1.583   7.235  20.693  0.00  0.00    +0.000 OA
BRANCH   9  11
ATOM     11  C   UNL     1       1.165   4.860  20.575  0.00  0.00    +0.000 C 
BRANCH  11  12
ATOM     12  C   UNL     1       1.985   3.846  21.371  0.00  0.00    +0.000 C 
BRANCH  12  13
ATOM     13  C   UNL     1       1.561   2.404  21.096  0.00  0.00    +0.000 C 
BRANCH  13  14
ATOM     14  N   UNL     1       1.509   2.198  19.645  0.00  0.00    +0.000 NA
ATOM     15  N   UNL     1       2.575   1.832  19.120  0.00  0.00    +0.000 NA
ATOM     16  N   UNL     1       3.554   1.490  18.646  0.00  0.00    +0.000 NA
ENDBRANCH  13  14
ENDBRANCH  12  13
ENDBRANCH  11  12
ENDBRANCH   9  11
ENDBRANCH   8   9
ENDBRANCH   4   7
BRANCH   1  17
ATOM     17  O   UNL     1       7.612   4.736  14.815  0.00  0.00    +0.000 OA
BRANCH  17  19
ATOM     18  C   UNL     1       8.065   5.647  12.672  0.00  0.00    +0.000 C 
ATOM     19  C   UNL     1       7.292   4.624  13.453  0.00  0.00    +0.000 C 
ATOM     20  O   UNL     1       6.443   3.897  12.958  0.00  0.00    +0.000 OA
ENDBRANCH  17  19
ENDBRANCH   1  17
BRANCH   6  21
ATOM     21  O   UNL     1       7.295   7.160  16.613  0.00  0.00    +0.000 OA
BRANCH  21  22
ATOM     22  C   UNL     1       7.798   7.948  17.651  0.00  0.00    +0.000 C 
ATOM     23  C   UNL     1       8.276   7.030  18.749  0.00  0.00    +0.000 C 
ATOM     24  O   UNL     1       7.825   9.170  17.697  0.00  0.00    +0.000 OA
ENDBRANCH  21  22
ENDBRANCH   6  21
TORSDOF 10
ENDMDL
MODEL 5
REMARK VINA RESULT:      -7.0      2.064      2.509
REMARK  Name = 
REMARK  12 active torsions:
REMARK  status: ('A' for Active; 'I' for Inactive)
REMARK    1  A    between atoms: C_1  and  C_2
REMARK    2  A    between atoms: C_2  and  O_4
REMARK    3  A    between atoms: O_4  and  C_5
REMARK    4  A    between atoms: C_8  and  C_9
REMARK    5  A    between atoms: C_10  and  C_11
REMARK    6  A    between atoms: C_11  and  C_13
REMARK    7  A    between atoms: C_13  and  C_14
REMARK    8  A    between atoms: C_14  and  C_15
REMARK    9  A    between atoms: C_15  and  N_16
REMARK   10  A    between atoms: C_20  and  O_21
REMARK   11  A    between atoms: O_21  and  C_22
REMARK   12  A    between atoms: C_22  and  C_23
REMARK                            x       y       z     vdW  Elec       q    Type
REMARK                         _______ _______ _______ _____ _____    ______ ____
ROOT
ATOM      1  C   UNL     1       4.485   4.958  17.002  0.00  0.00    +0.000 A 
ATOM      2  C   UNL     1       4.982   6.260  17.135  0.00  0.00    +0.000 A 
ATOM      3  C   UNL     1       4.172   7.296  17.602  0.00  0.00    +0.000 A 
ATOM      4  C   UNL     1       2.844   7.056  17.962  0.00  0.00    +0.000 A 
ATOM      5  C   UNL     1       2.364   5.744  17.888  0.00  0.00    +0.000 A 
ATOM      6  C   UNL     1       3.178   4.699  17.414  0.00  0.00    +0.000 A 
ENDROOT
BRANCH   4   7
ATOM      7  C   UNL     1       1.985   8.127  18.480  0.00  0.00    +0.000 C 
ATOM      8  C   UNL     1       2.143   9.414  18.137  0.00  0.00    +0.000 C 
BRANCH   8   9
ATOM      9  C   UNL     1       1.267  10.473  18.715  0.00  0.00    +0.000 C 
ATOM     10  O   UNL     1       1.146  11.565  18.168  0.00  0.00    +0.000 OA
BRANCH   9  11
ATOM     11  C   UNL     1       0.563  10.125  20.016  0.00  0.00    +0.000 C 
BRANCH  11  12
ATOM     12  C   UNL     1       0.399  11.323  20.950  0.00  0.00    +0.000 C 
BRANCH  12  13
ATOM     13  C   UNL     1      -1.003  11.410  21.551  0.00  0.00    +0.000 C 
BRANCH  13  14
ATOM     14  N   UNL     1      -0.891  11.351  23.013  0.00  0.00    +0.000 NA
ATOM     15  N   UNL     1      -0.251  10.382  23.459  0.00  0.00    +0.000 NA
ATOM     16  N   UNL     1       0.342   9.495  23.861  0.00  0.00    +0.000 NA
ENDBRANCH  13  14
ENDBRANCH  12  13
ENDBRANCH  11  12
ENDBRANCH   9  11
ENDBRANCH   8   9
ENDBRANCH   4   7
BRANCH   1  17
ATOM     17  O   UNL     1       5.368   3.943  16.602  0.00  0.00    +0.000 OA
BRANCH  17  19
ATOM     18  C   UNL     1       5.887   4.246  14.308  0.00  0.00    +0.000 C 
ATOM     19  C   UNL     1       6.398   4.297  15.718  0.00  0.00    +0.000 C 
ATOM     20  O   UNL     1       7.567   4.513  16.006  0.00  0.00    +0.000 OA
ENDBRANCH  17  19
ENDBRANCH   1  17
BRANCH   6  21
ATOM     21  O   UNL     1       2.504   3.445  17.474  0.00  0.00    +0.000 OA
BRANCH  21  22
ATOM     22  C   UNL     1       2.253   2.492  18.464  0.00  0.00    +0.000 C 
ATOM     23  C   UNL     1       3.535   1.745  18.734  0.00  0.00    +0.000 C 
ATOM     24  O   UNL     1       1.181   2.264  19.006  0.00  0.00    +0.000 OA
ENDBRANCH  21  22
ENDBRANCH   6  21
TORSDOF 10
ENDMDL
MODEL 6
REMARK VINA RESULT:      -7.0      4.799      8.367
REMARK  Name = 
REMARK  12 active torsions:
REMARK  status: ('A' for Active; 'I' for Inactive)
REMARK    1  A    between atoms: C_1  and  C_2
REMARK    2  A    between atoms: C_2  and  O_4
REMARK    3  A    between atoms: O_4  and  C_5
REMARK    4  A    between atoms: C_8  and  C_9
REMARK    5  A    between atoms: C_10  and  C_11
REMARK    6  A    between atoms: C_11  and  C_13
REMARK    7  A    between atoms: C_13  and  C_14
REMARK    8  A    between atoms: C_14  and  C_15
REMARK    9  A    between atoms: C_15  and  N_16
REMARK   10  A    between atoms: C_20  and  O_21
REMARK   11  A    between atoms: O_21  and  C_22
REMARK   12  A    between atoms: C_22  and  C_23
REMARK                            x       y       z     vdW  Elec       q    Type
REMARK                         _______ _______ _______ _____ _____    ______ ____
ROOT
ATOM      1  C   UNL     1       1.064   9.895  19.055  0.00  0.00    +0.000 A 
ATOM      2  C   UNL     1       1.559   9.342  17.869  0.00  0.00    +0.000 A 
ATOM      3  C   UNL     1       2.192   8.099  17.862  0.00  0.00    +0.000 A 
ATOM      4  C   UNL     1       2.335   7.366  19.042  0.00  0.00    +0.000 A 
ATOM      5  C   UNL     1       1.786   7.887  20.218  0.00  0.00    +0.000 A 
ATOM      6  C   UNL     1       1.151   9.143  20.227  0.00  0.00    +0.000 A 
ENDROOT
BRANCH   4   7
ATOM      7  C   UNL     1       2.974   6.044  19.050  0.00  0.00    +0.000 C 
ATOM      8  C   UNL     1       2.815   5.154  18.060  0.00  0.00    +0.000 C 
BRANCH   8   9
ATOM      9  C   UNL     1       3.456   3.810  18.128  0.00  0.00    +0.000 C 
ATOM     10  O   UNL     1       3.239   3.050  19.066  0.00  0.00    +0.000 OA
BRANCH   9  11
ATOM     11  C   UNL     1       4.398   3.458  16.987  0.00  0.00    +0.000 C 
BRANCH  11  12
ATOM     12  C   UNL     1       5.206   4.653  16.485  0.00  0.00    +0.000 C 
BRANCH  12  13
ATOM     13  C   UNL     1       6.648   4.283  16.141  0.00  0.00    +0.000 C 
BRANCH  13  14
ATOM     14  N   UNL     1       7.360   5.499  15.735  0.00  0.00    +0.000 NA
ATOM     15  N   UNL     1       7.714   5.537  14.543  0.00  0.00    +0.000 NA
ATOM     16  N   UNL     1       8.029   5.568  13.448  0.00  0.00    +0.000 NA
ENDBRANCH  13  14
ENDBRANCH  12  13
ENDBRANCH  11  12
ENDBRANCH   9  11
ENDBRANCH   8   9
ENDBRANCH   4   7
BRANCH   1  17
ATOM     17  O   UNL     1       0.368  11.112  18.988  0.00  0.00    +0.000 OA
BRANCH  17  19
ATOM     18  C   UNL     1      -1.397  12.462  18.157  0.00  0.00    +0.000 C 
ATOM     19  C   UNL     1      -0.952  11.073  18.512  0.00  0.00    +0.000 C 
ATOM     20  O   UNL     1      -1.690  10.098  18.481  0.00  0.00    +0.000 OA
ENDBRANCH  17  19
ENDBRANCH   1  17
BRANCH   6  21
ATOM     21  O   UNL     1       0.624   9.451  21.514  0.00  0.00    +0.000 OA
BRANCH  21  22
ATOM     22  C   UNL     1       0.111  10.592  22.137  0.00  0.00    +0.000 C 
ATOM     23  C   UNL     1      -0.973  10.160  23.092  0.00  0.00    +0.000 C 
ATOM     24  O   UNL     1       0.446  11.751  21.933  0.00  0.00    +0.000 OA
ENDBRANCH  21  22
ENDBRANCH   6  21
TORSDOF 10
ENDMDL
MODEL 7
REMARK VINA RESULT:      -7.0      3.325      7.385
REMARK  Name = 
REMARK  12 active torsions:
REMARK  status: ('A' for Active; 'I' for Inactive)
REMARK    1  A    between atoms: C_1  and  C_2
REMARK    2  A    between atoms: C_2  and  O_4
REMARK    3  A    between atoms: O_4  and  C_5
REMARK    4  A    between atoms: C_8  and  C_9
REMARK    5  A    between atoms: C_10  and  C_11
REMARK    6  A    between atoms: C_11  and  C_13
REMARK    7  A    between atoms: C_13  and  C_14
REMARK    8  A    between atoms: C_14  and  C_15
REMARK    9  A    between atoms: C_15  and  N_16
REMARK   10  A    between atoms: C_20  and  O_21
REMARK   11  A    between atoms: O_21  and  C_22
REMARK   12  A    between atoms: C_22  and  C_23
REMARK                            x       y       z     vdW  Elec       q    Type
REMARK                         _______ _______ _______ _____ _____    ______ ____
ROOT
ATOM      1  C   UNL     1       1.159   9.833  18.882  0.00  0.00    +0.000 A 
ATOM      2  C   UNL     1       1.925   9.381  17.801  0.00  0.00    +0.000 A 
ATOM      3  C   UNL     1       2.644   8.188  17.876  0.00  0.00    +0.000 A 
ATOM      4  C   UNL     1       2.605   7.404  19.031  0.00  0.00    +0.000 A 
ATOM      5  C   UNL     1       1.792   7.821  20.090  0.00  0.00    +0.000 A 
ATOM      6  C   UNL     1       1.069   9.027  20.017  0.00  0.00    +0.000 A 
ENDROOT
BRANCH   4   7
ATOM      7  C   UNL     1       3.334   6.133  19.119  0.00  0.00    +0.000 C 
ATOM      8  C   UNL     1       4.155   5.698  18.151  0.00  0.00    +0.000 C 
BRANCH   8   9
ATOM      9  C   UNL     1       4.847   4.383  18.269  0.00  0.00    +0.000 C 
ATOM     10  O   UNL     1       5.852   4.254  18.961  0.00  0.00    +0.000 OA
BRANCH   9  11
ATOM     11  C   UNL     1       4.249   3.236  17.469  0.00  0.00    +0.000 C 
BRANCH  11  12
ATOM     12  C   UNL     1       2.725   3.296  17.382  0.00  0.00    +0.000 C 
BRANCH  12  13
ATOM     13  C   UNL     1       2.054   2.070  17.997  0.00  0.00    +0.000 C 
BRANCH  13  14
ATOM     14  N   UNL     1       2.123   2.181  19.458  0.00  0.00    +0.000 NA
ATOM     15  N   UNL     1       1.472   3.119  19.953  0.00  0.00    +0.000 NA
ATOM     16  N   UNL     1       0.868   3.975  20.401  0.00  0.00    +0.000 NA
ENDBRANCH  13  14
ENDBRANCH  12  13
ENDBRANCH  11  12
ENDBRANCH   9  11
ENDBRANCH   8   9
ENDBRANCH   4   7
BRANCH   1  17
ATOM     17  O   UNL     1       0.395  10.999  18.721  0.00  0.00    +0.000 OA
BRANCH  17  19
ATOM     18  C   UNL     1      -1.489  10.141  17.564  0.00  0.00    +0.000 C 
ATOM     19  C   UNL     1      -1.001  10.868  18.783  0.00  0.00    +0.000 C 
ATOM     20  O   UNL     1      -1.745  11.351  19.625  0.00  0.00    +0.000 OA
ENDBRANCH  17  19
ENDBRANCH   1  17
BRANCH   6  21
ATOM     21  O   UNL     1       0.271   9.226  21.181  0.00  0.00    +0.000 OA
BRANCH  21  22
ATOM     22  C   UNL     1       0.515   9.584  22.510  0.00  0.00    +0.000 C 
ATOM     23  C   UNL     1      -0.768  10.114  23.098  0.00  0.00    +0.000 C 
ATOM     24  O   UNL     1       1.584   9.518  23.101  0.00  0.00    +0.000 OA
ENDBRANCH  21  22
ENDBRANCH   6  21
TORSDOF 10
ENDMDL
MODEL 8
REMARK VINA RESULT:      -7.0      4.631      8.181
REMARK  Name = 
REMARK  12 active torsions:
REMARK  status: ('A' for Active; 'I' for Inactive)
REMARK    1  A    between atoms: C_1  and  C_2
REMARK    2  A    between atoms: C_2  and  O_4
REMARK    3  A    between atoms: O_4  and  C_5
REMARK    4  A    between atoms: C_8  and  C_9
REMARK    5  A    between atoms: C_10  and  C_11
REMARK    6  A    between atoms: C_11  and  C_13
REMARK    7  A    between atoms: C_13  and  C_14
REMARK    8  A    between atoms: C_14  and  C_15
REMARK    9  A    between atoms: C_15  and  N_16
REMARK   10  A    between atoms: C_20  and  O_21
REMARK   11  A    between atoms: O_21  and  C_22
REMARK   12  A    between atoms: C_22  and  C_23
REMARK                            x       y       z     vdW  Elec       q    Type
REMARK                         _______ _______ _______ _____ _____    ______ ____
ROOT
ATOM      1  C   UNL     1      -0.195  10.174  19.370  0.00  0.00    +0.000 A 
ATOM      2  C   UNL     1       0.458   9.984  18.146  0.00  0.00    +0.000 A 
ATOM      3  C   UNL     1       1.484   9.048  18.014  0.00  0.00    +0.000 A 
ATOM      4  C   UNL     1       1.878   8.266  19.101  0.00  0.00    +0.000 A 
ATOM      5  C   UNL     1       1.187   8.410  20.309  0.00  0.00    +0.000 A 
ATOM      6  C   UNL     1       0.154   9.356  20.444  0.00  0.00    +0.000 A 
ENDROOT
BRANCH   4   7
ATOM      7  C   UNL     1       2.938   7.258  18.975  0.00  0.00    +0.000 C 
ATOM      8  C   UNL     1       2.778   6.118  18.287  0.00  0.00    +0.000 C 
BRANCH   8   9
ATOM      9  C   UNL     1       3.871   5.107  18.215  0.00  0.00    +0.000 C 
ATOM     10  O   UNL     1       4.306   4.568  19.228  0.00  0.00    +0.000 OA
BRANCH   9  11
ATOM     11  C   UNL     1       4.418   4.808  16.828  0.00  0.00    +0.000 C 
BRANCH  11  12
ATOM     12  C   UNL     1       5.089   6.014  16.174  0.00  0.00    +0.000 C 
BRANCH  12  13
ATOM     13  C   UNL     1       6.181   6.624  17.051  0.00  0.00    +0.000 C 
BRANCH  13  14
ATOM     14  N   UNL     1       7.485   6.147  16.575  0.00  0.00    +0.000 NA
ATOM     15  N   UNL     1       7.502   5.719  15.407  0.00  0.00    +0.000 NA
ATOM     16  N   UNL     1       7.513   5.334  14.335  0.00  0.00    +0.000 NA
ENDBRANCH  13  14
ENDBRANCH  12  13
ENDBRANCH  11  12
ENDBRANCH   9  11
ENDBRANCH   8   9
ENDBRANCH   4   7
BRANCH   1  17
ATOM     17  O   UNL     1      -1.271  11.073  19.423  0.00  0.00    +0.000 OA
BRANCH  17  19
ATOM     18  C   UNL     1      -2.527  11.463  17.448  0.00  0.00    +0.000 C 
ATOM     19  C   UNL     1      -1.426  11.955  18.342  0.00  0.00    +0.000 C 
ATOM     20  O   UNL     1      -0.724  12.921  18.079  0.00  0.00    +0.000 OA
ENDBRANCH  17  19
ENDBRANCH   1  17
BRANCH   6  21
ATOM     21  O   UNL     1      -0.441   9.295  21.737  0.00  0.00    +0.000 OA
BRANCH  21  22
ATOM     22  C   UNL     1      -0.270   9.970  22.949  0.00  0.00    +0.000 C 
ATOM     23  C   UNL     1      -1.192  11.163  22.958  0.00  0.00    +0.000 C 
ATOM     24  O   UNL     1       0.511   9.679  23.845  0.00  0.00    +0.000 OA
ENDBRANCH  21  22
ENDBRANCH   6  21
TORSDOF 10
ENDMDL
MODEL 9
REMARK VINA RESULT:      -6.9      3.243      4.314
REMARK  Name = 
REMARK  12 active torsions:
REMARK  status: ('A' for Active; 'I' for Inactive)
REMARK    1  A    between atoms: C_1  and  C_2
REMARK    2  A    between atoms: C_2  and  O_4
REMARK    3  A    between atoms: O_4  and  C_5
REMARK    4  A    between atoms: C_8  and  C_9
REMARK    5  A    between atoms: C_10  and  C_11
REMARK    6  A    between atoms: C_11  and  C_13
REMARK    7  A    between atoms: C_13  and  C_14
REMARK    8  A    between atoms: C_14  and  C_15
REMARK    9  A    between atoms: C_15  and  N_16
REMARK   10  A    between atoms: C_20  and  O_21
REMARK   11  A    between atoms: O_21  and  C_22
REMARK   12  A    between atoms: C_22  and  C_23
REMARK                            x       y       z     vdW  Elec       q    Type
REMARK                         _______ _______ _______ _____ _____    ______ ____
ROOT
ATOM      1  C   UNL     1       4.100   4.641  17.920  0.00  0.00    +0.000 A 
ATOM      2  C   UNL     1       2.719   4.732  18.127  0.00  0.00    +0.000 A 
ATOM      3  C   UNL     1       2.066   5.965  18.108  0.00  0.00    +0.000 A 
ATOM      4  C   UNL     1       2.776   7.142  17.867  0.00  0.00    +0.000 A 
ATOM      5  C   UNL     1       4.146   7.049  17.599  0.00  0.00    +0.000 A 
ATOM      6  C   UNL     1       4.806   5.806  17.622  0.00  0.00    +0.000 A 
ENDROOT
BRANCH   4   7
ATOM      7  C   UNL     1       2.103   8.446  17.817  0.00  0.00    +0.000 C 
ATOM      8  C   UNL     1       1.560   9.025  18.898  0.00  0.00    +0.000 C 
BRANCH   8   9
ATOM      9  C   UNL     1       0.856  10.334  18.793  0.00  0.00    +0.000 C 
ATOM     10  O   UNL     1       1.476  11.375  18.596  0.00  0.00    +0.000 OA
BRANCH   9  11
ATOM     11  C   UNL     1      -0.655  10.300  18.963  0.00  0.00    +0.000 C 
BRANCH  11  12
ATOM     12  C   UNL     1      -1.314  11.662  18.757  0.00  0.00    +0.000 C 
BRANCH  12  13
ATOM     13  C   UNL     1      -2.314  11.661  17.603  0.00  0.00    +0.000 C 
BRANCH  13  14
ATOM     14  N   UNL     1      -2.406  10.300  17.062  0.00  0.00    +0.000 NA
ATOM     15  N   UNL     1      -2.547  10.226  15.829  0.00  0.00    +0.000 NA
ATOM     16  N   UNL     1      -2.670  10.164  14.698  0.00  0.00    +0.000 NA
ENDBRANCH  13  14
ENDBRANCH  12  13
ENDBRANCH  11  12
ENDBRANCH   9  11
ENDBRANCH   8   9
ENDBRANCH   4   7
BRANCH   1  17
ATOM     17  O   UNL     1       4.688   3.367  17.873  0.00  0.00    +0.000 OA
BRANCH  17  19
ATOM     18  C   UNL     1       3.382   1.490  18.503  0.00  0.00    +0.000 C 
ATOM     19  C   UNL     1       4.413   2.492  18.935  0.00  0.00    +0.000 C 
ATOM     20  O   UNL     1       4.843   2.569  20.077  0.00  0.00    +0.000 OA
ENDBRANCH  17  19
ENDBRANCH   1  17
BRANCH   6  21
ATOM     21  O   UNL     1       6.180   5.940  17.271  0.00  0.00    +0.000 OA
BRANCH  21  22
ATOM     22  C   UNL     1       7.369   5.292  17.621  0.00  0.00    +0.000 C 
ATOM     23  C   UNL     1       7.840   5.854  18.939  0.00  0.00    +0.000 C 
ATOM     24  O   UNL     1       7.957   4.441  16.970  0.00  0.00    +0.000 OA
ENDBRANCH  21  22
ENDBRANCH   6  21
TORSDOF 10
ENDMDL
