MODEL 1
REMARK VINA RESULT:      -6.4      0.000      0.000
REMARK  Name = 
REMARK  6 active torsions:
REMARK  status: ('A' for Active; 'I' for Inactive)
REMARK    1  A    between atoms: C_1  and  O_2
REMARK    2  A    between atoms: O_2  and  C_3
REMARK    3  A    between atoms: C_8  and  O_9
REMARK    4  A    between atoms: O_9  and  C_10
REMARK    5  A    between atoms: N_16  and  C_17
REMARK    6  A    between atoms: C_17  and  C_18
REMARK                            x       y       z     vdW  Elec       q    Type
REMARK                         _______ _______ _______ _____ _____    ______ ____
ROOT
ATOM      1  C   UNL     1      -2.371  10.286  17.290  0.00  0.00    +0.000 A 
ATOM      2  C   UNL     1      -1.035  10.027  17.651  0.00  0.00    +0.000 A 
ATOM      3  C   UNL     1      -0.472  10.732  18.690  0.00  0.00    +0.000 A 
ATOM      4  C   UNL     1      -1.165  11.723  19.345  0.00  0.00    +0.000 A 
ATOM      5  C   UNL     1      -2.452  12.054  18.958  0.00  0.00    +0.000 A 
ATOM      6  C   UNL     1      -3.079  11.328  17.931  0.00  0.00    +0.000 A 
ATOM      7  C   UNL     1      -0.317  12.291  20.425  0.00  0.00    +0.000 C 
ATOM      8  C   UNL     1       0.921  11.387  20.312  0.00  0.00    +0.000 C 
ATOM      9  O   UNL     1       0.792  10.512  19.158  0.00  0.00    +0.000 OA
ATOM     10  C   UNL     1      -0.951  12.185  21.821  0.00  0.00    +0.000 C 
ATOM     11  O   UNL     1      -1.373  11.173  22.363  0.00  0.00    +0.000 OA
ATOM     12  N   UNL     1      -0.960  13.473  22.368  0.00  0.00    +0.000 N 
ATOM     13  C   UNL     1      -0.437  14.411  21.462  0.00  0.00    +0.000 A 
ATOM     14  C   UNL     1      -0.302  15.778  21.605  0.00  0.00    +0.000 A 
ATOM     15  C   UNL     1       0.236  16.498  20.539  0.00  0.00    +0.000 A 
ATOM     16  C   UNL     1       0.646  15.849  19.360  0.00  0.00    +0.000 A 
ATOM     17  C   UNL     1       0.514  14.465  19.232  0.00  0.00    +0.000 A 
ATOM     18  C   UNL     1      -0.033  13.762  20.295  0.00  0.00    +0.000 A 
ENDROOT
BRANCH   1  20
ATOM     19  C   UNL     1      -2.935  10.119  15.010  0.00  0.00    +0.000 C 
ATOM     20  O   UNL     1      -2.985   9.537  16.316  0.00  0.00    +0.000 OA
ENDBRANCH   1  20
BRANCH   6  21
ATOM     21  O   UNL     1      -4.362  11.762  17.745  0.00  0.00    +0.000 OA
ATOM     22  C   UNL     1      -5.460  11.002  18.216  0.00  0.00    +0.000 C 
ENDBRANCH   6  21
BRANCH  12  23
ATOM     23  C   UNL     1      -1.474  13.779  23.683  0.00  0.00    +0.000 C 
BRANCH  23  24
ATOM     24  C   UNL     1      -2.961  13.978  23.633  0.00  0.00    +0.000 A 
ATOM     25  C   UNL     1      -3.670  15.076  23.176  0.00  0.00    +0.000 A 
ATOM     26  C   UNL     1      -5.081  14.907  23.317  0.00  0.00    +0.000 A 
ATOM     27  C   UNL     1      -5.381  13.678  23.841  0.00  0.00    +0.000 A 
ATOM     28 CL   UNL     1      -6.945  13.061  24.189  0.00  0.00    +0.000 Cl
ATOM     29  S   UNL     1      -4.018  12.726  24.148  0.00  0.00    +0.000 S 
ENDBRANCH  23  24
ENDBRANCH  12  23
TORSDOF 4
ENDMDL
MODEL 2
REMARK VINA RESULT:      -6.3      0.929      1.072
REMARK  Name = 
REMARK  6 active torsions:
REMARK  status: ('A' for Active; 'I' for Inactive)
REMARK    1  A    between atoms: C_1  and  O_2
REMARK    2  A    between atoms: O_2  and  C_3
REMARK    3  A    between atoms: C_8  and  O_9
REMARK    4  A    between atoms: O_9  and  C_10
REMARK    5  A    between atoms: N_16  and  C_17
REMARK    6  A    between atoms: C_17  and  C_18
REMARK                            x       y       z     vdW  Elec       q    Type
REMARK                         _______ _______ _______ _____ _____    ______ ____
ROOT
ATOM      1  C   UNL     1      -2.554  10.306  17.449  0.00  0.00    +0.000 A 
ATOM      2  C   UNL     1      -1.163  10.310  17.671  0.00  0.00    +0.000 A 
ATOM      3  C   UNL     1      -0.644  11.108  18.666  0.00  0.00    +0.000 A 
ATOM      4  C   UNL     1      -1.445  11.943  19.408  0.00  0.00    +0.000 A 
ATOM      5  C   UNL     1      -2.804  12.019  19.157  0.00  0.00    +0.000 A 
ATOM      6  C   UNL     1      -3.381  11.188  18.181  0.00  0.00    +0.000 A 
ATOM      7  C   UNL     1      -0.618  12.661  20.412  0.00  0.00    +0.000 C 
ATOM      8  C   UNL     1       0.754  12.015  20.156  0.00  0.00    +0.000 C 
ATOM      9  O   UNL     1       0.680  11.135  19.001  0.00  0.00    +0.000 OA
ATOM     10  C   UNL     1      -1.076  12.430  21.860  0.00  0.00    +0.000 C 
ATOM     11  O   UNL     1      -1.237  11.354  22.418  0.00  0.00    +0.000 OA
ATOM     12  N   UNL     1      -1.277  13.690  22.434  0.00  0.00    +0.000 N 
ATOM     13  C   UNL     1      -1.038  14.714  21.503  0.00  0.00    +0.000 A 
ATOM     14  C   UNL     1      -1.156  16.081  21.663  0.00  0.00    +0.000 A 
ATOM     15  C   UNL     1      -0.877  16.895  20.565  0.00  0.00    +0.000 A 
ATOM     16  C   UNL     1      -0.471  16.342  19.337  0.00  0.00    +0.000 A 
ATOM     17  C   UNL     1      -0.346  14.959  19.192  0.00  0.00    +0.000 A 
ATOM     18  C   UNL     1      -0.637  14.160  20.288  0.00  0.00    +0.000 A 
ENDROOT
BRANCH   1  20
ATOM     19  C   UNL     1      -3.029   9.925  15.175  0.00  0.00    +0.000 C 
ATOM     20  O   UNL     1      -3.106   9.455  16.524  0.00  0.00    +0.000 OA
ENDBRANCH   1  20
BRANCH   6  21
ATOM     21  O   UNL     1      -4.735  11.366  18.132  0.00  0.00    +0.000 OA
ATOM     22  C   UNL     1      -5.332  12.110  17.086  0.00  0.00    +0.000 C 
ENDBRANCH   6  21
BRANCH  12  23
ATOM     23  C   UNL     1      -1.705  13.886  23.801  0.00  0.00    +0.000 C 
BRANCH  23  24
ATOM     24  C   UNL     1      -3.194  13.743  23.911  0.00  0.00    +0.000 A 
ATOM     25  C   UNL     1      -3.933  12.612  24.219  0.00  0.00    +0.000 A 
ATOM     26  C   UNL     1      -5.339  12.861  24.198  0.00  0.00    +0.000 A 
ATOM     27  C   UNL     1      -5.604  14.173  23.912  0.00  0.00    +0.000 A 
ATOM     28 CL   UNL     1      -7.151  14.905  23.774  0.00  0.00    +0.000 Cl
ATOM     29  S   UNL     1      -4.213  15.107  23.685  0.00  0.00    +0.000 S 
ENDBRANCH  23  24
ENDBRANCH  12  23
TORSDOF 4
ENDMDL
MODEL 3
REMARK VINA RESULT:      -6.0      4.136      7.213
REMARK  Name = 
REMARK  6 active torsions:
REMARK  status: ('A' for Active; 'I' for Inactive)
REMARK    1  A    between atoms: C_1  and  O_2
REMARK    2  A    between atoms: O_2  and  C_3
REMARK    3  A    between atoms: C_8  and  O_9
REMARK    4  A    between atoms: O_9  and  C_10
REMARK    5  A    between atoms: N_16  and  C_17
REMARK    6  A    between atoms: C_17  and  C_18
REMARK                            x       y       z     vdW  Elec       q    Type
REMARK                         _______ _______ _______ _____ _____    ______ ____
ROOT
ATOM      1  C   UNL     1      -1.217  16.479  20.764  0.00  0.00    +0.000 A 
ATOM      2  C   UNL     1      -1.614  15.534  21.730  0.00  0.00    +0.000 A 
ATOM      3  C   UNL     1      -1.463  14.193  21.457  0.00  0.00    +0.000 A 
ATOM      4  C   UNL     1      -0.990  13.755  20.243  0.00  0.00    +0.000 A 
ATOM      5  C   UNL     1      -0.668  14.660  19.246  0.00  0.00    +0.000 A 
ATOM      6  C   UNL     1      -0.765  16.040  19.499  0.00  0.00    +0.000 A 
ATOM      7  C   UNL     1      -0.918  12.271  20.244  0.00  0.00    +0.000 C 
ATOM      8  C   UNL     1      -1.346  11.973  21.691  0.00  0.00    +0.000 C 
ATOM      9  O   UNL     1      -1.758  13.201  22.349  0.00  0.00    +0.000 OA
ATOM     10  C   UNL     1       0.491  11.726  19.961  0.00  0.00    +0.000 C 
ATOM     11  O   UNL     1       1.522  12.010  20.555  0.00  0.00    +0.000 OA
ATOM     12  N   UNL     1       0.380  10.834  18.889  0.00  0.00    +0.000 N 
ATOM     13  C   UNL     1      -0.942  10.771  18.418  0.00  0.00    +0.000 A 
ATOM     14  C   UNL     1      -1.457  10.041  17.365  0.00  0.00    +0.000 A 
ATOM     15  C   UNL     1      -2.818  10.168  17.083  0.00  0.00    +0.000 A 
ATOM     16  C   UNL     1      -3.644  11.001  17.860  0.00  0.00    +0.000 A 
ATOM     17  C   UNL     1      -3.112  11.725  18.929  0.00  0.00    +0.000 A 
ATOM     18  C   UNL     1      -1.756  11.599  19.192  0.00  0.00    +0.000 A 
ENDROOT
BRANCH   1  20
ATOM     19  C   UNL     1      -1.547  18.124  22.416  0.00  0.00    +0.000 C 
ATOM     20  O   UNL     1      -1.273  17.823  21.044  0.00  0.00    +0.000 OA
ENDBRANCH   1  20
BRANCH   6  21
ATOM     21  O   UNL     1      -0.341  16.761  18.418  0.00  0.00    +0.000 OA
ATOM     22  C   UNL     1       1.001  17.198  18.319  0.00  0.00    +0.000 C 
ENDBRANCH   6  21
BRANCH  12  23
ATOM     23  C   UNL     1       1.499  10.107  18.336  0.00  0.00    +0.000 C 
BRANCH  23  24
ATOM     24  C   UNL     1       1.701   8.815  19.071  0.00  0.00    +0.000 A 
ATOM     25  C   UNL     1       1.262   8.463  20.337  0.00  0.00    +0.000 A 
ATOM     26  C   UNL     1       1.678   7.149  20.709  0.00  0.00    +0.000 A 
ATOM     27  C   UNL     1       2.381   6.549  19.699  0.00  0.00    +0.000 A 
ATOM     28 CL   UNL     1       3.077   4.980  19.721  0.00  0.00    +0.000 Cl
ATOM     29  S   UNL     1       2.537   7.515  18.322  0.00  0.00    +0.000 S 
ENDBRANCH  23  24
ENDBRANCH  12  23
TORSDOF 4
ENDMDL
MODEL 4
REMARK VINA RESULT:      -6.0      2.977      5.565
REMARK  Name = 
REMARK  6 active torsions:
REMARK  status: ('A' for Active; 'I' for Inactive)
REMARK    1  A    between atoms: C_1  and  O_2
REMARK    2  A    between atoms: O_2  and  C_3
REMARK    3  A    between atoms: C_8  and  O_9
REMARK    4  A    between atoms: O_9  and  C_10
REMARK    5  A    between atoms: N_16  and  C_17
REMARK    6  A    between atoms: C_17  and  C_18
REMARK                            x       y       z     vdW  Elec       q    Type
REMARK                         _______ _______ _______ _____ _____    ______ ____
ROOT
ATOM      1  C   UNL     1       3.919  14.556  19.467  0.00  0.00    +0.000 A 
ATOM      2  C   UNL     1       3.020  14.051  18.507  0.00  0.00    +0.000 A 
ATOM      3  C   UNL     1       1.823  13.515  18.927  0.00  0.00    +0.000 A 
ATOM      4  C   UNL     1       1.512  13.406  20.261  0.00  0.00    +0.000 A 
ATOM      5  C   UNL     1       2.412  13.821  21.228  0.00  0.00    +0.000 A 
ATOM      6  C   UNL     1       3.625  14.416  20.842  0.00  0.00    +0.000 A 
ATOM      7  C   UNL     1       0.159  12.811  20.408  0.00  0.00    +0.000 C 
ATOM      8  C   UNL     1      -0.256  12.693  18.933  0.00  0.00    +0.000 C 
ATOM      9  O   UNL     1       0.859  13.058  18.074  0.00  0.00    +0.000 OA
ATOM     10  C   UNL     1      -0.821  13.703  21.188  0.00  0.00    +0.000 C 
ATOM     11  O   UNL     1      -1.104  14.869  20.949  0.00  0.00    +0.000 OA
ATOM     12  N   UNL     1      -1.338  12.930  22.233  0.00  0.00    +0.000 N 
ATOM     13  C   UNL     1      -0.771  11.645  22.242  0.00  0.00    +0.000 A 
ATOM     14  C   UNL     1      -0.988  10.604  23.122  0.00  0.00    +0.000 A 
ATOM     15  C   UNL     1      -0.277   9.420  22.924  0.00  0.00    +0.000 A 
ATOM     16  C   UNL     1       0.621   9.285  21.850  0.00  0.00    +0.000 A 
ATOM     17  C   UNL     1       0.824  10.343  20.962  0.00  0.00    +0.000 A 
ATOM     18  C   UNL     1       0.120  11.518  21.176  0.00  0.00    +0.000 A 
ENDROOT
BRANCH   1  20
ATOM     19  C   UNL     1       5.601  14.705  17.826  0.00  0.00    +0.000 C 
ATOM     20  O   UNL     1       5.078  15.177  19.072  0.00  0.00    +0.000 OA
ENDBRANCH   1  20
BRANCH   6  21
ATOM     21  O   UNL     1       4.339  14.813  21.938  0.00  0.00    +0.000 OA
ATOM     22  C   UNL     1       5.477  14.088  22.364  0.00  0.00    +0.000 C 
ENDBRANCH   6  21
BRANCH  12  23
ATOM     23  C   UNL     1      -2.307  13.422  23.186  0.00  0.00    +0.000 C 
BRANCH  23  24
ATOM     24  C   UNL     1      -3.701  13.122  22.720  0.00  0.00    +0.000 A 
ATOM     25  C   UNL     1      -4.139  12.825  21.440  0.00  0.00    +0.000 A 
ATOM     26  C   UNL     1      -5.552  12.626  21.382  0.00  0.00    +0.000 A 
ATOM     27  C   UNL     1      -6.118  12.745  22.624  0.00  0.00    +0.000 A 
ATOM     28 CL   UNL     1      -7.783  12.596  23.014  0.00  0.00    +0.000 Cl
ATOM     29  S   UNL     1      -4.997  13.071  23.846  0.00  0.00    +0.000 S 
ENDBRANCH  23  24
ENDBRANCH  12  23
TORSDOF 4
ENDMDL
MODEL 5
REMARK VINA RESULT:      -6.0      4.097      6.624
REMARK  Name = 
REMARK  6 active torsions:
REMARK  status: ('A' for Active; 'I' for Inactive)
REMARK    1  A    between atoms: C_1  and  O_2
REMARK    2  A    between atoms: O_2  and  C_3
REMARK    3  A    between atoms: C_8  and  O_9
REMARK    4  A    between atoms: O_9  and  C_10
REMARK    5  A    between atoms: N_16  and  C_17
REMARK    6  A    between atoms: C_17  and  C_18
REMARK                            x       y       z     vdW  Elec       q    Type
REMARK                         _______ _______ _______ _____ _____    ______ ____
ROOT
ATOM      1  C   UNL     1      -6.123  13.070  23.111  0.00  0.00    +0.000 A 
ATOM      2  C   UNL     1      -5.151  13.698  23.913  0.00  0.00    +0.000 A 
ATOM      3  C   UNL     1      -3.841  13.713  23.489  0.00  0.00    +0.000 A 
ATOM      4  C   UNL     1      -3.452  13.080  22.333  0.00  0.00    +0.000 A 
ATOM      5  C   UNL     1      -4.373  12.386  21.567  0.00  0.00    +0.000 A 
ATOM      6  C   UNL     1      -5.728  12.383  21.940  0.00  0.00    +0.000 A 
ATOM      7  C   UNL     1      -1.995  13.281  22.123  0.00  0.00    +0.000 C 
ATOM      8  C   UNL     1      -1.667  14.204  23.308  0.00  0.00    +0.000 C 
ATOM      9  O   UNL     1      -2.836  14.350  24.160  0.00  0.00    +0.000 OA
ATOM     10  C   UNL     1      -1.656  13.958  20.786  0.00  0.00    +0.000 C 
ATOM     11  O   UNL     1      -2.101  15.017  20.364  0.00  0.00    +0.000 OA
ATOM     12  N   UNL     1      -0.735  13.135  20.129  0.00  0.00    +0.000 N 
ATOM     13  C   UNL     1      -0.469  11.976  20.876  0.00  0.00    +0.000 A 
ATOM     14  C   UNL     1       0.351  10.909  20.566  0.00  0.00    +0.000 A 
ATOM     15  C   UNL     1       0.430   9.857  21.478  0.00  0.00    +0.000 A 
ATOM     16  C   UNL     1      -0.289   9.890  22.687  0.00  0.00    +0.000 A 
ATOM     17  C   UNL     1      -1.105  10.981  22.993  0.00  0.00    +0.000 A 
ATOM     18  C   UNL     1      -1.185  12.015  22.073  0.00  0.00    +0.000 A 
ENDROOT
BRANCH   1  20
ATOM     19  C   UNL     1      -7.826  14.302  24.172  0.00  0.00    +0.000 C 
ATOM     20  O   UNL     1      -7.449  13.116  23.465  0.00  0.00    +0.000 OA
ENDBRANCH   1  20
BRANCH   6  21
ATOM     21  O   UNL     1      -6.480  11.703  21.025  0.00  0.00    +0.000 OA
ATOM     22  C   UNL     1      -7.165  12.390  19.994  0.00  0.00    +0.000 C 
ENDBRANCH   6  21
BRANCH  12  23
ATOM     23  C   UNL     1      -0.169  13.444  18.835  0.00  0.00    +0.000 C 
BRANCH  23  24
ATOM     24  C   UNL     1       1.166  14.111  18.992  0.00  0.00    +0.000 A 
ATOM     25  C   UNL     1       1.481  15.258  19.703  0.00  0.00    +0.000 A 
ATOM     26  C   UNL     1       2.862  15.602  19.592  0.00  0.00    +0.000 A 
ATOM     27  C   UNL     1       3.540  14.685  18.834  0.00  0.00    +0.000 A 
ATOM     28 CL   UNL     1       5.210  14.713  18.434  0.00  0.00    +0.000 Cl
ATOM     29  S   UNL     1       2.566  13.423  18.273  0.00  0.00    +0.000 S 
ENDBRANCH  23  24
ENDBRANCH  12  23
TORSDOF 4
ENDMDL
MODEL 6
REMARK VINA RESULT:      -5.9      2.780      5.461
REMARK  Name = 
REMARK  6 active torsions:
REMARK  status: ('A' for Active; 'I' for Inactive)
REMARK    1  A    between atoms: C_1  and  O_2
REMARK    2  A    between atoms: O_2  and  C_3
REMARK    3  A    between atoms: C_8  and  O_9
REMARK    4  A    between atoms: O_9  and  C_10
REMARK    5  A    between atoms: N_16  and  C_17
REMARK    6  A    between atoms: C_17  and  C_18
REMARK                            x       y       z     vdW  Elec       q    Type
REMARK                         _______ _______ _______ _____ _____    ______ ____
ROOT
ATOM      1  C   UNL     1       3.598  14.442  19.031  0.00  0.00    +0.000 A 
ATOM      2  C   UNL     1       2.481  14.153  18.224  0.00  0.00    +0.000 A 
ATOM      3  C   UNL     1       1.324  13.698  18.817  0.00  0.00    +0.000 A 
ATOM      4  C   UNL     1       1.254  13.464  20.170  0.00  0.00    +0.000 A 
ATOM      5  C   UNL     1       2.362  13.663  20.975  0.00  0.00    +0.000 A 
ATOM      6  C   UNL     1       3.549  14.169  20.417  0.00  0.00    +0.000 A 
ATOM      7  C   UNL     1      -0.113  13.001  20.523  0.00  0.00    +0.000 C 
ATOM      8  C   UNL     1      -0.805  13.105  19.154  0.00  0.00    +0.000 C 
ATOM      9  O   UNL     1       0.169  13.451  18.131  0.00  0.00    +0.000 OA
ATOM     10  C   UNL     1      -0.811  13.890  21.563  0.00  0.00    +0.000 C 
ATOM     11  O   UNL     1      -0.984  15.100  21.500  0.00  0.00    +0.000 OA
ATOM     12  N   UNL     1      -1.219  13.057  22.610  0.00  0.00    +0.000 N 
ATOM     13  C   UNL     1      -0.827  11.728  22.381  0.00  0.00    +0.000 A 
ATOM     14  C   UNL     1      -1.007  10.616  23.181  0.00  0.00    +0.000 A 
ATOM     15  C   UNL     1      -0.500   9.397  22.732  0.00  0.00    +0.000 A 
ATOM     16  C   UNL     1       0.160   9.299  21.494  0.00  0.00    +0.000 A 
ATOM     17  C   UNL     1       0.327  10.428  20.690  0.00  0.00    +0.000 A 
ATOM     18  C   UNL     1      -0.172  11.636  21.153  0.00  0.00    +0.000 A 
ENDROOT
BRANCH   1  20
ATOM     19  C   UNL     1       4.744  16.410  18.435  0.00  0.00    +0.000 C 
ATOM     20  O   UNL     1       4.733  14.980  18.477  0.00  0.00    +0.000 OA
ENDBRANCH   1  20
BRANCH   6  21
ATOM     21  O   UNL     1       4.497  14.355  21.384  0.00  0.00    +0.000 OA
ATOM     22  C   UNL     1       4.601  15.589  22.069  0.00  0.00    +0.000 C 
ENDBRANCH   6  21
BRANCH  12  23
ATOM     23  C   UNL     1      -1.926  13.530  23.779  0.00  0.00    +0.000 C 
BRANCH  23  24
ATOM     24  C   UNL     1      -3.388  13.214  23.672  0.00  0.00    +0.000 A 
ATOM     25  C   UNL     1      -4.235  12.701  24.642  0.00  0.00    +0.000 A 
ATOM     26  C   UNL     1      -5.563  12.506  24.155  0.00  0.00    +0.000 A 
ATOM     27  C   UNL     1      -5.674  12.911  22.851  0.00  0.00    +0.000 A 
ATOM     28 CL   UNL     1      -7.082  12.845  21.870  0.00  0.00    +0.000 Cl
ATOM     29  S   UNL     1      -4.237  13.529  22.213  0.00  0.00    +0.000 S 
ENDBRANCH  23  24
ENDBRANCH  12  23
TORSDOF 4
ENDMDL
MODEL 7
REMARK VINA RESULT:      -5.9      1.210      1.273
REMARK  Name = 
REMARK  6 active torsions:
REMARK  status: ('A' for Active; 'I' for Inactive)
REMARK    1  A    between atoms: C_1  and  O_2
REMARK    2  A    between atoms: O_2  and  C_3
REMARK    3  A    between atoms: C_8  and  O_9
REMARK    4  A    between atoms: O_9  and  C_10
REMARK    5  A    between atoms: N_16  and  C_17
REMARK    6  A    between atoms: C_17  and  C_18
REMARK                            x       y       z     vdW  Elec       q    Type
REMARK                         _______ _______ _______ _____ _____    ______ ____
ROOT
ATOM      1  C   UNL     1      -2.439  10.424  17.823  0.00  0.00    +0.000 A 
ATOM      2  C   UNL     1      -1.084  10.195  18.132  0.00  0.00    +0.000 A 
ATOM      3  C   UNL     1      -0.480  10.959  19.106  0.00  0.00    +0.000 A 
ATOM      4  C   UNL     1      -1.152  11.976  19.741  0.00  0.00    +0.000 A 
ATOM      5  C   UNL     1      -2.460  12.275  19.400  0.00  0.00    +0.000 A 
ATOM      6  C   UNL     1      -3.127  11.491  18.443  0.00  0.00    +0.000 A 
ATOM      7  C   UNL     1      -0.261  12.606  20.749  0.00  0.00    +0.000 C 
ATOM      8  C   UNL     1       0.981  11.708  20.623  0.00  0.00    +0.000 C 
ATOM      9  O   UNL     1       0.807  10.774  19.523  0.00  0.00    +0.000 OA
ATOM     10  C   UNL     1      -0.827  12.567  22.177  0.00  0.00    +0.000 C 
ATOM     11  O   UNL     1      -1.211  11.581  22.790  0.00  0.00    +0.000 OA
ATOM     12  N   UNL     1      -0.824  13.881  22.657  0.00  0.00    +0.000 N 
ATOM     13  C   UNL     1      -0.355  14.776  21.681  0.00  0.00    +0.000 A 
ATOM     14  C   UNL     1      -0.229  16.149  21.747  0.00  0.00    +0.000 A 
ATOM     15  C   UNL     1       0.250  16.818  20.621  0.00  0.00    +0.000 A 
ATOM     16  C   UNL     1       0.611  16.113  19.458  0.00  0.00    +0.000 A 
ATOM     17  C   UNL     1       0.488  14.723  19.408  0.00  0.00    +0.000 A 
ATOM     18  C   UNL     1       0.001  14.071  20.531  0.00  0.00    +0.000 A 
ENDROOT
BRANCH   1  20
ATOM     19  C   UNL     1      -2.835   9.950  15.550  0.00  0.00    +0.000 C 
ATOM     20  O   UNL     1      -3.089   9.620  16.919  0.00  0.00    +0.000 OA
ENDBRANCH   1  20
BRANCH   6  21
ATOM     21  O   UNL     1      -4.422  11.904  18.297  0.00  0.00    +0.000 OA
ATOM     22  C   UNL     1      -5.232  12.161  19.428  0.00  0.00    +0.000 C 
ENDBRANCH   6  21
BRANCH  12  23
ATOM     23  C   UNL     1      -1.279  14.250  23.979  0.00  0.00    +0.000 C 
BRANCH  23  24
ATOM     24  C   UNL     1      -2.727  14.643  23.946  0.00  0.00    +0.000 A 
ATOM     25  C   UNL     1      -3.833  13.843  23.709  0.00  0.00    +0.000 A 
ATOM     26  C   UNL     1      -5.053  14.586  23.728  0.00  0.00    +0.000 A 
ATOM     27  C   UNL     1      -4.823  15.905  24.013  0.00  0.00    +0.000 A 
ATOM     28 CL   UNL     1      -5.996  17.154  24.123  0.00  0.00    +0.000 Cl
ATOM     29  S   UNL     1      -3.192  16.264  24.271  0.00  0.00    +0.000 S 
ENDBRANCH  23  24
ENDBRANCH  12  23
TORSDOF 4
ENDMDL
MODEL 8
REMARK VINA RESULT:      -5.9      3.125      5.841
REMARK  Name = 
REMARK  6 active torsions:
REMARK  status: ('A' for Active; 'I' for Inactive)
REMARK    1  A    between atoms: C_1  and  O_2
REMARK    2  A    between atoms: O_2  and  C_3
REMARK    3  A    between atoms: C_8  and  O_9
REMARK    4  A    between atoms: O_9  and  C_10
REMARK    5  A    between atoms: N_16  and  C_17
REMARK    6  A    between atoms: C_17  and  C_18
REMARK                            x       y       z     vdW  Elec       q    Type
REMARK                         _______ _______ _______ _____ _____    ______ ____
ROOT
ATOM      1  C   UNL     1      -6.678  13.827  17.766  0.00  0.00    +0.000 A 
ATOM      2  C   UNL     1      -6.832  15.018  18.502  0.00  0.00    +0.000 A 
ATOM      3  C   UNL     1      -6.141  15.170  19.683  0.00  0.00    +0.000 A 
ATOM      4  C   UNL     1      -5.351  14.165  20.189  0.00  0.00    +0.000 A 
ATOM      5  C   UNL     1      -5.245  12.954  19.526  0.00  0.00    +0.000 A 
ATOM      6  C   UNL     1      -5.899  12.773  18.295  0.00  0.00    +0.000 A 
ATOM      7  C   UNL     1      -4.720  14.619  21.455  0.00  0.00    +0.000 C 
ATOM      8  C   UNL     1      -5.225  16.070  21.512  0.00  0.00    +0.000 C 
ATOM      9  O   UNL     1      -6.173  16.309  20.437  0.00  0.00    +0.000 OA
ATOM     10  C   UNL     1      -3.185  14.569  21.426  0.00  0.00    +0.000 C 
ATOM     11  O   UNL     1      -2.447  15.088  20.599  0.00  0.00    +0.000 OA
ATOM     12  N   UNL     1      -2.777  13.814  22.531  0.00  0.00    +0.000 N 
ATOM     13  C   UNL     1      -3.882  13.334  23.253  0.00  0.00    +0.000 A 
ATOM     14  C   UNL     1      -3.907  12.533  24.377  0.00  0.00    +0.000 A 
ATOM     15  C   UNL     1      -5.150  12.174  24.898  0.00  0.00    +0.000 A 
ATOM     16  C   UNL     1      -6.342  12.629  24.307  0.00  0.00    +0.000 A 
ATOM     17  C   UNL     1      -6.303  13.448  23.176  0.00  0.00    +0.000 A 
ATOM     18  C   UNL     1      -5.061  13.788  22.661  0.00  0.00    +0.000 A 
ENDROOT
BRANCH   1  20
ATOM     19  C   UNL     1      -7.801  14.903  15.998  0.00  0.00    +0.000 C 
ATOM     20  O   UNL     1      -7.286  13.684  16.542  0.00  0.00    +0.000 OA
ENDBRANCH   1  20
BRANCH   6  21
ATOM     21  O   UNL     1      -5.617  11.541  17.774  0.00  0.00    +0.000 OA
ATOM     22  C   UNL     1      -4.637  11.388  16.765  0.00  0.00    +0.000 C 
ENDBRANCH   6  21
BRANCH  12  23
ATOM     23  C   UNL     1      -1.392  13.551  22.851  0.00  0.00    +0.000 C 
BRANCH  23  24
ATOM     24  C   UNL     1      -0.913  12.321  22.137  0.00  0.00    +0.000 A 
ATOM     25  C   UNL     1      -0.397  12.211  20.856  0.00  0.00    +0.000 A 
ATOM     26  C   UNL     1      -0.077  10.862  20.514  0.00  0.00    +0.000 A 
ATOM     27  C   UNL     1      -0.329  10.015  21.560  0.00  0.00    +0.000 A 
ATOM     28 CL   UNL     1      -0.103   8.314  21.583  0.00  0.00    +0.000 Cl
ATOM     29  S   UNL     1      -0.921  10.800  22.934  0.00  0.00    +0.000 S 
ENDBRANCH  23  24
ENDBRANCH  12  23
TORSDOF 4
ENDMDL
MODEL 9
REMARK VINA RESULT:      -5.8      2.536      3.946
REMARK  Name = 
REMARK  6 active torsions:
REMARK  status: ('A' for Active; 'I' for Inactive)
REMARK    1  A    between atoms: C_1  and  O_2
REMARK    2  A    between atoms: O_2  and  C_3
REMARK    3  A    between atoms: C_8  and  O_9
REMARK    4  A    between atoms: O_9  and  C_10
REMARK    5  A    between atoms: N_16  and  C_17
REMARK    6  A    between atoms: C_17  and  C_18
REMARK                            x       y       z     vdW  Elec       q    Type
REMARK                         _______ _______ _______ _____ _____    ______ ____
ROOT
ATOM      1  C   UNL     1       0.096  10.621  20.040  0.00  0.00    +0.000 A 
ATOM      2  C   UNL     1       0.517  11.307  21.195  0.00  0.00    +0.000 A 
ATOM      3  C   UNL     1      -0.321  12.241  21.762  0.00  0.00    +0.000 A 
ATOM      4  C   UNL     1      -1.531  12.561  21.194  0.00  0.00    +0.000 A 
ATOM      5  C   UNL     1      -1.934  11.960  20.014  0.00  0.00    +0.000 A 
ATOM      6  C   UNL     1      -1.129  10.968  19.426  0.00  0.00    +0.000 A 
ATOM      7  C   UNL     1      -2.219  13.578  22.031  0.00  0.00    +0.000 C 
ATOM      8  C   UNL     1      -1.225  13.697  23.198  0.00  0.00    +0.000 C 
ATOM      9  O   UNL     1      -0.034  12.914  22.916  0.00  0.00    +0.000 OA
ATOM     10  C   UNL     1      -3.602  13.129  22.527  0.00  0.00    +0.000 C 
ATOM     11  O   UNL     1      -3.867  12.104  23.141  0.00  0.00    +0.000 OA
ATOM     12  N   UNL     1      -4.517  14.116  22.145  0.00  0.00    +0.000 N 
ATOM     13  C   UNL     1      -3.885  15.139  21.419  0.00  0.00    +0.000 A 
ATOM     14  C   UNL     1      -4.436  16.267  20.844  0.00  0.00    +0.000 A 
ATOM     15  C   UNL     1      -3.587  17.130  20.150  0.00  0.00    +0.000 A 
ATOM     16  C   UNL     1      -2.208  16.868  20.055  0.00  0.00    +0.000 A 
ATOM     17  C   UNL     1      -1.662  15.729  20.651  0.00  0.00    +0.000 A 
ATOM     18  C   UNL     1      -2.518  14.874  21.328  0.00  0.00    +0.000 A 
ENDROOT
BRANCH   1  20
ATOM     19  C   UNL     1       1.630  10.019  18.358  0.00  0.00    +0.000 C 
ATOM     20  O   UNL     1       0.872   9.622  19.505  0.00  0.00    +0.000 OA
ENDBRANCH   1  20
BRANCH   6  21
ATOM     21  O   UNL     1      -1.730  10.455  18.312  0.00  0.00    +0.000 OA
ATOM     22  C   UNL     1      -2.248  11.310  17.309  0.00  0.00    +0.000 C 
ENDBRANCH   6  21
BRANCH  12  23
ATOM     23  C   UNL     1      -5.930  14.054  22.444  0.00  0.00    +0.000 C 
BRANCH  23  24
ATOM     24  C   UNL     1      -6.561  12.878  21.759  0.00  0.00    +0.000 A 
ATOM     25  C   UNL     1      -7.614  12.089  22.191  0.00  0.00    +0.000 A 
ATOM     26  C   UNL     1      -7.915  11.036  21.274  0.00  0.00    +0.000 A 
ATOM     27  C   UNL     1      -7.103  11.094  20.173  0.00  0.00    +0.000 A 
ATOM     28 CL   UNL     1      -7.110  10.021  18.833  0.00  0.00    +0.000 Cl
ATOM     29  S   UNL     1      -6.010  12.381  20.210  0.00  0.00    +0.000 S 
ENDBRANCH  23  24
ENDBRANCH  12  23
TORSDOF 4
ENDMDL
