MODEL 1
REMARK VINA RESULT:      -7.3      0.000      0.000
REMARK  Name = 
REMARK  6 active torsions:
REMARK  status: ('A' for Active; 'I' for Inactive)
REMARK    1  A    between atoms: C_1  and  C_2
REMARK    2  A    between atoms: C_6  and  C_7
REMARK    3  A    between atoms: C_7  and  O_8
REMARK    4  A    between atoms: C_9  and  C_10
REMARK    5  A    between atoms: C_10  and  C_12
REMARK    6  A    between atoms: C_12  and  O_14
REMARK                            x       y       z     vdW  Elec       q    Type
REMARK                         _______ _______ _______ _____ _____    ______ ____
ROOT
ATOM      1  C   UNL     1       5.187   4.029  17.971  0.00  0.00    +0.000 C 
ATOM      2  C   UNL     1       5.497   4.284  16.691  0.00  0.00    +0.000 C 
ENDROOT
BRANCH   1   8
ATOM      3  C   UNL     1       1.880   2.904  21.603  0.00  0.00    +0.000 C 
ATOM      4  C   UNL     1       2.157   3.338  20.194  0.00  0.00    +0.000 A 
ATOM      5  C   UNL     1       1.113   3.574  19.297  0.00  0.00    +0.000 A 
ATOM      6  C   UNL     1       1.388   3.947  17.984  0.00  0.00    +0.000 A 
ATOM      7  C   UNL     1       2.712   4.076  17.553  0.00  0.00    +0.000 A 
ATOM      8  C   UNL     1       3.785   3.860  18.434  0.00  0.00    +0.000 A 
ATOM      9  C   UNL     1       3.483   3.498  19.759  0.00  0.00    +0.000 A 
ENDBRANCH   1   8
BRANCH   1  10
ATOM     10  O   UNL     1       6.170   3.916  18.934  0.00  0.00    +0.000 OA
ATOM     11  H   UNL     1       6.694   4.735  18.954  0.00  0.00    +0.000 HD
ENDBRANCH   1  10
BRANCH   2  12
ATOM     12  C   UNL     1       6.884   4.432  16.179  0.00  0.00    +0.000 C 
ATOM     13  O   UNL     1       7.920   4.438  16.835  0.00  0.00    +0.000 OA
BRANCH  12  14
ATOM     14  C   UNL     1       7.042   4.577  14.664  0.00  0.00    +0.000 C 
ATOM     15  O   UNL     1       7.664   5.472  14.126  0.00  0.00    +0.000 OA
BRANCH  14  16
ATOM     16  O   UNL     1       6.389   3.582  14.029  0.00  0.00    +0.000 OA
ATOM     17  H   UNL     1       6.376   3.785  13.062  0.00  0.00    +0.000 HD
ENDBRANCH  14  16
ENDBRANCH  12  14
ENDBRANCH   2  12
TORSDOF 5
ENDMDL
MODEL 2
REMARK VINA RESULT:      -6.9      0.628      1.038
REMARK  Name = 
REMARK  6 active torsions:
REMARK  status: ('A' for Active; 'I' for Inactive)
REMARK    1  A    between atoms: C_1  and  C_2
REMARK    2  A    between atoms: C_6  and  C_7
REMARK    3  A    between atoms: C_7  and  O_8
REMARK    4  A    between atoms: C_9  and  C_10
REMARK    5  A    between atoms: C_10  and  C_12
REMARK    6  A    between atoms: C_12  and  O_14
REMARK                            x       y       z     vdW  Elec       q    Type
REMARK                         _______ _______ _______ _____ _____    ______ ____
ROOT
ATOM      1  C   UNL     1       5.141   4.409  17.760  0.00  0.00    +0.000 C 
ATOM      2  C   UNL     1       5.288   5.075  16.605  0.00  0.00    +0.000 C 
ENDROOT
BRANCH   1   8
ATOM      3  C   UNL     1       2.277   2.816  21.587  0.00  0.00    +0.000 C 
ATOM      4  C   UNL     1       2.392   3.318  20.178  0.00  0.00    +0.000 A 
ATOM      5  C   UNL     1       1.260   3.459  19.372  0.00  0.00    +0.000 A 
ATOM      6  C   UNL     1       1.388   3.897  18.056  0.00  0.00    +0.000 A 
ATOM      7  C   UNL     1       2.650   4.187  17.532  0.00  0.00    +0.000 A 
ATOM      8  C   UNL     1       3.807   4.070  18.320  0.00  0.00    +0.000 A 
ATOM      9  C   UNL     1       3.654   3.639  19.650  0.00  0.00    +0.000 A 
ENDBRANCH   1   8
BRANCH   1  10
ATOM     10  O   UNL     1       6.238   4.007  18.495  0.00  0.00    +0.000 OA
ATOM     11  H   UNL     1       6.356   4.610  19.248  0.00  0.00    +0.000 HD
ENDBRANCH   1  10
BRANCH   2  12
ATOM     12  C   UNL     1       6.600   5.411  15.993  0.00  0.00    +0.000 C 
ATOM     13  O   UNL     1       7.478   6.123  16.467  0.00  0.00    +0.000 OA
BRANCH  12  14
ATOM     14  C   UNL     1       6.898   4.787  14.627  0.00  0.00    +0.000 C 
ATOM     15  O   UNL     1       6.346   3.794  14.198  0.00  0.00    +0.000 OA
BRANCH  14  16
ATOM     16  O   UNL     1       7.858   5.491  13.992  0.00  0.00    +0.000 OA
ATOM     17  H   UNL     1       7.493   5.806  13.130  0.00  0.00    +0.000 HD
ENDBRANCH  14  16
ENDBRANCH  12  14
ENDBRANCH   2  12
TORSDOF 5
ENDMDL
MODEL 3
REMARK VINA RESULT:      -6.8      1.511      2.118
REMARK  Name = 
REMARK  6 active torsions:
REMARK  status: ('A' for Active; 'I' for Inactive)
REMARK    1  A    between atoms: C_1  and  C_2
REMARK    2  A    between atoms: C_6  and  C_7
REMARK    3  A    between atoms: C_7  and  O_8
REMARK    4  A    between atoms: C_9  and  C_10
REMARK    5  A    between atoms: C_10  and  C_12
REMARK    6  A    between atoms: C_12  and  O_14
REMARK                            x       y       z     vdW  Elec       q    Type
REMARK                         _______ _______ _______ _____ _____    ______ ____
ROOT
ATOM      1  C   UNL     1       5.154   4.479  18.178  0.00  0.00    +0.000 C 
ATOM      2  C   UNL     1       5.437   5.359  17.207  0.00  0.00    +0.000 C 
ENDROOT
BRANCH   1   8
ATOM      3  C   UNL     1       1.814   2.843  21.578  0.00  0.00    +0.000 C 
ATOM      4  C   UNL     1       2.113   3.352  20.199  0.00  0.00    +0.000 A 
ATOM      5  C   UNL     1       1.100   3.487  19.247  0.00  0.00    +0.000 A 
ATOM      6  C   UNL     1       1.400   3.932  17.962  0.00  0.00    +0.000 A 
ATOM      7  C   UNL     1       2.719   4.236  17.615  0.00  0.00    +0.000 A 
ATOM      8  C   UNL     1       3.760   4.125  18.552  0.00  0.00    +0.000 A 
ATOM      9  C   UNL     1       3.432   3.687  19.847  0.00  0.00    +0.000 A 
ENDBRANCH   1   8
BRANCH   1  10
ATOM     10  O   UNL     1       6.159   3.856  18.891  0.00  0.00    +0.000 OA
ATOM     11  H   UNL     1       6.397   4.406  19.656  0.00  0.00    +0.000 HD
ENDBRANCH   1  10
BRANCH   2  12
ATOM     12  C   UNL     1       6.814   5.722  16.780  0.00  0.00    +0.000 C 
ATOM     13  O   UNL     1       7.469   5.212  15.879  0.00  0.00    +0.000 OA
BRANCH  12  14
ATOM     14  C   UNL     1       7.484   6.871  17.537  0.00  0.00    +0.000 C 
ATOM     15  O   UNL     1       7.577   8.005  17.110  0.00  0.00    +0.000 OA
BRANCH  14  16
ATOM     16  O   UNL     1       7.955   6.437  18.724  0.00  0.00    +0.000 OA
ATOM     17  H   UNL     1       7.648   5.508  18.860  0.00  0.00    +0.000 HD
ENDBRANCH  14  16
ENDBRANCH  12  14
ENDBRANCH   2  12
TORSDOF 5
ENDMDL
MODEL 4
REMARK VINA RESULT:      -6.8      1.959      2.483
REMARK  Name = 
REMARK  6 active torsions:
REMARK  status: ('A' for Active; 'I' for Inactive)
REMARK    1  A    between atoms: C_1  and  C_2
REMARK    2  A    between atoms: C_6  and  C_7
REMARK    3  A    between atoms: C_7  and  O_8
REMARK    4  A    between atoms: C_9  and  C_10
REMARK    5  A    between atoms: C_10  and  C_12
REMARK    6  A    between atoms: C_12  and  O_14
REMARK                            x       y       z     vdW  Elec       q    Type
REMARK                         _______ _______ _______ _____ _____    ______ ____
ROOT
ATOM      1  C   UNL     1       3.758   5.939  17.615  0.00  0.00    +0.000 C 
ATOM      2  C   UNL     1       4.543   5.217  16.801  0.00  0.00    +0.000 C 
ENDROOT
BRANCH   1   8
ATOM      3  C   UNL     1       0.617   2.198  18.849  0.00  0.00    +0.000 C 
ATOM      4  C   UNL     1       1.294   3.489  19.202  0.00  0.00    +0.000 A 
ATOM      5  C   UNL     1       1.037   4.125  20.419  0.00  0.00    +0.000 A 
ATOM      6  C   UNL     1       1.650   5.338  20.718  0.00  0.00    +0.000 A 
ATOM      7  C   UNL     1       2.519   5.932  19.799  0.00  0.00    +0.000 A 
ATOM      8  C   UNL     1       2.811   5.312  18.573  0.00  0.00    +0.000 A 
ATOM      9  C   UNL     1       2.191   4.080  18.296  0.00  0.00    +0.000 A 
ENDBRANCH   1   8
BRANCH   1  10
ATOM     10  O   UNL     1       3.791   7.319  17.596  0.00  0.00    +0.000 OA
ATOM     11  H   UNL     1       3.781   7.627  16.675  0.00  0.00    +0.000 HD
ENDBRANCH   1  10
BRANCH   2  12
ATOM     12  C   UNL     1       5.524   5.800  15.849  0.00  0.00    +0.000 C 
ATOM     13  O   UNL     1       5.393   6.821  15.182  0.00  0.00    +0.000 OA
BRANCH  12  14
ATOM     14  C   UNL     1       6.852   5.056  15.694  0.00  0.00    +0.000 C 
ATOM     15  O   UNL     1       7.699   5.339  14.869  0.00  0.00    +0.000 OA
BRANCH  14  16
ATOM     16  O   UNL     1       6.932   4.052  16.590  0.00  0.00    +0.000 OA
ATOM     17  H   UNL     1       7.202   3.230  16.114  0.00  0.00    +0.000 HD
ENDBRANCH  14  16
ENDBRANCH  12  14
ENDBRANCH   2  12
TORSDOF 5
ENDMDL
MODEL 5
REMARK VINA RESULT:      -6.8      1.297      1.838
REMARK  Name = 
REMARK  6 active torsions:
REMARK  status: ('A' for Active; 'I' for Inactive)
REMARK    1  A    between atoms: C_1  and  C_2
REMARK    2  A    between atoms: C_6  and  C_7
REMARK    3  A    between atoms: C_7  and  O_8
REMARK    4  A    between atoms: C_9  and  C_10
REMARK    5  A    between atoms: C_10  and  C_12
REMARK    6  A    between atoms: C_12  and  O_14
REMARK                            x       y       z     vdW  Elec       q    Type
REMARK                         _______ _______ _______ _____ _____    ______ ____
ROOT
ATOM      1  C   UNL     1       4.830   4.179  18.272  0.00  0.00    +0.000 C 
ATOM      2  C   UNL     1       4.851   4.502  16.970  0.00  0.00    +0.000 C 
ENDROOT
BRANCH   1   8
ATOM      3  C   UNL     1       1.350   2.698  21.601  0.00  0.00    +0.000 C 
ATOM      4  C   UNL     1       1.982   3.789  20.788  0.00  0.00    +0.000 A 
ATOM      5  C   UNL     1       1.488   5.095  20.832  0.00  0.00    +0.000 A 
ATOM      6  C   UNL     1       2.067   6.089  20.048  0.00  0.00    +0.000 A 
ATOM      7  C   UNL     1       3.140   5.784  19.206  0.00  0.00    +0.000 A 
ATOM      8  C   UNL     1       3.671   4.484  19.150  0.00  0.00    +0.000 A 
ATOM      9  C   UNL     1       3.079   3.499  19.959  0.00  0.00    +0.000 A 
ENDBRANCH   1   8
BRANCH   1  10
ATOM     10  O   UNL     1       5.902   3.545  18.866  0.00  0.00    +0.000 OA
ATOM     11  H   UNL     1       6.723   3.825  18.428  0.00  0.00    +0.000 HD
ENDBRANCH   1  10
BRANCH   2  12
ATOM     12  C   UNL     1       5.975   4.192  16.048  0.00  0.00    +0.000 C 
ATOM     13  O   UNL     1       5.957   3.432  15.087  0.00  0.00    +0.000 OA
BRANCH  12  14
ATOM     14  C   UNL     1       7.298   4.915  16.314  0.00  0.00    +0.000 C 
ATOM     15  O   UNL     1       7.570   6.017  15.881  0.00  0.00    +0.000 OA
BRANCH  14  16
ATOM     16  O   UNL     1       8.102   4.150  17.081  0.00  0.00    +0.000 OA
ATOM     17  H   UNL     1       7.616   3.321  17.311  0.00  0.00    +0.000 HD
ENDBRANCH  14  16
ENDBRANCH  12  14
ENDBRANCH   2  12
TORSDOF 5
ENDMDL
MODEL 6
REMARK VINA RESULT:      -6.8      1.763      2.707
REMARK  Name = 
REMARK  6 active torsions:
REMARK  status: ('A' for Active; 'I' for Inactive)
REMARK    1  A    between atoms: C_1  and  C_2
REMARK    2  A    between atoms: C_6  and  C_7
REMARK    3  A    between atoms: C_7  and  O_8
REMARK    4  A    between atoms: C_9  and  C_10
REMARK    5  A    between atoms: C_10  and  C_12
REMARK    6  A    between atoms: C_12  and  O_14
REMARK                            x       y       z     vdW  Elec       q    Type
REMARK                         _______ _______ _______ _____ _____    ______ ____
ROOT
ATOM      1  C   UNL     1       4.820   4.035  17.962  0.00  0.00    +0.000 C 
ATOM      2  C   UNL     1       5.788   4.536  18.744  0.00  0.00    +0.000 C 
ENDROOT
BRANCH   1   8
ATOM      3  C   UNL     1       1.841   2.644  21.780  0.00  0.00    +0.000 C 
ATOM      4  C   UNL     1       2.005   3.018  20.337  0.00  0.00    +0.000 A 
ATOM      5  C   UNL     1       0.913   3.019  19.467  0.00  0.00    +0.000 A 
ATOM      6  C   UNL     1       1.088   3.339  18.123  0.00  0.00    +0.000 A 
ATOM      7  C   UNL     1       2.360   3.651  17.636  0.00  0.00    +0.000 A 
ATOM      8  C   UNL     1       3.477   3.674  18.487  0.00  0.00    +0.000 A 
ATOM      9  C   UNL     1       3.275   3.360  19.843  0.00  0.00    +0.000 A 
ENDBRANCH   1   8
BRANCH   1  10
ATOM     10  O   UNL     1       5.032   3.821  16.615  0.00  0.00    +0.000 OA
ATOM     11  H   UNL     1       5.547   3.005  16.497  0.00  0.00    +0.000 HD
ENDBRANCH   1  10
BRANCH   2  12
ATOM     12  C   UNL     1       7.134   4.937  18.258  0.00  0.00    +0.000 C 
ATOM     13  O   UNL     1       7.709   4.534  17.254  0.00  0.00    +0.000 OA
BRANCH  12  14
ATOM     14  C   UNL     1       7.880   5.981  19.092  0.00  0.00    +0.000 C 
ATOM     15  O   UNL     1       8.267   7.048  18.659  0.00  0.00    +0.000 OA
BRANCH  14  16
ATOM     16  O   UNL     1       8.045   5.538  20.355  0.00  0.00    +0.000 OA
ATOM     17  H   UNL     1       8.376   6.287  20.908  0.00  0.00    +0.000 HD
ENDBRANCH  14  16
ENDBRANCH  12  14
ENDBRANCH   2  12
TORSDOF 5
ENDMDL
MODEL 7
REMARK VINA RESULT:      -6.8      2.743      6.121
REMARK  Name = 
REMARK  6 active torsions:
REMARK  status: ('A' for Active; 'I' for Inactive)
REMARK    1  A    between atoms: C_1  and  C_2
REMARK    2  A    between atoms: C_6  and  C_7
REMARK    3  A    between atoms: C_7  and  O_8
REMARK    4  A    between atoms: C_9  and  C_10
REMARK    5  A    between atoms: C_10  and  C_12
REMARK    6  A    between atoms: C_12  and  O_14
REMARK                            x       y       z     vdW  Elec       q    Type
REMARK                         _______ _______ _______ _____ _____    ______ ____
ROOT
ATOM      1  C   UNL     1       4.387   3.657  19.009  0.00  0.00    +0.000 C 
ATOM      2  C   UNL     1       3.206   3.689  19.643  0.00  0.00    +0.000 C 
ENDROOT
BRANCH   1   8
ATOM      3  C   UNL     1       5.938   4.177  14.243  0.00  0.00    +0.000 C 
ATOM      4  C   UNL     1       5.417   4.791  15.509  0.00  0.00    +0.000 A 
ATOM      5  C   UNL     1       5.218   6.169  15.609  0.00  0.00    +0.000 A 
ATOM      6  C   UNL     1       4.762   6.726  16.801  0.00  0.00    +0.000 A 
ATOM      7  C   UNL     1       4.511   5.910  17.907  0.00  0.00    +0.000 A 
ATOM      8  C   UNL     1       4.685   4.518  17.835  0.00  0.00    +0.000 A 
ATOM      9  C   UNL     1       5.134   3.975  16.618  0.00  0.00    +0.000 A 
ENDBRANCH   1   8
BRANCH   1  10
ATOM     10  O   UNL     1       5.393   2.805  19.419  0.00  0.00    +0.000 OA
ATOM     11  H   UNL     1       5.851   2.452  18.639  0.00  0.00    +0.000 HD
ENDBRANCH   1  10
BRANCH   2  12
ATOM     12  C   UNL     1       2.873   2.868  20.837  0.00  0.00    +0.000 C 
ATOM     13  O   UNL     1       3.641   2.181  21.501  0.00  0.00    +0.000 OA
BRANCH  12  14
ATOM     14  C   UNL     1       1.415   2.895  21.301  0.00  0.00    +0.000 C 
ATOM     15  O   UNL     1       1.036   2.481  22.378  0.00  0.00    +0.000 OA
BRANCH  14  16
ATOM     16  O   UNL     1       0.630   3.429  20.343  0.00  0.00    +0.000 OA
ATOM     17  H   UNL     1       0.750   4.409  20.352  0.00  0.00    +0.000 HD
ENDBRANCH  14  16
ENDBRANCH  12  14
ENDBRANCH   2  12
TORSDOF 5
ENDMDL
MODEL 8
REMARK VINA RESULT:      -6.7      0.975      1.329
REMARK  Name = 
REMARK  6 active torsions:
REMARK  status: ('A' for Active; 'I' for Inactive)
REMARK    1  A    between atoms: C_1  and  C_2
REMARK    2  A    between atoms: C_6  and  C_7
REMARK    3  A    between atoms: C_7  and  O_8
REMARK    4  A    between atoms: C_9  and  C_10
REMARK    5  A    between atoms: C_10  and  C_12
REMARK    6  A    between atoms: C_12  and  O_14
REMARK                            x       y       z     vdW  Elec       q    Type
REMARK                         _______ _______ _______ _____ _____    ______ ____
ROOT
ATOM      1  C   UNL     1       5.254   4.105  17.795  0.00  0.00    +0.000 C 
ATOM      2  C   UNL     1       5.526   4.444  16.526  0.00  0.00    +0.000 C 
ENDROOT
BRANCH   1   8
ATOM      3  C   UNL     1       1.547   5.686  20.820  0.00  0.00    +0.000 C 
ATOM      4  C   UNL     1       2.039   4.750  19.755  0.00  0.00    +0.000 A 
ATOM      5  C   UNL     1       1.212   3.748  19.242  0.00  0.00    +0.000 A 
ATOM      6  C   UNL     1       1.694   2.868  18.277  0.00  0.00    +0.000 A 
ATOM      7  C   UNL     1       3.011   2.977  17.823  0.00  0.00    +0.000 A 
ATOM      8  C   UNL     1       3.864   3.983  18.306  0.00  0.00    +0.000 A 
ATOM      9  C   UNL     1       3.353   4.868  19.272  0.00  0.00    +0.000 A 
ENDBRANCH   1   8
BRANCH   1  10
ATOM     10  O   UNL     1       6.267   3.857  18.699  0.00  0.00    +0.000 OA
ATOM     11  H   UNL     1       5.890   3.792  19.592  0.00  0.00    +0.000 HD
ENDBRANCH   1  10
BRANCH   2  12
ATOM     12  C   UNL     1       6.898   4.552  15.963  0.00  0.00    +0.000 C 
ATOM     13  O   UNL     1       7.954   4.577  16.585  0.00  0.00    +0.000 OA
BRANCH  12  14
ATOM     14  C   UNL     1       7.008   4.621  14.438  0.00  0.00    +0.000 C 
ATOM     15  O   UNL     1       6.424   3.874  13.678  0.00  0.00    +0.000 OA
BRANCH  14  16
ATOM     16  O   UNL     1       7.847   5.614  14.076  0.00  0.00    +0.000 OA
ATOM     17  H   UNL     1       7.797   6.327  14.757  0.00  0.00    +0.000 HD
ENDBRANCH  14  16
ENDBRANCH  12  14
ENDBRANCH   2  12
TORSDOF 5
ENDMDL
MODEL 9
REMARK VINA RESULT:      -6.7      1.800      2.210
REMARK  Name = 
REMARK  6 active torsions:
REMARK  status: ('A' for Active; 'I' for Inactive)
REMARK    1  A    between atoms: C_1  and  C_2
REMARK    2  A    between atoms: C_6  and  C_7
REMARK    3  A    between atoms: C_7  and  O_8
REMARK    4  A    between atoms: C_9  and  C_10
REMARK    5  A    between atoms: C_10  and  C_12
REMARK    6  A    between atoms: C_12  and  O_14
REMARK                            x       y       z     vdW  Elec       q    Type
REMARK                         _______ _______ _______ _____ _____    ______ ____
ROOT
ATOM      1  C   UNL     1       5.193   4.397  18.391  0.00  0.00    +0.000 C 
ATOM      2  C   UNL     1       5.861   5.345  19.066  0.00  0.00    +0.000 C 
ENDROOT
BRANCH   1   8
ATOM      3  C   UNL     1       1.624   2.729  21.531  0.00  0.00    +0.000 C 
ATOM      4  C   UNL     1       2.014   3.281  20.192  0.00  0.00    +0.000 A 
ATOM      5  C   UNL     1       1.061   3.481  19.192  0.00  0.00    +0.000 A 
ATOM      6  C   UNL     1       1.445   3.965  17.945  0.00  0.00    +0.000 A 
ATOM      7  C   UNL     1       2.789   4.245  17.684  0.00  0.00    +0.000 A 
ATOM      8  C   UNL     1       3.772   4.069  18.672  0.00  0.00    +0.000 A 
ATOM      9  C   UNL     1       3.359   3.591  19.929  0.00  0.00    +0.000 A 
ENDBRANCH   1   8
BRANCH   1  10
ATOM     10  O   UNL     1       5.808   3.667  17.394  0.00  0.00    +0.000 OA
ATOM     11  H   UNL     1       6.458   3.065  17.792  0.00  0.00    +0.000 HD
ENDBRANCH   1  10
BRANCH   2  12
ATOM     12  C   UNL     1       7.273   5.725  18.802  0.00  0.00    +0.000 C 
ATOM     13  O   UNL     1       8.272   5.315  19.381  0.00  0.00    +0.000 OA
BRANCH  12  14
ATOM     14  C   UNL     1       7.511   6.726  17.669  0.00  0.00    +0.000 C 
ATOM     15  O   UNL     1       7.725   7.910  17.840  0.00  0.00    +0.000 OA
BRANCH  14  16
ATOM     16  O   UNL     1       7.438   6.105  16.474  0.00  0.00    +0.000 OA
ATOM     17  H   UNL     1       6.978   5.240  16.600  0.00  0.00    +0.000 HD
ENDBRANCH  14  16
ENDBRANCH  12  14
ENDBRANCH   2  12
TORSDOF 5
ENDMDL
