MODEL 1
REMARK VINA RESULT:      -7.5      0.000      0.000
REMARK  Name = 
REMARK  12 active torsions:
REMARK  status: ('A' for Active; 'I' for Inactive)
REMARK    1  A    between atoms: C_1  and  C_2
REMARK    2  A    between atoms: C_2  and  C_3
REMARK    3  A    between atoms: C_2  and  C_4
REMARK    4  A    between atoms: C_4  and  C_5
REMARK    5  A    between atoms: C_5  and  C_7
REMARK    6  A    between atoms: N_12  and  C_13
REMARK    7  A    between atoms: C_16  and  C_17
REMARK    8  A    between atoms: C_24  and  C_25
REMARK    9  A    between atoms: C_30  and  O_31
REMARK   10  A    between atoms: O_31  and  C_32
REMARK   11  A    between atoms: C_32  and  C_33
REMARK   12  A    between atoms: C_32  and  C_34
REMARK                            x       y       z     vdW  Elec       q    Type
REMARK                         _______ _______ _______ _____ _____    ______ ____
ROOT
ATOM      1  C   UNL     1      -0.984  13.433  19.569  0.00  0.00    +0.000 C 
ATOM      2  C   UNL     1       0.455  13.790  19.450  0.00  0.00    +0.000 C 
ATOM      3  O   UNL     1       0.921  14.921  19.464  0.00  0.00    +0.000 OA
ATOM      4  C   UNL     1       1.260  12.556  19.165  0.00  0.00    +0.000 C 
ATOM      5  O   UNL     1       2.460  12.585  18.963  0.00  0.00    +0.000 OA
ATOM      6  N   UNL     1       0.376  11.488  19.202  0.00  0.00    +0.000 N 
ATOM      7  C   UNL     1      -0.997  11.881  19.565  0.00  0.00    +0.000 C 
ENDROOT
BRANCH   6   8
ATOM      8  C   UNL     1       0.856  10.156  19.106  0.00  0.00    +0.000 A 
ATOM      9  C   UNL     1       0.881   9.301  20.208  0.00  0.00    +0.000 A 
ATOM     10  C   UNL     1       1.498   8.043  20.111  0.00  0.00    +0.000 A 
ATOM     11  C   UNL     1       2.057   7.599  18.902  0.00  0.00    +0.000 A 
ATOM     12  C   UNL     1       1.982   8.437  17.787  0.00  0.00    +0.000 A 
ATOM     13  C   UNL     1       1.404   9.704  17.895  0.00  0.00    +0.000 A 
BRANCH  11  14
ATOM     14  C   UNL     1       2.706   6.298  18.812  0.00  0.00    +0.000 A 
ATOM     15  C   UNL     1       2.447   5.197  17.950  0.00  0.00    +0.000 A 
ATOM     16  C   UNL     1       3.349   4.212  18.283  0.00  0.00    +0.000 A 
ATOM     17  O   UNL     1       4.141   4.624  19.303  0.00  0.00    +0.000 OA
ATOM     18  C   UNL     1       3.746   5.884  19.622  0.00  0.00    +0.000 A 
ENDBRANCH  11  14
ENDBRANCH   6   8
BRANCH   7  19
ATOM     19  C   UNL     1      -2.036  11.406  18.529  0.00  0.00    +0.000 A 
ATOM     20  C   UNL     1      -1.522  10.846  17.328  0.00  0.00    +0.000 A 
ATOM     21  C   UNL     1      -2.348  10.456  16.277  0.00  0.00    +0.000 A 
ATOM     22  C   UNL     1      -3.718  10.538  16.426  0.00  0.00    +0.000 A 
ATOM     23  C   UNL     1      -4.255  11.037  17.612  0.00  0.00    +0.000 A 
ATOM     24  C   UNL     1      -3.442  11.546  18.646  0.00  0.00    +0.000 A 
BRANCH  24  25
ATOM     25  O   UNL     1      -3.992  12.179  19.747  0.00  0.00    +0.000 OA
BRANCH  25  26
ATOM     26  C   UNL     1      -5.394  12.559  19.636  0.00  0.00    +0.000 C 
ATOM     27  C   UNL     1      -6.293  11.682  20.514  0.00  0.00    +0.000 C 
ATOM     28  C   UNL     1      -5.575  14.030  20.005  0.00  0.00    +0.000 C 
ENDBRANCH  25  26
ENDBRANCH  24  25
ENDBRANCH   7  19
BRANCH   1  29
ATOM     29  C   UNL     1      -1.637  14.010  20.787  0.00  0.00    +0.000 C 
ATOM     30  O   UNL     1      -2.390  14.980  20.714  0.00  0.00    +0.000 OA
BRANCH  29  31
ATOM     31  C   UNL     1      -1.248  13.386  22.115  0.00  0.00    +0.000 C 
BRANCH  31  33
ATOM     32  C   UNL     1      -1.368  11.067  23.132  0.00  0.00    +0.000 C 
ATOM     33  C   UNL     1      -2.164  12.238  22.549  0.00  0.00    +0.000 C 
ATOM     34  C   UNL     1      -3.162  12.750  23.589  0.00  0.00    +0.000 C 
ENDBRANCH  31  33
ENDBRANCH  29  31
ENDBRANCH   1  29
TORSDOF 8
ENDMDL
MODEL 2
REMARK VINA RESULT:      -7.4      0.748      1.147
REMARK  Name = 
REMARK  12 active torsions:
REMARK  status: ('A' for Active; 'I' for Inactive)
REMARK    1  A    between atoms: C_1  and  C_2
REMARK    2  A    between atoms: C_2  and  C_3
REMARK    3  A    between atoms: C_2  and  C_4
REMARK    4  A    between atoms: C_4  and  C_5
REMARK    5  A    between atoms: C_5  and  C_7
REMARK    6  A    between atoms: N_12  and  C_13
REMARK    7  A    between atoms: C_16  and  C_17
REMARK    8  A    between atoms: C_24  and  C_25
REMARK    9  A    between atoms: C_30  and  O_31
REMARK   10  A    between atoms: O_31  and  C_32
REMARK   11  A    between atoms: C_32  and  C_33
REMARK   12  A    between atoms: C_32  and  C_34
REMARK                            x       y       z     vdW  Elec       q    Type
REMARK                         _______ _______ _______ _____ _____    ______ ____
ROOT
ATOM      1  C   UNL     1      -1.100  13.619  19.562  0.00  0.00    +0.000 C 
ATOM      2  C   UNL     1       0.316  14.052  19.425  0.00  0.00    +0.000 C 
ATOM      3  O   UNL     1       0.709  15.205  19.303  0.00  0.00    +0.000 OA
ATOM      4  C   UNL     1       1.206  12.849  19.317  0.00  0.00    +0.000 C 
ATOM      5  O   UNL     1       2.407  12.932  19.137  0.00  0.00    +0.000 OA
ATOM      6  N   UNL     1       0.391  11.737  19.475  0.00  0.00    +0.000 N 
ATOM      7  C   UNL     1      -1.014  12.081  19.758  0.00  0.00    +0.000 C 
ENDROOT
BRANCH   6   8
ATOM      8  C   UNL     1       0.958  10.439  19.561  0.00  0.00    +0.000 A 
ATOM      9  C   UNL     1       1.557   9.823  18.463  0.00  0.00    +0.000 A 
ATOM     10  C   UNL     1       1.973   8.484  18.546  0.00  0.00    +0.000 A 
ATOM     11  C   UNL     1       1.841   7.754  19.737  0.00  0.00    +0.000 A 
ATOM     12  C   UNL     1       1.289   8.392  20.850  0.00  0.00    +0.000 A 
ATOM     13  C   UNL     1       0.839   9.711  20.756  0.00  0.00    +0.000 A 
BRANCH  11  14
ATOM     14  C   UNL     1       2.263   6.363  19.813  0.00  0.00    +0.000 A 
ATOM     15  C   UNL     1       1.747   5.282  20.580  0.00  0.00    +0.000 A 
ATOM     16  C   UNL     1       2.513   4.180  20.280  0.00  0.00    +0.000 A 
ATOM     17  O   UNL     1       3.479   4.506  19.387  0.00  0.00    +0.000 OA
ATOM     18  C   UNL     1       3.327   5.828  19.111  0.00  0.00    +0.000 A 
ENDBRANCH  11  14
ENDBRANCH   6   8
BRANCH   7  19
ATOM     19  C   UNL     1      -1.991  11.409  18.771  0.00  0.00    +0.000 A 
ATOM     20  C   UNL     1      -1.408  10.687  17.696  0.00  0.00    +0.000 A 
ATOM     21  C   UNL     1      -2.175  10.104  16.690  0.00  0.00    +0.000 A 
ATOM     22  C   UNL     1      -3.552  10.158  16.771  0.00  0.00    +0.000 A 
ATOM     23  C   UNL     1      -4.155  10.818  17.840  0.00  0.00    +0.000 A 
ATOM     24  C   UNL     1      -3.405  11.514  18.810  0.00  0.00    +0.000 A 
BRANCH  24  25
ATOM     25  O   UNL     1      -4.022  12.292  19.774  0.00  0.00    +0.000 OA
BRANCH  25  26
ATOM     26  C   UNL     1      -5.451  12.516  19.601  0.00  0.00    +0.000 C 
ATOM     27  C   UNL     1      -6.277  11.752  20.641  0.00  0.00    +0.000 C 
ATOM     28  C   UNL     1      -5.765  14.009  19.674  0.00  0.00    +0.000 C 
ENDBRANCH  25  26
ENDBRANCH  24  25
ENDBRANCH   7  19
BRANCH   1  29
ATOM     29  C   UNL     1      -1.822  14.301  20.682  0.00  0.00    +0.000 C 
ATOM     30  O   UNL     1      -2.565  15.260  20.478  0.00  0.00    +0.000 OA
BRANCH  29  31
ATOM     31  C   UNL     1      -1.516  13.798  22.081  0.00  0.00    +0.000 C 
BRANCH  31  33
ATOM     32  C   UNL     1      -1.942  11.601  23.273  0.00  0.00    +0.000 C 
ATOM     33  C   UNL     1      -2.575  12.843  22.638  0.00  0.00    +0.000 C 
ATOM     34  C   UNL     1      -3.424  13.577  23.678  0.00  0.00    +0.000 C 
ENDBRANCH  31  33
ENDBRANCH  29  31
ENDBRANCH   1  29
TORSDOF 8
ENDMDL
MODEL 3
REMARK VINA RESULT:      -7.4      1.753      2.781
REMARK  Name = 
REMARK  12 active torsions:
REMARK  status: ('A' for Active; 'I' for Inactive)
REMARK    1  A    between atoms: C_1  and  C_2
REMARK    2  A    between atoms: C_2  and  C_3
REMARK    3  A    between atoms: C_2  and  C_4
REMARK    4  A    between atoms: C_4  and  C_5
REMARK    5  A    between atoms: C_5  and  C_7
REMARK    6  A    between atoms: N_12  and  C_13
REMARK    7  A    between atoms: C_16  and  C_17
REMARK    8  A    between atoms: C_24  and  C_25
REMARK    9  A    between atoms: C_30  and  O_31
REMARK   10  A    between atoms: O_31  and  C_32
REMARK   11  A    between atoms: C_32  and  C_33
REMARK   12  A    between atoms: C_32  and  C_34
REMARK                            x       y       z     vdW  Elec       q    Type
REMARK                         _______ _______ _______ _____ _____    ______ ____
ROOT
ATOM      1  C   UNL     1       0.058  14.101  19.168  0.00  0.00    +0.000 C 
ATOM      2  C   UNL     1       1.424  14.075  18.580  0.00  0.00    +0.000 C 
ATOM      3  O   UNL     1       2.033  15.036  18.128  0.00  0.00    +0.000 OA
ATOM      4  C   UNL     1       1.909  12.658  18.487  0.00  0.00    +0.000 C 
ATOM      5  O   UNL     1       2.977  12.359  17.985  0.00  0.00    +0.000 OA
ATOM      6  N   UNL     1       0.934  11.865  19.075  0.00  0.00    +0.000 N 
ATOM      7  C   UNL     1      -0.183  12.642  19.641  0.00  0.00    +0.000 C 
ENDROOT
BRANCH   6   8
ATOM      8  C   UNL     1       1.158  10.478  19.269  0.00  0.00    +0.000 A 
ATOM      9  C   UNL     1       0.944   9.864  20.503  0.00  0.00    +0.000 A 
ATOM     10  C   UNL     1       1.317   8.524  20.697  0.00  0.00    +0.000 A 
ATOM     11  C   UNL     1       1.864   7.762  19.653  0.00  0.00    +0.000 A 
ATOM     12  C   UNL     1       2.027   8.367  18.404  0.00  0.00    +0.000 A 
ATOM     13  C   UNL     1       1.694   9.711  18.222  0.00  0.00    +0.000 A 
BRANCH  11  14
ATOM     14  C   UNL     1       2.259   6.377  19.865  0.00  0.00    +0.000 A 
ATOM     15  C   UNL     1       1.593   5.322  20.548  0.00  0.00    +0.000 A 
ATOM     16  C   UNL     1       2.404   4.214  20.453  0.00  0.00    +0.000 A 
ATOM     17  O   UNL     1       3.534   4.514  19.768  0.00  0.00    +0.000 OA
ATOM     18  C   UNL     1       3.445   5.824  19.418  0.00  0.00    +0.000 A 
ENDBRANCH  11  14
ENDBRANCH   6   8
BRANCH   7  19
ATOM     19  C   UNL     1      -1.553  12.177  19.103  0.00  0.00    +0.000 A 
ATOM     20  C   UNL     1      -1.550  11.538  17.834  0.00  0.00    +0.000 A 
ATOM     21  C   UNL     1      -2.724  11.146  17.197  0.00  0.00    +0.000 A 
ATOM     22  C   UNL     1      -3.932  11.307  17.845  0.00  0.00    +0.000 A 
ATOM     23  C   UNL     1      -3.964  11.886  19.112  0.00  0.00    +0.000 A 
ATOM     24  C   UNL     1      -2.804  12.397  19.731  0.00  0.00    +0.000 A 
BRANCH  24  25
ATOM     25  O   UNL     1      -2.876  13.106  20.917  0.00  0.00    +0.000 OA
BRANCH  25  26
ATOM     26  C   UNL     1      -3.841  12.625  21.896  0.00  0.00    +0.000 C 
ATOM     27  C   UNL     1      -3.171  12.263  23.226  0.00  0.00    +0.000 C 
ATOM     28  C   UNL     1      -4.931  13.670  22.125  0.00  0.00    +0.000 C 
ENDBRANCH  25  26
ENDBRANCH  24  25
ENDBRANCH   7  19
BRANCH   1  29
ATOM     29  C   UNL     1      -0.089  15.096  20.277  0.00  0.00    +0.000 C 
ATOM     30  O   UNL     1       0.584  15.019  21.304  0.00  0.00    +0.000 OA
BRANCH  29  31
ATOM     31  C   UNL     1      -1.171  16.145  20.096  0.00  0.00    +0.000 C 
BRANCH  31  33
ATOM     32  C   UNL     1      -2.097  18.045  18.695  0.00  0.00    +0.000 C 
ATOM     33  C   UNL     1      -0.913  17.102  18.928  0.00  0.00    +0.000 C 
ATOM     34  C   UNL     1       0.348  17.919  19.210  0.00  0.00    +0.000 C 
ENDBRANCH  31  33
ENDBRANCH  29  31
ENDBRANCH   1  29
TORSDOF 8
ENDMDL
MODEL 4
REMARK VINA RESULT:      -7.4      3.381     10.028
REMARK  Name = 
REMARK  12 active torsions:
REMARK  status: ('A' for Active; 'I' for Inactive)
REMARK    1  A    between atoms: C_1  and  C_2
REMARK    2  A    between atoms: C_2  and  C_3
REMARK    3  A    between atoms: C_2  and  C_4
REMARK    4  A    between atoms: C_4  and  C_5
REMARK    5  A    between atoms: C_5  and  C_7
REMARK    6  A    between atoms: N_12  and  C_13
REMARK    7  A    between atoms: C_16  and  C_17
REMARK    8  A    between atoms: C_24  and  C_25
REMARK    9  A    between atoms: C_30  and  O_31
REMARK   10  A    between atoms: O_31  and  C_32
REMARK   11  A    between atoms: C_32  and  C_33
REMARK   12  A    between atoms: C_32  and  C_34
REMARK                            x       y       z     vdW  Elec       q    Type
REMARK                         _______ _______ _______ _____ _____    ______ ____
ROOT
ATOM      1  C   UNL     1       3.917   3.232  18.434  0.00  0.00    +0.000 C 
ATOM      2  C   UNL     1       2.593   3.184  17.760  0.00  0.00    +0.000 C 
ATOM      3  O   UNL     1       2.082   2.199  17.242  0.00  0.00    +0.000 OA
ATOM      4  C   UNL     1       2.015   4.566  17.679  0.00  0.00    +0.000 C 
ATOM      5  O   UNL     1       0.962   4.808  17.118  0.00  0.00    +0.000 OA
ATOM      6  N   UNL     1       2.893   5.403  18.351  0.00  0.00    +0.000 N 
ATOM      7  C   UNL     1       4.025   4.687  18.965  0.00  0.00    +0.000 C 
ENDROOT
BRANCH   6   8
ATOM      8  C   UNL     1       2.560   6.764  18.572  0.00  0.00    +0.000 A 
ATOM      9  C   UNL     1       2.076   7.214  19.800  0.00  0.00    +0.000 A 
ATOM     10  C   UNL     1       1.617   8.535  19.936  0.00  0.00    +0.000 A 
ATOM     11  C   UNL     1       1.678   9.441  18.866  0.00  0.00    +0.000 A 
ATOM     12  C   UNL     1       2.213   9.000  17.653  0.00  0.00    +0.000 A 
ATOM     13  C   UNL     1       2.632   7.676  17.506  0.00  0.00    +0.000 A 
BRANCH  11  14
ATOM     14  C   UNL     1       1.190  10.804  19.011  0.00  0.00    +0.000 A 
ATOM     15  C   UNL     1       0.017  11.302  19.644  0.00  0.00    +0.000 A 
ATOM     16  C   UNL     1       0.035  12.669  19.492  0.00  0.00    +0.000 A 
ATOM     17  O   UNL     1       1.133  13.053  18.797  0.00  0.00    +0.000 OA
ATOM     18  C   UNL     1       1.826  11.921  18.504  0.00  0.00    +0.000 A 
ENDBRANCH  11  14
ENDBRANCH   6   8
BRANCH   7  19
ATOM     19  C   UNL     1       5.389   5.263  18.530  0.00  0.00    +0.000 A 
ATOM     20  C   UNL     1       6.329   5.516  19.565  0.00  0.00    +0.000 A 
ATOM     21  C   UNL     1       7.562   6.112  19.319  0.00  0.00    +0.000 A 
ATOM     22  C   UNL     1       7.928   6.401  18.019  0.00  0.00    +0.000 A 
ATOM     23  C   UNL     1       7.048   6.120  16.976  0.00  0.00    +0.000 A 
ATOM     24  C   UNL     1       5.748   5.623  17.206  0.00  0.00    +0.000 A 
BRANCH  24  25
ATOM     25  O   UNL     1       4.834   5.496  16.175  0.00  0.00    +0.000 OA
BRANCH  25  26
ATOM     26  C   UNL     1       5.162   4.522  15.142  0.00  0.00    +0.000 C 
ATOM     27  C   UNL     1       6.057   5.125  14.055  0.00  0.00    +0.000 C 
ATOM     28  C   UNL     1       5.838   3.301  15.762  0.00  0.00    +0.000 C 
ENDBRANCH  25  26
ENDBRANCH  24  25
ENDBRANCH   7  19
BRANCH   1  29
ATOM     29  C   UNL     1       4.066   2.212  19.520  0.00  0.00    +0.000 C 
ATOM     30  O   UNL     1       4.483   1.079  19.284  0.00  0.00    +0.000 OA
BRANCH  29  31
ATOM     31  C   UNL     1       3.592   2.629  20.901  0.00  0.00    +0.000 C 
BRANCH  31  33
ATOM     32  C   UNL     1       1.613   1.833  22.271  0.00  0.00    +0.000 C 
ATOM     33  C   UNL     1       2.069   2.641  21.052  0.00  0.00    +0.000 C 
ATOM     34  C   UNL     1       1.582   4.086  21.183  0.00  0.00    +0.000 C 
ENDBRANCH  31  33
ENDBRANCH  29  31
ENDBRANCH   1  29
TORSDOF 8
ENDMDL
MODEL 5
REMARK VINA RESULT:      -7.3      1.519      2.209
REMARK  Name = 
REMARK  12 active torsions:
REMARK  status: ('A' for Active; 'I' for Inactive)
REMARK    1  A    between atoms: C_1  and  C_2
REMARK    2  A    between atoms: C_2  and  C_3
REMARK    3  A    between atoms: C_2  and  C_4
REMARK    4  A    between atoms: C_4  and  C_5
REMARK    5  A    between atoms: C_5  and  C_7
REMARK    6  A    between atoms: N_12  and  C_13
REMARK    7  A    between atoms: C_16  and  C_17
REMARK    8  A    between atoms: C_24  and  C_25
REMARK    9  A    between atoms: C_30  and  O_31
REMARK   10  A    between atoms: O_31  and  C_32
REMARK   11  A    between atoms: C_32  and  C_33
REMARK   12  A    between atoms: C_32  and  C_34
REMARK                            x       y       z     vdW  Elec       q    Type
REMARK                         _______ _______ _______ _____ _____    ______ ____
ROOT
ATOM      1  C   UNL     1      -0.189  13.666  19.042  0.00  0.00    +0.000 C 
ATOM      2  C   UNL     1       1.214  13.730  18.553  0.00  0.00    +0.000 C 
ATOM      3  O   UNL     1       1.792  14.731  18.150  0.00  0.00    +0.000 OA
ATOM      4  C   UNL     1       1.792  12.347  18.490  0.00  0.00    +0.000 C 
ATOM      5  O   UNL     1       2.910  12.119  18.064  0.00  0.00    +0.000 OA
ATOM      6  N   UNL     1       0.830  11.491  19.003  0.00  0.00    +0.000 N 
ATOM      7  C   UNL     1      -0.372  12.191  19.491  0.00  0.00    +0.000 C 
ENDROOT
BRANCH   6   8
ATOM      8  C   UNL     1       1.126  10.119  19.208  0.00  0.00    +0.000 A 
ATOM      9  C   UNL     1       0.967   9.509  20.452  0.00  0.00    +0.000 A 
ATOM     10  C   UNL     1       1.410   8.191  20.653  0.00  0.00    +0.000 A 
ATOM     11  C   UNL     1       1.973   7.445  19.606  0.00  0.00    +0.000 A 
ATOM     12  C   UNL     1       2.081   8.042  18.348  0.00  0.00    +0.000 A 
ATOM     13  C   UNL     1       1.678   9.366  18.158  0.00  0.00    +0.000 A 
BRANCH  11  14
ATOM     14  C   UNL     1       2.441   6.084  19.824  0.00  0.00    +0.000 A 
ATOM     15  C   UNL     1       1.844   5.007  20.537  0.00  0.00    +0.000 A 
ATOM     16  C   UNL     1       2.705   3.938  20.435  0.00  0.00    +0.000 A 
ATOM     17  O   UNL     1       3.802   4.283  19.717  0.00  0.00    +0.000 OA
ATOM     18  C   UNL     1       3.640   5.583  19.354  0.00  0.00    +0.000 A 
ENDBRANCH  11  14
ENDBRANCH   6   8
BRANCH   7  19
ATOM     19  C   UNL     1      -1.667  11.646  18.854  0.00  0.00    +0.000 A 
ATOM     20  C   UNL     1      -1.507  10.740  17.771  0.00  0.00    +0.000 A 
ATOM     21  C   UNL     1      -2.591  10.240  17.055  0.00  0.00    +0.000 A 
ATOM     22  C   UNL     1      -3.873  10.567  17.450  0.00  0.00    +0.000 A 
ATOM     23  C   UNL     1      -4.064  11.415  18.540  0.00  0.00    +0.000 A 
ATOM     24  C   UNL     1      -2.985  12.027  19.211  0.00  0.00    +0.000 A 
BRANCH  24  25
ATOM     25  O   UNL     1      -3.197  12.984  20.187  0.00  0.00    +0.000 OA
BRANCH  25  26
ATOM     26  C   UNL     1      -3.691  12.496  21.468  0.00  0.00    +0.000 C 
ATOM     27  C   UNL     1      -2.641  12.640  22.575  0.00  0.00    +0.000 C 
ATOM     28  C   UNL     1      -4.969  13.235  21.859  0.00  0.00    +0.000 C 
ENDBRANCH  25  26
ENDBRANCH  24  25
ENDBRANCH   7  19
BRANCH   1  29
ATOM     29  C   UNL     1      -0.477  14.641  20.141  0.00  0.00    +0.000 C 
ATOM     30  O   UNL     1      -1.274  15.566  19.987  0.00  0.00    +0.000 OA
BRANCH  29  31
ATOM     31  C   UNL     1       0.331  14.473  21.415  0.00  0.00    +0.000 C 
BRANCH  31  33
ATOM     32  C   UNL     1       0.732  16.402  23.011  0.00  0.00    +0.000 C 
ATOM     33  C   UNL     1       1.213  15.679  21.750  0.00  0.00    +0.000 C 
ATOM     34  C   UNL     1       2.658  15.213  21.943  0.00  0.00    +0.000 C 
ENDBRANCH  31  33
ENDBRANCH  29  31
ENDBRANCH   1  29
TORSDOF 8
ENDMDL
MODEL 6
REMARK VINA RESULT:      -7.1      7.668     11.803
REMARK  Name = 
REMARK  12 active torsions:
REMARK  status: ('A' for Active; 'I' for Inactive)
REMARK    1  A    between atoms: C_1  and  C_2
REMARK    2  A    between atoms: C_2  and  C_3
REMARK    3  A    between atoms: C_2  and  C_4
REMARK    4  A    between atoms: C_4  and  C_5
REMARK    5  A    between atoms: C_5  and  C_7
REMARK    6  A    between atoms: N_12  and  C_13
REMARK    7  A    between atoms: C_16  and  C_17
REMARK    8  A    between atoms: C_24  and  C_25
REMARK    9  A    between atoms: C_30  and  O_31
REMARK   10  A    between atoms: O_31  and  C_32
REMARK   11  A    between atoms: C_32  and  C_33
REMARK   12  A    between atoms: C_32  and  C_34
REMARK                            x       y       z     vdW  Elec       q    Type
REMARK                         _______ _______ _______ _____ _____    ______ ____
ROOT
ATOM      1  C   UNL     1      10.638  13.735  20.262  0.00  0.00    +0.000 C 
ATOM      2  C   UNL     1      10.960  14.379  18.961  0.00  0.00    +0.000 C 
ATOM      3  O   UNL     1      12.040  14.346  18.387  0.00  0.00    +0.000 OA
ATOM      4  C   UNL     1       9.794  15.206  18.503  0.00  0.00    +0.000 C 
ATOM      5  O   UNL     1       9.824  15.885  17.493  0.00  0.00    +0.000 OA
ATOM      6  N   UNL     1       8.778  15.005  19.426  0.00  0.00    +0.000 N 
ATOM      7  C   UNL     1       9.129  14.029  20.473  0.00  0.00    +0.000 C 
ENDROOT
BRANCH   6   8
ATOM      8  C   UNL     1       7.486  15.546  19.200  0.00  0.00    +0.000 A 
ATOM      9  C   UNL     1       7.060  16.718  19.822  0.00  0.00    +0.000 A 
ATOM     10  C   UNL     1       5.727  17.142  19.691  0.00  0.00    +0.000 A 
ATOM     11  C   UNL     1       4.812  16.430  18.899  0.00  0.00    +0.000 A 
ATOM     12  C   UNL     1       5.259  15.286  18.234  0.00  0.00    +0.000 A 
ATOM     13  C   UNL     1       6.573  14.842  18.397  0.00  0.00    +0.000 A 
BRANCH  11  14
ATOM     14  C   UNL     1       3.429  16.869  18.776  0.00  0.00    +0.000 A 
ATOM     15  C   UNL     1       2.577  16.927  17.639  0.00  0.00    +0.000 A 
ATOM     16  C   UNL     1       1.369  17.420  18.073  0.00  0.00    +0.000 A 
ATOM     17  O   UNL     1       1.417  17.684  19.401  0.00  0.00    +0.000 OA
ATOM     18  C   UNL     1       2.666  17.354  19.821  0.00  0.00    +0.000 A 
ENDBRANCH  11  14
ENDBRANCH   6   8
BRANCH   7  19
ATOM     19  C   UNL     1       8.939  14.601  21.894  0.00  0.00    +0.000 A 
ATOM     20  C   UNL     1       9.925  15.521  22.343  0.00  0.00    +0.000 A 
ATOM     21  C   UNL     1       9.919  16.046  23.632  0.00  0.00    +0.000 A 
ATOM     22  C   UNL     1       8.881  15.731  24.486  0.00  0.00    +0.000 A 
ATOM     23  C   UNL     1       7.872  14.870  24.059  0.00  0.00    +0.000 A 
ATOM     24  C   UNL     1       7.914  14.234  22.801  0.00  0.00    +0.000 A 
BRANCH  24  25
ATOM     25  O   UNL     1       6.988  13.265  22.455  0.00  0.00    +0.000 OA
BRANCH  25  26
ATOM     26  C   UNL     1       7.156  11.961  23.081  0.00  0.00    +0.000 C 
ATOM     27  C   UNL     1       8.556  11.796  23.683  0.00  0.00    +0.000 C 
ATOM     28  C   UNL     1       6.094  11.749  24.158  0.00  0.00    +0.000 C 
ENDBRANCH  25  26
ENDBRANCH  24  25
ENDBRANCH   7  19
BRANCH   1  29
ATOM     29  C   UNL     1      10.947  12.270  20.289  0.00  0.00    +0.000 C 
ATOM     30  O   UNL     1      12.105  11.859  20.355  0.00  0.00    +0.000 OA
BRANCH  29  31
ATOM     31  C   UNL     1       9.762  11.333  20.143  0.00  0.00    +0.000 C 
BRANCH  31  33
ATOM     32  C   UNL     1       8.888   9.390  18.768  0.00  0.00    +0.000 C 
ATOM     33  C   UNL     1       9.617  10.737  18.740  0.00  0.00    +0.000 C 
ATOM     34  C   UNL     1       8.852  11.717  17.849  0.00  0.00    +0.000 C 
ENDBRANCH  31  33
ENDBRANCH  29  31
ENDBRANCH   1  29
TORSDOF 8
ENDMDL
MODEL 7
REMARK VINA RESULT:      -7.0      2.681      5.687
REMARK  Name = 
REMARK  12 active torsions:
REMARK  status: ('A' for Active; 'I' for Inactive)
REMARK    1  A    between atoms: C_1  and  C_2
REMARK    2  A    between atoms: C_2  and  C_3
REMARK    3  A    between atoms: C_2  and  C_4
REMARK    4  A    between atoms: C_4  and  C_5
REMARK    5  A    between atoms: C_5  and  C_7
REMARK    6  A    between atoms: N_12  and  C_13
REMARK    7  A    between atoms: C_16  and  C_17
REMARK    8  A    between atoms: C_24  and  C_25
REMARK    9  A    between atoms: C_30  and  O_31
REMARK   10  A    between atoms: O_31  and  C_32
REMARK   11  A    between atoms: C_32  and  C_33
REMARK   12  A    between atoms: C_32  and  C_34
REMARK                            x       y       z     vdW  Elec       q    Type
REMARK                         _______ _______ _______ _____ _____    ______ ____
ROOT
ATOM      1  C   UNL     1      -3.294  13.185  20.755  0.00  0.00    +0.000 C 
ATOM      2  C   UNL     1      -3.237  14.670  20.804  0.00  0.00    +0.000 C 
ATOM      3  O   UNL     1      -4.189  15.424  20.957  0.00  0.00    +0.000 OA
ATOM      4  C   UNL     1      -1.843  15.134  20.497  0.00  0.00    +0.000 C 
ATOM      5  O   UNL     1      -1.544  16.312  20.414  0.00  0.00    +0.000 OA
ATOM      6  N   UNL     1      -1.066  13.993  20.361  0.00  0.00    +0.000 N 
ATOM      7  C   UNL     1      -1.810  12.748  20.622  0.00  0.00    +0.000 C 
ENDROOT
BRANCH   6   8
ATOM      8  C   UNL     1       0.340  14.098  20.202  0.00  0.00    +0.000 A 
ATOM      9  C   UNL     1       1.198  14.216  21.295  0.00  0.00    +0.000 A 
ATOM     10  C   UNL     1       2.565  14.466  21.094  0.00  0.00    +0.000 A 
ATOM     11  C   UNL     1       3.107  14.555  19.802  0.00  0.00    +0.000 A 
ATOM     12  C   UNL     1       2.252  14.382  18.710  0.00  0.00    +0.000 A 
ATOM     13  C   UNL     1       0.886  14.174  18.910  0.00  0.00    +0.000 A 
BRANCH  11  14
ATOM     14  C   UNL     1       4.523  14.825  19.601  0.00  0.00    +0.000 A 
ATOM     15  C   UNL     1       5.277  14.952  18.402  0.00  0.00    +0.000 A 
ATOM     16  C   UNL     1       6.577  15.207  18.775  0.00  0.00    +0.000 A 
ATOM     17  O   UNL     1       6.682  15.236  20.126  0.00  0.00    +0.000 OA
ATOM     18  C   UNL     1       5.439  15.000  20.621  0.00  0.00    +0.000 A 
ENDBRANCH  11  14
ENDBRANCH   6   8
BRANCH   7  19
ATOM     19  C   UNL     1      -1.701  11.745  19.455  0.00  0.00    +0.000 A 
ATOM     20  C   UNL     1      -2.699  11.836  18.447  0.00  0.00    +0.000 A 
ATOM     21  C   UNL     1      -2.765  10.938  17.384  0.00  0.00    +0.000 A 
ATOM     22  C   UNL     1      -1.789   9.971  17.253  0.00  0.00    +0.000 A 
ATOM     23  C   UNL     1      -0.769   9.887  18.199  0.00  0.00    +0.000 A 
ATOM     24  C   UNL     1      -0.741  10.707  19.346  0.00  0.00    +0.000 A 
BRANCH  24  25
ATOM     25  O   UNL     1       0.189  10.507  20.350  0.00  0.00    +0.000 OA
BRANCH  25  26
ATOM     26  C   UNL     1      -0.061   9.382  21.242  0.00  0.00    +0.000 C 
ATOM     27  C   UNL     1       1.096   8.377  21.228  0.00  0.00    +0.000 C 
ATOM     28  C   UNL     1      -0.306   9.879  22.665  0.00  0.00    +0.000 C 
ENDBRANCH  25  26
ENDBRANCH  24  25
ENDBRANCH   7  19
BRANCH   1  29
ATOM     29  C   UNL     1      -3.966  12.579  21.948  0.00  0.00    +0.000 C 
ATOM     30  O   UNL     1      -5.178  12.369  21.965  0.00  0.00    +0.000 OA
BRANCH  29  31
ATOM     31  C   UNL     1      -3.083  12.324  23.157  0.00  0.00    +0.000 C 
BRANCH  31  33
ATOM     32  C   UNL     1      -3.845  14.479  24.253  0.00  0.00    +0.000 C 
ATOM     33  C   UNL     1      -3.593  12.981  24.443  0.00  0.00    +0.000 C 
ATOM     34  C   UNL     1      -4.886  12.293  24.886  0.00  0.00    +0.000 C 
ENDBRANCH  31  33
ENDBRANCH  29  31
ENDBRANCH   1  29
TORSDOF 8
ENDMDL
MODEL 8
REMARK VINA RESULT:      -6.9      1.592      2.516
REMARK  Name = 
REMARK  12 active torsions:
REMARK  status: ('A' for Active; 'I' for Inactive)
REMARK    1  A    between atoms: C_1  and  C_2
REMARK    2  A    between atoms: C_2  and  C_3
REMARK    3  A    between atoms: C_2  and  C_4
REMARK    4  A    between atoms: C_4  and  C_5
REMARK    5  A    between atoms: C_5  and  C_7
REMARK    6  A    between atoms: N_12  and  C_13
REMARK    7  A    between atoms: C_16  and  C_17
REMARK    8  A    between atoms: C_24  and  C_25
REMARK    9  A    between atoms: C_30  and  O_31
REMARK   10  A    between atoms: O_31  and  C_32
REMARK   11  A    between atoms: C_32  and  C_33
REMARK   12  A    between atoms: C_32  and  C_34
REMARK                            x       y       z     vdW  Elec       q    Type
REMARK                         _______ _______ _______ _____ _____    ______ ____
ROOT
ATOM      1  C   UNL     1      -0.363  13.839  19.183  0.00  0.00    +0.000 C 
ATOM      2  C   UNL     1       1.039  14.076  18.746  0.00  0.00    +0.000 C 
ATOM      3  O   UNL     1       1.526  15.156  18.441  0.00  0.00    +0.000 OA
ATOM      4  C   UNL     1       1.751  12.764  18.597  0.00  0.00    +0.000 C 
ATOM      5  O   UNL     1       2.896  12.678  18.192  0.00  0.00    +0.000 OA
ATOM      6  N   UNL     1       0.864  11.781  19.011  0.00  0.00    +0.000 N 
ATOM      7  C   UNL     1      -0.412  12.323  19.511  0.00  0.00    +0.000 C 
ENDROOT
BRANCH   6   8
ATOM      8  C   UNL     1       1.288  10.432  19.120  0.00  0.00    +0.000 A 
ATOM      9  C   UNL     1       1.809   9.733  18.031  0.00  0.00    +0.000 A 
ATOM     10  C   UNL     1       2.079   8.359  18.139  0.00  0.00    +0.000 A 
ATOM     11  C   UNL     1       1.880   7.670  19.346  0.00  0.00    +0.000 A 
ATOM     12  C   UNL     1       1.409   8.386  20.449  0.00  0.00    +0.000 A 
ATOM     13  C   UNL     1       1.102   9.744  20.330  0.00  0.00    +0.000 A 
BRANCH  11  14
ATOM     14  C   UNL     1       2.151   6.244  19.447  0.00  0.00    +0.000 A 
ATOM     15  C   UNL     1       2.030   5.358  20.554  0.00  0.00    +0.000 A 
ATOM     16  C   UNL     1       2.416   4.114  20.110  0.00  0.00    +0.000 A 
ATOM     17  O   UNL     1       2.779   4.170  18.805  0.00  0.00    +0.000 OA
ATOM     18  C   UNL     1       2.622   5.461  18.410  0.00  0.00    +0.000 A 
ENDBRANCH  11  14
ENDBRANCH   6   8
BRANCH   7  19
ATOM     19  C   UNL     1      -1.631  11.708  18.792  0.00  0.00    +0.000 A 
ATOM     20  C   UNL     1      -1.357  10.924  17.639  0.00  0.00    +0.000 A 
ATOM     21  C   UNL     1      -2.369  10.383  16.851  0.00  0.00    +0.000 A 
ATOM     22  C   UNL     1      -3.685  10.541  17.236  0.00  0.00    +0.000 A 
ATOM     23  C   UNL     1      -3.985  11.264  18.390  0.00  0.00    +0.000 A 
ATOM     24  C   UNL     1      -2.988  11.919  19.142  0.00  0.00    +0.000 A 
BRANCH  24  25
ATOM     25  O   UNL     1      -3.317  12.758  20.193  0.00  0.00    +0.000 OA
BRANCH  25  26
ATOM     26  C   UNL     1      -4.737  12.883  20.496  0.00  0.00    +0.000 C 
ATOM     27  C   UNL     1      -5.026  12.627  21.978  0.00  0.00    +0.000 C 
ATOM     28  C   UNL     1      -5.245  14.266  20.093  0.00  0.00    +0.000 C 
ENDBRANCH  25  26
ENDBRANCH  24  25
ENDBRANCH   7  19
BRANCH   1  29
ATOM     29  C   UNL     1      -0.774  14.691  20.343  0.00  0.00    +0.000 C 
ATOM     30  O   UNL     1      -0.447  14.409  21.495  0.00  0.00    +0.000 OA
BRANCH  29  31
ATOM     31  C   UNL     1      -1.683  15.864  20.024  0.00  0.00    +0.000 C 
BRANCH  31  33
ATOM     32  C   UNL     1      -1.090  17.615  18.288  0.00  0.00    +0.000 C 
ATOM     33  C   UNL     1      -0.931  17.169  19.744  0.00  0.00    +0.000 C 
ATOM     34  C   UNL     1      -1.450  18.265  20.677  0.00  0.00    +0.000 C 
ENDBRANCH  31  33
ENDBRANCH  29  31
ENDBRANCH   1  29
TORSDOF 8
ENDMDL
MODEL 9
REMARK VINA RESULT:      -6.9      1.653      2.357
REMARK  Name = 
REMARK  12 active torsions:
REMARK  status: ('A' for Active; 'I' for Inactive)
REMARK    1  A    between atoms: C_1  and  C_2
REMARK    2  A    between atoms: C_2  and  C_3
REMARK    3  A    between atoms: C_2  and  C_4
REMARK    4  A    between atoms: C_4  and  C_5
REMARK    5  A    between atoms: C_5  and  C_7
REMARK    6  A    between atoms: N_12  and  C_13
REMARK    7  A    between atoms: C_16  and  C_17
REMARK    8  A    between atoms: C_24  and  C_25
REMARK    9  A    between atoms: C_30  and  O_31
REMARK   10  A    between atoms: O_31  and  C_32
REMARK   11  A    between atoms: C_32  and  C_33
REMARK   12  A    between atoms: C_32  and  C_34
REMARK                            x       y       z     vdW  Elec       q    Type
REMARK                         _______ _______ _______ _____ _____    ______ ____
ROOT
ATOM      1  C   UNL     1      -0.445  14.063  19.225  0.00  0.00    +0.000 C 
ATOM      2  C   UNL     1       0.987  14.190  18.842  0.00  0.00    +0.000 C 
ATOM      3  O   UNL     1       1.564  15.226  18.543  0.00  0.00    +0.000 OA
ATOM      4  C   UNL     1       1.607  12.827  18.739  0.00  0.00    +0.000 C 
ATOM      5  O   UNL     1       2.758  12.652  18.382  0.00  0.00    +0.000 OA
ATOM      6  N   UNL     1       0.634  11.918  19.129  0.00  0.00    +0.000 N 
ATOM      7  C   UNL     1      -0.617  12.559  19.570  0.00  0.00    +0.000 C 
ENDROOT
BRANCH   6   8
ATOM      8  C   UNL     1       0.954  10.543  19.272  0.00  0.00    +0.000 A 
ATOM      9  C   UNL     1       0.817   9.879  20.491  0.00  0.00    +0.000 A 
ATOM     10  C   UNL     1       1.282   8.561  20.631  0.00  0.00    +0.000 A 
ATOM     11  C   UNL     1       1.846   7.869  19.548  0.00  0.00    +0.000 A 
ATOM     12  C   UNL     1       1.932   8.521  18.315  0.00  0.00    +0.000 A 
ATOM     13  C   UNL     1       1.506   9.845  18.186  0.00  0.00    +0.000 A 
BRANCH  11  14
ATOM     14  C   UNL     1       2.336   6.507  19.704  0.00  0.00    +0.000 A 
ATOM     15  C   UNL     1       1.856   5.440  20.513  0.00  0.00    +0.000 A 
ATOM     16  C   UNL     1       2.685   4.366  20.287  0.00  0.00    +0.000 A 
ATOM     17  O   UNL     1       3.656   4.698  19.401  0.00  0.00    +0.000 OA
ATOM     18  C   UNL     1       3.444   5.995  19.055  0.00  0.00    +0.000 A 
ENDBRANCH  11  14
ENDBRANCH   6   8
BRANCH   7  19
ATOM     19  C   UNL     1      -1.849  12.024  18.810  0.00  0.00    +0.000 A 
ATOM     20  C   UNL     1      -1.634  11.612  17.467  0.00  0.00    +0.000 A 
ATOM     21  C   UNL     1      -2.675  11.188  16.645  0.00  0.00    +0.000 A 
ATOM     22  C   UNL     1      -3.950  11.087  17.164  0.00  0.00    +0.000 A 
ATOM     23  C   UNL     1      -4.184  11.437  18.492  0.00  0.00    +0.000 A 
ATOM     24  C   UNL     1      -3.173  11.978  19.314  0.00  0.00    +0.000 A 
BRANCH  24  25
ATOM     25  O   UNL     1      -3.458  12.463  20.578  0.00  0.00    +0.000 OA
BRANCH  25  26
ATOM     26  C   UNL     1      -4.324  13.633  20.637  0.00  0.00    +0.000 C 
ATOM     27  C   UNL     1      -5.802  13.254  20.492  0.00  0.00    +0.000 C 
ATOM     28  C   UNL     1      -4.103  14.391  21.944  0.00  0.00    +0.000 C 
ENDBRANCH  25  26
ENDBRANCH  24  25
ENDBRANCH   7  19
BRANCH   1  29
ATOM     29  C   UNL     1      -0.837  14.961  20.356  0.00  0.00    +0.000 C 
ATOM     30  O   UNL     1      -0.649  14.638  21.528  0.00  0.00    +0.000 OA
BRANCH  29  31
ATOM     31  C   UNL     1      -1.554  16.243  19.976  0.00  0.00    +0.000 C 
BRANCH  31  33
ATOM     32  C   UNL     1       0.325  17.874  20.462  0.00  0.00    +0.000 C 
ATOM     33  C   UNL     1      -1.113  17.462  20.791  0.00  0.00    +0.000 C 
ATOM     34  C   UNL     1      -2.059  18.631  20.511  0.00  0.00    +0.000 C 
ENDBRANCH  31  33
ENDBRANCH  29  31
ENDBRANCH   1  29
TORSDOF 8
ENDMDL
