MODEL 1
REMARK VINA RESULT:      -7.5      0.000      0.000
REMARK  Name = 
REMARK  5 active torsions:
REMARK  status: ('A' for Active; 'I' for Inactive)
REMARK    1  A    between atoms: C_1  and  C_2
REMARK    2  A    between atoms: C_4  and  S_5
REMARK    3  A    between atoms: S_5  and  C_6
REMARK    4  A    between atoms: N_14  and  C_15
REMARK    5  A    between atoms: C_18  and  C_19
REMARK                            x       y       z     vdW  Elec       q    Type
REMARK                         _______ _______ _______ _____ _____    ______ ____
ROOT
ATOM      1  C   UNL     1       5.820   4.199  14.533  0.00  0.00    +0.000 C 
ATOM      2  C   UNL     1       5.311   4.566  15.895  0.00  0.00    +0.000 A 
ATOM      3  C   UNL     1       5.378   3.689  16.962  0.00  0.00    +0.000 A 
ATOM      4  C   UNL     1       4.883   4.146  18.164  0.00  0.00    +0.000 A 
ATOM      5  N   UNL     1       4.342   5.367  18.283  0.00  0.00    +0.000 NA
ATOM      6  C   UNL     1       4.308   6.163  17.205  0.00  0.00    +0.000 A 
ATOM      7  N   UNL     1       3.770   7.443  17.312  0.00  0.00    +0.000 N 
ATOM      8  N   UNL     1       4.798   5.809  16.010  0.00  0.00    +0.000 NA
ATOM      9  H   UNL     1       3.889   7.967  16.457  0.00  0.00    +0.000 HD
ENDROOT
BRANCH   7  10
ATOM     10  C   UNL     1       2.792   7.893  18.206  0.00  0.00    +0.000 A 
ATOM     11  C   UNL     1       2.065   9.053  17.920  0.00  0.00    +0.000 A 
ATOM     12  C   UNL     1       1.182   9.593  18.864  0.00  0.00    +0.000 A 
ATOM     13  C   UNL     1       1.005   8.967  20.100  0.00  0.00    +0.000 A 
ATOM     14  C   UNL     1       1.690   7.785  20.379  0.00  0.00    +0.000 A 
ATOM     15  C   UNL     1       2.570   7.257  19.434  0.00  0.00    +0.000 A 
BRANCH  13  16
ATOM     16  C   UNL     1       0.145   9.539  21.086  0.00  0.00    +0.000 C 
ATOM     17  N   UNL     1      -0.549  10.006  21.894  0.00  0.00    +0.000 NA
ENDBRANCH  13  16
ENDBRANCH   7  10
BRANCH   4  18
ATOM     18  S   UNL     1       4.942   3.101  19.640  0.00  0.00    +0.000 S 
BRANCH  18  19
ATOM     19  C   UNL     1       3.233   2.372  19.649  0.00  0.00    +0.000 C 
ATOM     20  C   UNL     1       2.534   2.627  20.992  0.00  0.00    +0.000 C 
ATOM     21  C   UNL     1       1.678   3.883  21.060  0.00  0.00    +0.000 C 
ATOM     22  C   UNL     1       0.672   3.907  19.924  0.00  0.00    +0.000 C 
ATOM     23  C   UNL     1       1.401   3.933  18.590  0.00  0.00    +0.000 C 
ATOM     24  C   UNL     1       2.387   2.775  18.420  0.00  0.00    +0.000 C 
ENDBRANCH  18  19
ENDBRANCH   4  18
TORSDOF 4
ENDMDL
MODEL 2
REMARK VINA RESULT:      -7.1      3.711      7.973
REMARK  Name = 
REMARK  5 active torsions:
REMARK  status: ('A' for Active; 'I' for Inactive)
REMARK    1  A    between atoms: C_1  and  C_2
REMARK    2  A    between atoms: C_4  and  S_5
REMARK    3  A    between atoms: S_5  and  C_6
REMARK    4  A    between atoms: N_14  and  C_15
REMARK    5  A    between atoms: C_18  and  C_19
REMARK                            x       y       z     vdW  Elec       q    Type
REMARK                         _______ _______ _______ _____ _____    ______ ____
ROOT
ATOM      1  C   UNL     1      -1.060  11.305  23.074  0.00  0.00    +0.000 C 
ATOM      2  C   UNL     1      -0.500  10.627  21.859  0.00  0.00    +0.000 A 
ATOM      3  C   UNL     1      -0.807  11.050  20.579  0.00  0.00    +0.000 A 
ATOM      4  C   UNL     1      -0.224  10.349  19.546  0.00  0.00    +0.000 A 
ATOM      5  N   UNL     1       0.577   9.297  19.773  0.00  0.00    +0.000 NA
ATOM      6  C   UNL     1       0.828   8.942  21.041  0.00  0.00    +0.000 A 
ATOM      7  N   UNL     1       1.673   7.866  21.300  0.00  0.00    +0.000 N 
ATOM      8  N   UNL     1       0.329   9.590  22.101  0.00  0.00    +0.000 NA
ATOM      9  H   UNL     1       1.849   7.763  22.288  0.00  0.00    +0.000 HD
ENDROOT
BRANCH   7  10
ATOM     10  C   UNL     1       1.923   6.754  20.487  0.00  0.00    +0.000 A 
ATOM     11  C   UNL     1       2.579   6.918  19.264  0.00  0.00    +0.000 A 
ATOM     12  C   UNL     1       2.716   5.842  18.376  0.00  0.00    +0.000 A 
ATOM     13  C   UNL     1       2.209   4.584  18.714  0.00  0.00    +0.000 A 
ATOM     14  C   UNL     1       1.593   4.398  19.950  0.00  0.00    +0.000 A 
ATOM     15  C   UNL     1       1.458   5.477  20.825  0.00  0.00    +0.000 A 
BRANCH  13  16
ATOM     16  C   UNL     1       2.300   3.496  17.794  0.00  0.00    +0.000 C 
ATOM     17  N   UNL     1       2.374   2.615  17.039  0.00  0.00    +0.000 NA
ENDBRANCH  13  16
ENDBRANCH   7  10
BRANCH   4  18
ATOM     18  S   UNL     1      -0.525  10.825  17.826  0.00  0.00    +0.000 S 
BRANCH  18  19
ATOM     19  C   UNL     1      -2.118   9.938  17.467  0.00  0.00    +0.000 C 
ATOM     20  C   UNL     1      -3.286  10.576  18.231  0.00  0.00    +0.000 C 
ATOM     21  C   UNL     1      -4.058  11.649  17.477  0.00  0.00    +0.000 C 
ATOM     22  C   UNL     1      -4.525  11.126  16.131  0.00  0.00    +0.000 C 
ATOM     23  C   UNL     1      -3.323  10.754  15.277  0.00  0.00    +0.000 C 
ATOM     24  C   UNL     1      -2.388   9.751  15.957  0.00  0.00    +0.000 C 
ENDBRANCH  18  19
ENDBRANCH   4  18
TORSDOF 4
ENDMDL
MODEL 3
REMARK VINA RESULT:      -7.1      1.815      4.008
REMARK  Name = 
REMARK  5 active torsions:
REMARK  status: ('A' for Active; 'I' for Inactive)
REMARK    1  A    between atoms: C_1  and  C_2
REMARK    2  A    between atoms: C_4  and  S_5
REMARK    3  A    between atoms: S_5  and  C_6
REMARK    4  A    between atoms: N_14  and  C_15
REMARK    5  A    between atoms: C_18  and  C_19
REMARK                            x       y       z     vdW  Elec       q    Type
REMARK                         _______ _______ _______ _____ _____    ______ ____
ROOT
ATOM      1  C   UNL     1       3.503   1.496  18.807  0.00  0.00    +0.000 C 
ATOM      2  C   UNL     1       3.810   2.961  18.908  0.00  0.00    +0.000 A 
ATOM      3  C   UNL     1       5.101   3.429  19.061  0.00  0.00    +0.000 A 
ATOM      4  C   UNL     1       5.254   4.796  19.135  0.00  0.00    +0.000 A 
ATOM      5  N   UNL     1       4.200   5.625  19.087  0.00  0.00    +0.000 NA
ATOM      6  C   UNL     1       2.976   5.100  18.940  0.00  0.00    +0.000 A 
ATOM      7  N   UNL     1       1.870   5.944  18.867  0.00  0.00    +0.000 N 
ATOM      8  N   UNL     1       2.745   3.786  18.827  0.00  0.00    +0.000 NA
ATOM      9  H   UNL     1       1.026   5.430  18.665  0.00  0.00    +0.000 HD
ENDROOT
BRANCH   7  10
ATOM     10  C   UNL     1       1.724   7.220  19.421  0.00  0.00    +0.000 A 
ATOM     11  C   UNL     1       1.473   7.362  20.789  0.00  0.00    +0.000 A 
ATOM     12  C   UNL     1       1.188   8.619  21.337  0.00  0.00    +0.000 A 
ATOM     13  C   UNL     1       1.168   9.753  20.521  0.00  0.00    +0.000 A 
ATOM     14  C   UNL     1       1.461   9.631  19.163  0.00  0.00    +0.000 A 
ATOM     15  C   UNL     1       1.740   8.373  18.627  0.00  0.00    +0.000 A 
BRANCH  13  16
ATOM     16  C   UNL     1       0.830  11.031  21.062  0.00  0.00    +0.000 C 
ATOM     17  N   UNL     1       0.546  12.069  21.502  0.00  0.00    +0.000 NA
ENDBRANCH  13  16
ENDBRANCH   7  10
BRANCH   4  18
ATOM     18  S   UNL     1       6.899   5.531  19.306  0.00  0.00    +0.000 S 
BRANCH  18  19
ATOM     19  C   UNL     1       7.315   5.928  17.539  0.00  0.00    +0.000 C 
ATOM     20  C   UNL     1       7.493   4.646  16.715  0.00  0.00    +0.000 C 
ATOM     21  C   UNL     1       6.246   4.146  15.998  0.00  0.00    +0.000 C 
ATOM     22  C   UNL     1       5.642   5.247  15.147  0.00  0.00    +0.000 C 
ATOM     23  C   UNL     1       5.216   6.408  16.031  0.00  0.00    +0.000 C 
ATOM     24  C   UNL     1       6.353   6.953  16.898  0.00  0.00    +0.000 C 
ENDBRANCH  18  19
ENDBRANCH   4  18
TORSDOF 4
ENDMDL
MODEL 4
REMARK VINA RESULT:      -6.9      7.934      9.783
REMARK  Name = 
REMARK  5 active torsions:
REMARK  status: ('A' for Active; 'I' for Inactive)
REMARK    1  A    between atoms: C_1  and  C_2
REMARK    2  A    between atoms: C_4  and  S_5
REMARK    3  A    between atoms: S_5  and  C_6
REMARK    4  A    between atoms: N_14  and  C_15
REMARK    5  A    between atoms: C_18  and  C_19
REMARK                            x       y       z     vdW  Elec       q    Type
REMARK                         _______ _______ _______ _____ _____    ______ ____
ROOT
ATOM      1  C   UNL     1      -3.254   9.915  13.817  0.00  0.00    +0.000 C 
ATOM      2  C   UNL     1      -3.307  10.358  15.249  0.00  0.00    +0.000 A 
ATOM      3  C   UNL     1      -2.235  10.194  16.105  0.00  0.00    +0.000 A 
ATOM      4  C   UNL     1      -2.405  10.648  17.395  0.00  0.00    +0.000 A 
ATOM      5  N   UNL     1      -3.561  11.194  17.801  0.00  0.00    +0.000 NA
ATOM      6  C   UNL     1      -4.559  11.318  16.917  0.00  0.00    +0.000 A 
ATOM      7  N   UNL     1      -5.761  11.901  17.312  0.00  0.00    +0.000 N 
ATOM      8  N   UNL     1      -4.464  10.934  15.637  0.00  0.00    +0.000 NA
ATOM      9  H   UNL     1      -6.390  12.016  16.532  0.00  0.00    +0.000 HD
ENDROOT
BRANCH   7  10
ATOM     10  C   UNL     1      -6.320  11.934  18.594  0.00  0.00    +0.000 A 
ATOM     11  C   UNL     1      -6.222  13.094  19.369  0.00  0.00    +0.000 A 
ATOM     12  C   UNL     1      -6.652  13.101  20.702  0.00  0.00    +0.000 A 
ATOM     13  C   UNL     1      -7.201  11.949  21.270  0.00  0.00    +0.000 A 
ATOM     14  C   UNL     1      -7.345  10.799  20.494  0.00  0.00    +0.000 A 
ATOM     15  C   UNL     1      -6.910  10.801  19.168  0.00  0.00    +0.000 A 
BRANCH  13  16
ATOM     16  C   UNL     1      -7.595  11.933  22.642  0.00  0.00    +0.000 C 
ATOM     17  N   UNL     1      -7.912  11.914  23.761  0.00  0.00    +0.000 NA
ENDBRANCH  13  16
ENDBRANCH   7  10
BRANCH   4  18
ATOM     18  S   UNL     1      -1.063  10.518  18.602  0.00  0.00    +0.000 S 
BRANCH  18  19
ATOM     19  C   UNL     1      -0.993  12.250  19.271  0.00  0.00    +0.000 C 
ATOM     20  C   UNL     1      -0.405  12.268  20.689  0.00  0.00    +0.000 C 
ATOM     21  C   UNL     1       1.098  12.490  20.775  0.00  0.00    +0.000 C 
ATOM     22  C   UNL     1       1.497  13.744  20.018  0.00  0.00    +0.000 C 
ATOM     23  C   UNL     1       1.150  13.589  18.546  0.00  0.00    +0.000 C 
ATOM     24  C   UNL     1      -0.324  13.254  18.306  0.00  0.00    +0.000 C 
ENDBRANCH  18  19
ENDBRANCH   4  18
TORSDOF 4
ENDMDL
MODEL 5
REMARK VINA RESULT:      -6.8      2.350      6.833
REMARK  Name = 
REMARK  5 active torsions:
REMARK  status: ('A' for Active; 'I' for Inactive)
REMARK    1  A    between atoms: C_1  and  C_2
REMARK    2  A    between atoms: C_4  and  S_5
REMARK    3  A    between atoms: S_5  and  C_6
REMARK    4  A    between atoms: N_14  and  C_15
REMARK    5  A    between atoms: C_18  and  C_19
REMARK                            x       y       z     vdW  Elec       q    Type
REMARK                         _______ _______ _______ _____ _____    ______ ____
ROOT
ATOM      1  C   UNL     1       1.994   2.635  21.636  0.00  0.00    +0.000 C 
ATOM      2  C   UNL     1       2.496   3.530  20.543  0.00  0.00    +0.000 A 
ATOM      3  C   UNL     1       1.716   4.537  20.006  0.00  0.00    +0.000 A 
ATOM      4  C   UNL     1       2.293   5.296  19.011  0.00  0.00    +0.000 A 
ATOM      5  N   UNL     1       3.536   5.050  18.571  0.00  0.00    +0.000 NA
ATOM      6  C   UNL     1       4.233   4.055  19.135  0.00  0.00    +0.000 A 
ATOM      7  N   UNL     1       5.533   3.796  18.708  0.00  0.00    +0.000 N 
ATOM      8  N   UNL     1       3.759   3.293  20.130  0.00  0.00    +0.000 NA
ATOM      9  H   UNL     1       5.974   3.087  19.273  0.00  0.00    +0.000 HD
ENDROOT
BRANCH   7  10
ATOM     10  C   UNL     1       6.089   4.047  17.448  0.00  0.00    +0.000 A 
ATOM     11  C   UNL     1       7.168   4.928  17.324  0.00  0.00    +0.000 A 
ATOM     12  C   UNL     1       7.648   5.297  16.061  0.00  0.00    +0.000 A 
ATOM     13  C   UNL     1       7.062   4.772  14.906  0.00  0.00    +0.000 A 
ATOM     14  C   UNL     1       6.016   3.858  15.018  0.00  0.00    +0.000 A 
ATOM     15  C   UNL     1       5.542   3.500  16.281  0.00  0.00    +0.000 A 
BRANCH  13  16
ATOM     16  C   UNL     1       7.513   5.182  13.614  0.00  0.00    +0.000 C 
ATOM     17  N   UNL     1       7.882   5.507  12.561  0.00  0.00    +0.000 NA
ENDBRANCH  13  16
ENDBRANCH   7  10
BRANCH   4  18
ATOM     18  S   UNL     1       1.383   6.663  18.251  0.00  0.00    +0.000 S 
BRANCH  18  19
ATOM     19  C   UNL     1       2.027   8.119  19.211  0.00  0.00    +0.000 C 
ATOM     20  C   UNL     1       1.744   9.433  18.470  0.00  0.00    +0.000 C 
ATOM     21  C   UNL     1       0.447  10.135  18.847  0.00  0.00    +0.000 C 
ATOM     22  C   UNL     1       0.368  10.342  20.348  0.00  0.00    +0.000 C 
ATOM     23  C   UNL     1       0.371   8.996  21.056  0.00  0.00    +0.000 C 
ATOM     24  C   UNL     1       1.576   8.126  20.689  0.00  0.00    +0.000 C 
ENDBRANCH  18  19
ENDBRANCH   4  18
TORSDOF 4
ENDMDL
MODEL 6
REMARK VINA RESULT:      -6.8      2.520      6.865
REMARK  Name = 
REMARK  5 active torsions:
REMARK  status: ('A' for Active; 'I' for Inactive)
REMARK    1  A    between atoms: C_1  and  C_2
REMARK    2  A    between atoms: C_4  and  S_5
REMARK    3  A    between atoms: S_5  and  C_6
REMARK    4  A    between atoms: N_14  and  C_15
REMARK    5  A    between atoms: C_18  and  C_19
REMARK                            x       y       z     vdW  Elec       q    Type
REMARK                         _______ _______ _______ _____ _____    ______ ____
ROOT
ATOM      1  C   UNL     1       1.281   3.092  21.547  0.00  0.00    +0.000 C 
ATOM      2  C   UNL     1       2.061   4.055  20.704  0.00  0.00    +0.000 A 
ATOM      3  C   UNL     1       1.710   5.388  20.600  0.00  0.00    +0.000 A 
ATOM      4  C   UNL     1       2.511   6.173  19.798  0.00  0.00    +0.000 A 
ATOM      5  N   UNL     1       3.558   5.662  19.136  0.00  0.00    +0.000 NA
ATOM      6  C   UNL     1       3.838   4.359  19.281  0.00  0.00    +0.000 A 
ATOM      7  N   UNL     1       4.935   3.812  18.619  0.00  0.00    +0.000 N 
ATOM      8  N   UNL     1       3.132   3.536  20.066  0.00  0.00    +0.000 NA
ATOM      9  H   UNL     1       5.086   2.851  18.885  0.00  0.00    +0.000 HD
ENDROOT
BRANCH   7  10
ATOM     10  C   UNL     1       5.519   4.244  17.423  0.00  0.00    +0.000 A 
ATOM     11  C   UNL     1       4.823   4.108  16.217  0.00  0.00    +0.000 A 
ATOM     12  C   UNL     1       5.443   4.405  14.997  0.00  0.00    +0.000 A 
ATOM     13  C   UNL     1       6.764   4.860  14.972  0.00  0.00    +0.000 A 
ATOM     14  C   UNL     1       7.453   5.042  16.170  0.00  0.00    +0.000 A 
ATOM     15  C   UNL     1       6.828   4.739  17.380  0.00  0.00    +0.000 A 
BRANCH  13  16
ATOM     16  C   UNL     1       7.419   5.117  13.729  0.00  0.00    +0.000 C 
ATOM     17  N   UNL     1       7.958   5.320  12.719  0.00  0.00    +0.000 NA
ENDBRANCH  13  16
ENDBRANCH   7  10
BRANCH   4  18
ATOM     18  S   UNL     1       2.170   7.940  19.607  0.00  0.00    +0.000 S 
BRANCH  18  19
ATOM     19  C   UNL     1       0.667   8.148  20.680  0.00  0.00    +0.000 C 
ATOM     20  C   UNL     1       1.063   8.555  22.106  0.00  0.00    +0.000 C 
ATOM     21  C   UNL     1       1.100  10.052  22.377  0.00  0.00    +0.000 C 
ATOM     22  C   UNL     1      -0.216  10.699  21.985  0.00  0.00    +0.000 C 
ATOM     23  C   UNL     1      -0.455  10.519  20.494  0.00  0.00    +0.000 C 
ATOM     24  C   UNL     1      -0.414   9.055  20.050  0.00  0.00    +0.000 C 
ENDBRANCH  18  19
ENDBRANCH   4  18
TORSDOF 4
ENDMDL
MODEL 7
REMARK VINA RESULT:      -6.8      2.391      3.537
REMARK  Name = 
REMARK  5 active torsions:
REMARK  status: ('A' for Active; 'I' for Inactive)
REMARK    1  A    between atoms: C_1  and  C_2
REMARK    2  A    between atoms: C_4  and  S_5
REMARK    3  A    between atoms: S_5  and  C_6
REMARK    4  A    between atoms: N_14  and  C_15
REMARK    5  A    between atoms: C_18  and  C_19
REMARK                            x       y       z     vdW  Elec       q    Type
REMARK                         _______ _______ _______ _____ _____    ______ ____
ROOT
ATOM      1  C   UNL     1       5.039   6.721  16.268  0.00  0.00    +0.000 C 
ATOM      2  C   UNL     1       3.985   7.068  17.278  0.00  0.00    +0.000 A 
ATOM      3  C   UNL     1       3.650   6.210  18.308  0.00  0.00    +0.000 A 
ATOM      4  C   UNL     1       2.671   6.645  19.175  0.00  0.00    +0.000 A 
ATOM      5  N   UNL     1       2.060   7.828  19.009  0.00  0.00    +0.000 NA
ATOM      6  C   UNL     1       2.435   8.607  17.985  0.00  0.00    +0.000 A 
ATOM      7  N   UNL     1       1.829   9.848  17.807  0.00  0.00    +0.000 N 
ATOM      8  N   UNL     1       3.400   8.273  17.118  0.00  0.00    +0.000 NA
ATOM      9  H   UNL     1       2.264  10.368  17.060  0.00  0.00    +0.000 HD
ENDROOT
BRANCH   7  10
ATOM     10  C   UNL     1       0.542  10.239  18.193  0.00  0.00    +0.000 A 
ATOM     11  C   UNL     1      -0.574   9.716  17.533  0.00  0.00    +0.000 A 
ATOM     12  C   UNL     1      -1.860  10.198  17.811  0.00  0.00    +0.000 A 
ATOM     13  C   UNL     1      -2.043  11.199  18.768  0.00  0.00    +0.000 A 
ATOM     14  C   UNL     1      -0.943  11.697  19.465  0.00  0.00    +0.000 A 
ATOM     15  C   UNL     1       0.334  11.214  19.177  0.00  0.00    +0.000 A 
BRANCH  13  16
ATOM     16  C   UNL     1      -3.344  11.731  19.021  0.00  0.00    +0.000 C 
ATOM     17  N   UNL     1      -4.407  12.159  19.222  0.00  0.00    +0.000 NA
ENDBRANCH  13  16
ENDBRANCH   7  10
BRANCH   4  18
ATOM     18  S   UNL     1       2.166   5.624  20.581  0.00  0.00    +0.000 S 
BRANCH  18  19
ATOM     19  C   UNL     1       1.085   4.359  19.754  0.00  0.00    +0.000 C 
ATOM     20  C   UNL     1       1.381   4.283  18.250  0.00  0.00    +0.000 C 
ATOM     21  C   UNL     1       2.410   3.242  17.833  0.00  0.00    +0.000 C 
ATOM     22  C   UNL     1       2.034   1.874  18.372  0.00  0.00    +0.000 C 
ATOM     23  C   UNL     1       2.017   1.905  19.892  0.00  0.00    +0.000 C 
ATOM     24  C   UNL     1       1.096   2.986  20.462  0.00  0.00    +0.000 C 
ENDBRANCH  18  19
ENDBRANCH   4  18
TORSDOF 4
ENDMDL
MODEL 8
REMARK VINA RESULT:      -6.6      2.407      6.919
REMARK  Name = 
REMARK  5 active torsions:
REMARK  status: ('A' for Active; 'I' for Inactive)
REMARK    1  A    between atoms: C_1  and  C_2
REMARK    2  A    between atoms: C_4  and  S_5
REMARK    3  A    between atoms: S_5  and  C_6
REMARK    4  A    between atoms: N_14  and  C_15
REMARK    5  A    between atoms: C_18  and  C_19
REMARK                            x       y       z     vdW  Elec       q    Type
REMARK                         _______ _______ _______ _____ _____    ______ ____
ROOT
ATOM      1  C   UNL     1       2.116   3.180  21.660  0.00  0.00    +0.000 C 
ATOM      2  C   UNL     1       2.571   4.066  20.539  0.00  0.00    +0.000 A 
ATOM      3  C   UNL     1       1.836   5.161  20.128  0.00  0.00    +0.000 A 
ATOM      4  C   UNL     1       2.363   5.901  19.091  0.00  0.00    +0.000 A 
ATOM      5  N   UNL     1       3.516   5.557  18.498  0.00  0.00    +0.000 NA
ATOM      6  C   UNL     1       4.174   4.480  18.948  0.00  0.00    +0.000 A 
ATOM      7  N   UNL     1       5.384   4.117  18.360  0.00  0.00    +0.000 N 
ATOM      8  N   UNL     1       3.748   3.728  19.971  0.00  0.00    +0.000 NA
ATOM      9  H   UNL     1       5.817   3.348  18.849  0.00  0.00    +0.000 HD
ENDROOT
BRANCH   7  10
ATOM     10  C   UNL     1       5.811   4.363  17.050  0.00  0.00    +0.000 A 
ATOM     11  C   UNL     1       4.947   4.125  15.978  0.00  0.00    +0.000 A 
ATOM     12  C   UNL     1       5.399   4.233  14.657  0.00  0.00    +0.000 A 
ATOM     13  C   UNL     1       6.723   4.599  14.395  0.00  0.00    +0.000 A 
ATOM     14  C   UNL     1       7.582   4.883  15.456  0.00  0.00    +0.000 A 
ATOM     15  C   UNL     1       7.122   4.768  16.768  0.00  0.00    +0.000 A 
BRANCH  13  16
ATOM     16  C   UNL     1       7.206   4.662  13.053  0.00  0.00    +0.000 C 
ATOM     17  N   UNL     1       7.607   4.715  11.963  0.00  0.00    +0.000 NA
ENDBRANCH  13  16
ENDBRANCH   7  10
BRANCH   4  18
ATOM     18  S   UNL     1       1.508   7.375  18.484  0.00  0.00    +0.000 S 
BRANCH  18  19
ATOM     19  C   UNL     1       1.766   8.562  19.891  0.00  0.00    +0.000 C 
ATOM     20  C   UNL     1       1.325   9.980  19.502  0.00  0.00    +0.000 C 
ATOM     21  C   UNL     1      -0.113  10.340  19.851  0.00  0.00    +0.000 C 
ATOM     22  C   UNL     1      -0.386  10.082  21.321  0.00  0.00    +0.000 C 
ATOM     23  C   UNL     1      -0.208   8.604  21.627  0.00  0.00    +0.000 C 
ATOM     24  C   UNL     1       1.169   8.068  21.227  0.00  0.00    +0.000 C 
ENDBRANCH  18  19
ENDBRANCH   4  18
TORSDOF 4
ENDMDL
MODEL 9
REMARK VINA RESULT:      -6.6      8.381     10.247
REMARK  Name = 
REMARK  5 active torsions:
REMARK  status: ('A' for Active; 'I' for Inactive)
REMARK    1  A    between atoms: C_1  and  C_2
REMARK    2  A    between atoms: C_4  and  S_5
REMARK    3  A    between atoms: S_5  and  C_6
REMARK    4  A    between atoms: N_14  and  C_15
REMARK    5  A    between atoms: C_18  and  C_19
REMARK                            x       y       z     vdW  Elec       q    Type
REMARK                         _______ _______ _______ _____ _____    ______ ____
ROOT
ATOM      1  C   UNL     1      -3.204  10.067  14.510  0.00  0.00    +0.000 C 
ATOM      2  C   UNL     1      -3.292  10.707  15.863  0.00  0.00    +0.000 A 
ATOM      3  C   UNL     1      -2.192  10.819  16.692  0.00  0.00    +0.000 A 
ATOM      4  C   UNL     1      -2.399  11.433  17.908  0.00  0.00    +0.000 A 
ATOM      5  N   UNL     1      -3.612  11.872  18.276  0.00  0.00    +0.000 NA
ATOM      6  C   UNL     1      -4.635  11.726  17.422  0.00  0.00    +0.000 A 
ATOM      7  N   UNL     1      -5.898  12.194  17.775  0.00  0.00    +0.000 N 
ATOM      8  N   UNL     1      -4.511  11.173  16.209  0.00  0.00    +0.000 NA
ATOM      9  H   UNL     1      -6.552  12.106  17.012  0.00  0.00    +0.000 HD
ENDROOT
BRANCH   7  10
ATOM     10  C   UNL     1      -6.432  12.342  19.061  0.00  0.00    +0.000 A 
ATOM     11  C   UNL     1      -6.437  13.598  19.674  0.00  0.00    +0.000 A 
ATOM     12  C   UNL     1      -6.839  13.739  21.009  0.00  0.00    +0.000 A 
ATOM     13  C   UNL     1      -7.257  12.624  21.739  0.00  0.00    +0.000 A 
ATOM     14  C   UNL     1      -7.299  11.373  21.124  0.00  0.00    +0.000 A 
ATOM     15  C   UNL     1      -6.892  11.242  19.796  0.00  0.00    +0.000 A 
BRANCH  13  16
ATOM     16  C   UNL     1      -7.621  12.751  23.114  0.00  0.00    +0.000 C 
ATOM     17  N   UNL     1      -7.916  12.864  24.233  0.00  0.00    +0.000 NA
ENDBRANCH  13  16
ENDBRANCH   7  10
BRANCH   4  18
ATOM     18  S   UNL     1      -1.029  11.666  19.067  0.00  0.00    +0.000 S 
BRANCH  18  19
ATOM     19  C   UNL     1      -1.669  13.052  20.127  0.00  0.00    +0.000 C 
ATOM     20  C   UNL     1      -2.568  12.515  21.250  0.00  0.00    +0.000 C 
ATOM     21  C   UNL     1      -1.869  12.223  22.570  0.00  0.00    +0.000 C 
ATOM     22  C   UNL     1      -1.094  13.439  23.044  0.00  0.00    +0.000 C 
ATOM     23  C   UNL     1      -0.014  13.789  22.032  0.00  0.00    +0.000 C 
ATOM     24  C   UNL     1      -0.561  14.009  20.620  0.00  0.00    +0.000 C 
ENDBRANCH  18  19
ENDBRANCH   4  18
TORSDOF 4
ENDMDL
