MODEL 1
REMARK VINA RESULT:      -5.4      0.000      0.000
REMARK  Name = 
REMARK  3 active torsions:
REMARK  status: ('A' for Active; 'I' for Inactive)
REMARK    1  A    between atoms: N_1  and  C_2
REMARK    2  A    between atoms: C_2  and  C_3
REMARK    3  A    between atoms: C_3  and  C_6
REMARK                            x       y       z     vdW  Elec       q    Type
REMARK                         _______ _______ _______ _____ _____    ______ ____
ROOT
ATOM      1  C   UNL     1       4.040   5.551  18.661  0.00  0.00    +0.000 C 
ATOM      2  C   UNL     1       3.819   6.552  17.802  0.00  0.00    +0.000 C 
ATOM      3  F   UNL     1       4.810   7.341  17.346  0.00  0.00    +0.000 F 
ENDROOT
BRANCH   1   4
ATOM      4  C   UNL     1       2.892   4.723  19.060  0.00  0.00    +0.000 A 
ATOM      5  C   UNL     1       2.461   4.698  20.391  0.00  0.00    +0.000 A 
ATOM      6  C   UNL     1       1.393   3.881  20.768  0.00  0.00    +0.000 A 
ATOM      7  C   UNL     1       0.753   3.085  19.818  0.00  0.00    +0.000 A 
ATOM      8  C   UNL     1       1.176   3.106  18.490  0.00  0.00    +0.000 A 
ATOM      9  C   UNL     1       2.246   3.919  18.112  0.00  0.00    +0.000 A 
ENDBRANCH   1   4
BRANCH   1  10
ATOM     10  C   UNL     1       5.401   5.195  19.190  0.00  0.00    +0.000 C 
BRANCH  10  11
ATOM     11  N   UNL     1       5.777   3.814  18.892  0.00  0.00    +0.000 NA
ATOM     12  H   UNL     1       6.260   3.793  17.995  0.00  0.00    +0.000 HD
ATOM     13  H   UNL     1       4.927   3.267  18.761  0.00  0.00    +0.000 HD
ENDBRANCH  10  11
ENDBRANCH   1  10
TORSDOF 3
ENDMDL
MODEL 2
REMARK VINA RESULT:      -5.3      0.062      1.459
REMARK  Name = 
REMARK  3 active torsions:
REMARK  status: ('A' for Active; 'I' for Inactive)
REMARK    1  A    between atoms: N_1  and  C_2
REMARK    2  A    between atoms: C_2  and  C_3
REMARK    3  A    between atoms: C_3  and  C_6
REMARK                            x       y       z     vdW  Elec       q    Type
REMARK                         _______ _______ _______ _____ _____    ______ ____
ROOT
ATOM      1  C   UNL     1       4.035   5.513  18.653  0.00  0.00    +0.000 C 
ATOM      2  C   UNL     1       3.778   6.493  17.780  0.00  0.00    +0.000 C 
ATOM      3  F   UNL     1       4.740   7.307  17.307  0.00  0.00    +0.000 F 
ENDROOT
BRANCH   1   4
ATOM      4  C   UNL     1       2.917   4.653  19.069  0.00  0.00    +0.000 A 
ATOM      5  C   UNL     1       2.258   3.842  18.138  0.00  0.00    +0.000 A 
ATOM      6  C   UNL     1       1.174   3.056  18.535  0.00  0.00    +0.000 A 
ATOM      7  C   UNL     1       0.744   3.077  19.861  0.00  0.00    +0.000 A 
ATOM      8  C   UNL     1       1.396   3.882  20.794  0.00  0.00    +0.000 A 
ATOM      9  C   UNL     1       2.477   4.671  20.399  0.00  0.00    +0.000 A 
ENDBRANCH   1   4
BRANCH   1  10
ATOM     10  C   UNL     1       5.409   5.210  19.181  0.00  0.00    +0.000 C 
BRANCH  10  11
ATOM     11  N   UNL     1       5.845   3.850  18.870  0.00  0.00    +0.000 NA
ATOM     12  H   UNL     1       6.852   3.857  18.717  0.00  0.00    +0.000 HD
ATOM     13  H   UNL     1       5.432   3.572  17.980  0.00  0.00    +0.000 HD
ENDBRANCH  10  11
ENDBRANCH   1  10
TORSDOF 3
ENDMDL
MODEL 3
REMARK VINA RESULT:      -5.3      2.140      2.655
REMARK  Name = 
REMARK  3 active torsions:
REMARK  status: ('A' for Active; 'I' for Inactive)
REMARK    1  A    between atoms: N_1  and  C_2
REMARK    2  A    between atoms: C_2  and  C_3
REMARK    3  A    between atoms: C_3  and  C_6
REMARK                            x       y       z     vdW  Elec       q    Type
REMARK                         _______ _______ _______ _____ _____    ______ ____
ROOT
ATOM      1  C   UNL     1       6.104   5.768  17.655  0.00  0.00    +0.000 C 
ATOM      2  C   UNL     1       6.384   6.989  17.189  0.00  0.00    +0.000 C 
ATOM      3  F   UNL     1       7.645   7.454  17.101  0.00  0.00    +0.000 F 
ENDROOT
BRANCH   1   4
ATOM      4  C   UNL     1       4.695   5.344  17.665  0.00  0.00    +0.000 A 
ATOM      5  C   UNL     1       3.693   6.214  18.110  0.00  0.00    +0.000 A 
ATOM      6  C   UNL     1       2.364   5.791  18.151  0.00  0.00    +0.000 A 
ATOM      7  C   UNL     1       2.028   4.499  17.748  0.00  0.00    +0.000 A 
ATOM      8  C   UNL     1       3.021   3.627  17.302  0.00  0.00    +0.000 A 
ATOM      9  C   UNL     1       4.352   4.047  17.264  0.00  0.00    +0.000 A 
ENDBRANCH   1   4
BRANCH   1  10
ATOM     10  C   UNL     1       7.151   4.790  18.109  0.00  0.00    +0.000 C 
BRANCH  10  11
ATOM     11  N   UNL     1       7.915   4.226  16.998  0.00  0.00    +0.000 NA
ATOM     12  H   UNL     1       8.800   4.725  16.924  0.00  0.00    +0.000 HD
ATOM     13  H   UNL     1       7.416   4.418  16.130  0.00  0.00    +0.000 HD
ENDBRANCH  10  11
ENDBRANCH   1  10
TORSDOF 3
ENDMDL
MODEL 4
REMARK VINA RESULT:      -5.3      1.659      2.053
REMARK  Name = 
REMARK  3 active torsions:
REMARK  status: ('A' for Active; 'I' for Inactive)
REMARK    1  A    between atoms: N_1  and  C_2
REMARK    2  A    between atoms: C_2  and  C_3
REMARK    3  A    between atoms: C_3  and  C_6
REMARK                            x       y       z     vdW  Elec       q    Type
REMARK                         _______ _______ _______ _____ _____    ______ ____
ROOT
ATOM      1  C   UNL     1       4.106   4.219  18.249  0.00  0.00    +0.000 C 
ATOM      2  C   UNL     1       3.860   3.873  16.982  0.00  0.00    +0.000 C 
ATOM      3  F   UNL     1       4.707   4.167  15.978  0.00  0.00    +0.000 F 
ENDROOT
BRANCH   1   4
ATOM      4  C   UNL     1       3.134   3.807  19.274  0.00  0.00    +0.000 A 
ATOM      5  C   UNL     1       1.820   4.289  19.244  0.00  0.00    +0.000 A 
ATOM      6  C   UNL     1       0.915   3.922  20.241  0.00  0.00    +0.000 A 
ATOM      7  C   UNL     1       1.317   3.072  21.272  0.00  0.00    +0.000 A 
ATOM      8  C   UNL     1       2.623   2.586  21.307  0.00  0.00    +0.000 A 
ATOM      9  C   UNL     1       3.531   2.956  20.313  0.00  0.00    +0.000 A 
ENDBRANCH   1   4
BRANCH   1  10
ATOM     10  C   UNL     1       5.344   4.950  18.687  0.00  0.00    +0.000 C 
BRANCH  10  11
ATOM     11  N   UNL     1       6.547   4.123  18.598  0.00  0.00    +0.000 NA
ATOM     12  H   UNL     1       6.462   3.510  17.789  0.00  0.00    +0.000 HD
ATOM     13  H   UNL     1       6.579   3.508  19.410  0.00  0.00    +0.000 HD
ENDBRANCH  10  11
ENDBRANCH   1  10
TORSDOF 3
ENDMDL
MODEL 5
REMARK VINA RESULT:      -5.2      2.606      4.443
REMARK  Name = 
REMARK  3 active torsions:
REMARK  status: ('A' for Active; 'I' for Inactive)
REMARK    1  A    between atoms: N_1  and  C_2
REMARK    2  A    between atoms: C_2  and  C_3
REMARK    3  A    between atoms: C_3  and  C_6
REMARK                            x       y       z     vdW  Elec       q    Type
REMARK                         _______ _______ _______ _____ _____    ______ ____
ROOT
ATOM      1  C   UNL     1       2.959   3.322  18.054  0.00  0.00    +0.000 C 
ATOM      2  C   UNL     1       1.632   3.453  18.138  0.00  0.00    +0.000 C 
ATOM      3  F   UNL     1       0.855   2.533  18.742  0.00  0.00    +0.000 F 
ENDROOT
BRANCH   1   4
ATOM      4  C   UNL     1       3.717   4.408  17.413  0.00  0.00    +0.000 A 
ATOM      5  C   UNL     1       4.620   4.133  16.380  0.00  0.00    +0.000 A 
ATOM      6  C   UNL     1       5.362   5.165  15.802  0.00  0.00    +0.000 A 
ATOM      7  C   UNL     1       5.204   6.476  16.252  0.00  0.00    +0.000 A 
ATOM      8  C   UNL     1       4.304   6.758  17.279  0.00  0.00    +0.000 A 
ATOM      9  C   UNL     1       3.565   5.727  17.861  0.00  0.00    +0.000 A 
ENDBRANCH   1   4
BRANCH   1  10
ATOM     10  C   UNL     1       3.719   2.160  18.630  0.00  0.00    +0.000 C 
BRANCH  10  11
ATOM     11  N   UNL     1       4.836   2.580  19.474  0.00  0.00    +0.000 NA
ATOM     12  H   UNL     1       4.473   2.841  20.390  0.00  0.00    +0.000 HD
ATOM     13  H   UNL     1       5.237   3.431  19.083  0.00  0.00    +0.000 HD
ENDBRANCH  10  11
ENDBRANCH   1  10
TORSDOF 3
ENDMDL
MODEL 6
REMARK VINA RESULT:      -5.2      2.385      3.174
REMARK  Name = 
REMARK  3 active torsions:
REMARK  status: ('A' for Active; 'I' for Inactive)
REMARK    1  A    between atoms: N_1  and  C_2
REMARK    2  A    between atoms: C_2  and  C_3
REMARK    3  A    between atoms: C_3  and  C_6
REMARK                            x       y       z     vdW  Elec       q    Type
REMARK                         _______ _______ _______ _____ _____    ______ ____
ROOT
ATOM      1  C   UNL     1       6.164   4.939  17.890  0.00  0.00    +0.000 C 
ATOM      2  C   UNL     1       6.687   5.483  18.993  0.00  0.00    +0.000 C 
ATOM      3  F   UNL     1       8.004   5.737  19.116  0.00  0.00    +0.000 F 
ENDROOT
BRANCH   1   4
ATOM      4  C   UNL     1       4.707   4.745  17.844  0.00  0.00    +0.000 A 
ATOM      5  C   UNL     1       4.162   3.550  17.360  0.00  0.00    +0.000 A 
ATOM      6  C   UNL     1       2.777   3.389  17.286  0.00  0.00    +0.000 A 
ATOM      7  C   UNL     1       1.931   4.419  17.696  0.00  0.00    +0.000 A 
ATOM      8  C   UNL     1       2.466   5.612  18.181  0.00  0.00    +0.000 A 
ATOM      9  C   UNL     1       3.850   5.776  18.252  0.00  0.00    +0.000 A 
ENDBRANCH   1   4
BRANCH   1  10
ATOM     10  C   UNL     1       6.975   4.572  16.678  0.00  0.00    +0.000 C 
BRANCH  10  11
ATOM     11  N   UNL     1       7.347   5.737  15.877  0.00  0.00    +0.000 NA
ATOM     12  H   UNL     1       8.075   6.253  16.368  0.00  0.00    +0.000 HD
ATOM     13  H   UNL     1       6.547   6.366  15.827  0.00  0.00    +0.000 HD
ENDBRANCH  10  11
ENDBRANCH   1  10
TORSDOF 3
ENDMDL
MODEL 7
REMARK VINA RESULT:      -5.2      2.825      3.522
REMARK  Name = 
REMARK  3 active torsions:
REMARK  status: ('A' for Active; 'I' for Inactive)
REMARK    1  A    between atoms: N_1  and  C_2
REMARK    2  A    between atoms: C_2  and  C_3
REMARK    3  A    between atoms: C_3  and  C_6
REMARK                            x       y       z     vdW  Elec       q    Type
REMARK                         _______ _______ _______ _____ _____    ______ ____
ROOT
ATOM      1  C   UNL     1       5.713   4.624  16.087  0.00  0.00    +0.000 C 
ATOM      2  C   UNL     1       5.652   4.178  14.829  0.00  0.00    +0.000 C 
ATOM      3  F   UNL     1       6.751   4.024  14.066  0.00  0.00    +0.000 F 
ENDROOT
BRANCH   1   4
ATOM      4  C   UNL     1       4.456   4.712  16.846  0.00  0.00    +0.000 A 
ATOM      5  C   UNL     1       3.626   3.593  16.980  0.00  0.00    +0.000 A 
ATOM      6  C   UNL     1       2.416   3.695  17.670  0.00  0.00    +0.000 A 
ATOM      7  C   UNL     1       2.031   4.913  18.229  0.00  0.00    +0.000 A 
ATOM      8  C   UNL     1       2.854   6.031  18.101  0.00  0.00    +0.000 A 
ATOM      9  C   UNL     1       4.061   5.932  17.408  0.00  0.00    +0.000 A 
ENDBRANCH   1   4
BRANCH   1  10
ATOM     10  C   UNL     1       6.997   4.980  16.783  0.00  0.00    +0.000 C 
BRANCH  10  11
ATOM     11  N   UNL     1       7.494   6.302  16.404  0.00  0.00    +0.000 NA
ATOM     12  H   UNL     1       6.850   6.712  15.730  0.00  0.00    +0.000 HD
ATOM     13  H   UNL     1       8.378   6.187  15.909  0.00  0.00    +0.000 HD
ENDBRANCH  10  11
ENDBRANCH   1  10
TORSDOF 3
ENDMDL
MODEL 8
REMARK VINA RESULT:      -5.2      2.420      3.023
REMARK  Name = 
REMARK  3 active torsions:
REMARK  status: ('A' for Active; 'I' for Inactive)
REMARK    1  A    between atoms: N_1  and  C_2
REMARK    2  A    between atoms: C_2  and  C_3
REMARK    3  A    between atoms: C_3  and  C_6
REMARK                            x       y       z     vdW  Elec       q    Type
REMARK                         _______ _______ _______ _____ _____    ______ ____
ROOT
ATOM      1  C   UNL     1       6.048   4.784  17.477  0.00  0.00    +0.000 C 
ATOM      2  C   UNL     1       6.697   5.223  18.561  0.00  0.00    +0.000 C 
ATOM      3  F   UNL     1       8.033   5.389  18.582  0.00  0.00    +0.000 F 
ENDROOT
BRANCH   1   4
ATOM      4  C   UNL     1       4.582   4.683  17.549  0.00  0.00    +0.000 A 
ATOM      5  C   UNL     1       3.814   5.770  17.983  0.00  0.00    +0.000 A 
ATOM      6  C   UNL     1       2.427   5.653  18.083  0.00  0.00    +0.000 A 
ATOM      7  C   UNL     1       1.800   4.452  17.750  0.00  0.00    +0.000 A 
ATOM      8  C   UNL     1       2.559   3.366  17.316  0.00  0.00    +0.000 A 
ATOM      9  C   UNL     1       3.947   3.480  17.219  0.00  0.00    +0.000 A 
ENDBRANCH   1   4
BRANCH   1  10
ATOM     10  C   UNL     1       6.728   4.448  16.180  0.00  0.00    +0.000 C 
BRANCH  10  11
ATOM     11  N   UNL     1       7.303   5.622  15.525  0.00  0.00    +0.000 NA
ATOM     12  H   UNL     1       7.832   6.154  16.214  0.00  0.00    +0.000 HD
ATOM     13  H   UNL     1       6.543   6.233  15.228  0.00  0.00    +0.000 HD
ENDBRANCH  10  11
ENDBRANCH   1  10
TORSDOF 3
ENDMDL
MODEL 9
REMARK VINA RESULT:      -5.2      2.800      3.323
REMARK  Name = 
REMARK  3 active torsions:
REMARK  status: ('A' for Active; 'I' for Inactive)
REMARK    1  A    between atoms: N_1  and  C_2
REMARK    2  A    between atoms: C_2  and  C_3
REMARK    3  A    between atoms: C_3  and  C_6
REMARK                            x       y       z     vdW  Elec       q    Type
REMARK                         _______ _______ _______ _____ _____    ______ ____
ROOT
ATOM      1  C   UNL     1       5.697   4.593  16.163  0.00  0.00    +0.000 C 
ATOM      2  C   UNL     1       5.692   4.097  14.921  0.00  0.00    +0.000 C 
ATOM      3  F   UNL     1       6.822   3.929  14.209  0.00  0.00    +0.000 F 
ENDROOT
BRANCH   1   4
ATOM      4  C   UNL     1       4.410   4.693  16.867  0.00  0.00    +0.000 A 
ATOM      5  C   UNL     1       4.010   5.901  17.451  0.00  0.00    +0.000 A 
ATOM      6  C   UNL     1       2.803   5.977  18.149  0.00  0.00    +0.000 A 
ATOM      7  C   UNL     1       1.991   4.849  18.267  0.00  0.00    +0.000 A 
ATOM      8  C   UNL     1       2.383   3.643  17.687  0.00  0.00    +0.000 A 
ATOM      9  C   UNL     1       3.591   3.564  16.992  0.00  0.00    +0.000 A 
ENDBRANCH   1   4
BRANCH   1  10
ATOM     10  C   UNL     1       6.948   4.995  16.893  0.00  0.00    +0.000 C 
BRANCH  10  11
ATOM     11  N   UNL     1       7.478   6.279  16.437  0.00  0.00    +0.000 NA
ATOM     12  H   UNL     1       8.012   6.128  15.583  0.00  0.00    +0.000 HD
ATOM     13  H   UNL     1       8.148   6.617  17.127  0.00  0.00    +0.000 HD
ENDBRANCH  10  11
ENDBRANCH   1  10
TORSDOF 3
ENDMDL
