MODEL 1
REMARK VINA RESULT:      -8.8      0.000      0.000
REMARK  Name = 
REMARK  10 active torsions:
REMARK  status: ('A' for Active; 'I' for Inactive)
REMARK    1  A    between atoms: C_1  and  O_2
REMARK    2  A    between atoms: O_2  and  C_3
REMARK    3  A    between atoms: C_6  and  C_7
REMARK    4  A    between atoms: C_13  and  C_14
REMARK    5  A    between atoms: C_17  and  O_18
REMARK    6  A    between atoms: O_18  and  C_19
REMARK    7  A    between atoms: C_20  and  O_21
REMARK    8  A    between atoms: O_21  and  C_22
REMARK    9  A    between atoms: C_27  and  O_28
REMARK   10  A    between atoms: O_28  and  C_29
REMARK                            x       y       z     vdW  Elec       q    Type
REMARK                         _______ _______ _______ _____ _____    ______ ____
ROOT
ATOM      1  C   UNL     1       2.047   6.691  20.096  0.00  0.00    +0.000 A 
ATOM      2  C   UNL     1       1.499   5.705  20.928  0.00  0.00    +0.000 A 
ATOM      3  N   UNL     1       1.787   4.376  20.928  0.00  0.00    +0.000 NA
ATOM      4  C   UNL     1       2.692   4.044  19.993  0.00  0.00    +0.000 A 
ATOM      5  N   UNL     1       3.156   2.778  19.781  0.00  0.00    +0.000 N 
ATOM      6  C   UNL     1       4.068   2.782  18.756  0.00  0.00    +0.000 A 
ATOM      7  C   UNL     1       4.203   4.081  18.294  0.00  0.00    +0.000 A 
ATOM      8  C   UNL     1       3.327   4.886  19.090  0.00  0.00    +0.000 A 
ATOM      9  C   UNL     1       3.003   6.253  19.168  0.00  0.00    +0.000 A 
ATOM     10  H   UNL     1       2.859   1.978  20.319  0.00  0.00    +0.000 HD
ENDROOT
BRANCH   1  14
ATOM     11  C   UNL     1       0.681  10.783  20.245  0.00  0.00    +0.000 A 
ATOM     12  C   UNL     1       1.134  10.221  19.044  0.00  0.00    +0.000 A 
ATOM     13  C   UNL     1       1.568   8.894  18.997  0.00  0.00    +0.000 A 
ATOM     14  C   UNL     1       1.633   8.107  20.155  0.00  0.00    +0.000 A 
ATOM     15  C   UNL     1       1.279   8.725  21.364  0.00  0.00    +0.000 A 
ATOM     16  C   UNL     1       0.806  10.047  21.427  0.00  0.00    +0.000 A 
BRANCH  11  18
ATOM     17  C   UNL     1      -1.136  12.185  19.676  0.00  0.00    +0.000 C 
ATOM     18  O   UNL     1       0.155  12.044  20.269  0.00  0.00    +0.000 OA
ENDBRANCH  11  18
BRANCH  16  19
ATOM     19  O   UNL     1       0.494  10.412  22.710  0.00  0.00    +0.000 OA
ATOM     20  C   UNL     1      -0.823  10.196  23.187  0.00  0.00    +0.000 C 
ENDBRANCH  16  19
ENDBRANCH   1  14
BRANCH   7  21
ATOM     21  C   UNL     1       5.108   4.475  17.217  0.00  0.00    +0.000 A 
ATOM     22  C   UNL     1       5.203   3.718  16.050  0.00  0.00    +0.000 A 
ATOM     23  C   UNL     1       6.122   4.068  15.061  0.00  0.00    +0.000 A 
ATOM     24  C   UNL     1       6.982   5.165  15.218  0.00  0.00    +0.000 A 
ATOM     25  C   UNL     1       6.901   5.940  16.387  0.00  0.00    +0.000 A 
ATOM     26  C   UNL     1       5.942   5.599  17.356  0.00  0.00    +0.000 A 
BRANCH  24  27
ATOM     27  O   UNL     1       7.815   5.317  14.140  0.00  0.00    +0.000 OA
ATOM     28  C   UNL     1       7.398   4.841  12.872  0.00  0.00    +0.000 C 
ENDBRANCH  24  27
BRANCH  25  29
ATOM     29  O   UNL     1       7.769   6.988  16.536  0.00  0.00    +0.000 OA
ATOM     30  C   UNL     1       7.664   7.803  17.695  0.00  0.00    +0.000 C 
ENDBRANCH  25  29
ENDBRANCH   7  21
TORSDOF 6
ENDMDL
MODEL 2
REMARK VINA RESULT:      -8.2      0.727      1.732
REMARK  Name = 
REMARK  10 active torsions:
REMARK  status: ('A' for Active; 'I' for Inactive)
REMARK    1  A    between atoms: C_1  and  O_2
REMARK    2  A    between atoms: O_2  and  C_3
REMARK    3  A    between atoms: C_6  and  C_7
REMARK    4  A    between atoms: C_13  and  C_14
REMARK    5  A    between atoms: C_17  and  O_18
REMARK    6  A    between atoms: O_18  and  C_19
REMARK    7  A    between atoms: C_20  and  O_21
REMARK    8  A    between atoms: O_21  and  C_22
REMARK    9  A    between atoms: C_27  and  O_28
REMARK   10  A    between atoms: O_28  and  C_29
REMARK                            x       y       z     vdW  Elec       q    Type
REMARK                         _______ _______ _______ _____ _____    ______ ____
ROOT
ATOM      1  C   UNL     1       2.040   6.489  20.204  0.00  0.00    +0.000 A 
ATOM      2  C   UNL     1       1.535   5.469  21.022  0.00  0.00    +0.000 A 
ATOM      3  N   UNL     1       1.860   4.149  20.984  0.00  0.00    +0.000 NA
ATOM      4  C   UNL     1       2.759   3.865  20.027  0.00  0.00    +0.000 A 
ATOM      5  N   UNL     1       3.254   2.619  19.777  0.00  0.00    +0.000 N 
ATOM      6  C   UNL     1       4.149   2.673  18.737  0.00  0.00    +0.000 A 
ATOM      7  C   UNL     1       4.239   3.986  18.305  0.00  0.00    +0.000 A 
ATOM      8  C   UNL     1       3.354   4.747  19.135  0.00  0.00    +0.000 A 
ATOM      9  C   UNL     1       2.993   6.101  19.251  0.00  0.00    +0.000 A 
ATOM     10  H   UNL     1       2.990   1.798  20.300  0.00  0.00    +0.000 HD
ENDROOT
BRANCH   1  14
ATOM     11  C   UNL     1       0.868  10.630  20.542  0.00  0.00    +0.000 A 
ATOM     12  C   UNL     1       0.708   9.749  21.619  0.00  0.00    +0.000 A 
ATOM     13  C   UNL     1       1.095   8.412  21.510  0.00  0.00    +0.000 A 
ATOM     14  C   UNL     1       1.587   7.891  20.305  0.00  0.00    +0.000 A 
ATOM     15  C   UNL     1       1.635   8.765  19.208  0.00  0.00    +0.000 A 
ATOM     16  C   UNL     1       1.284  10.122  19.307  0.00  0.00    +0.000 A 
BRANCH  11  18
ATOM     17  C   UNL     1      -0.768  12.335  20.459  0.00  0.00    +0.000 C 
ATOM     18  O   UNL     1       0.591  11.961  20.684  0.00  0.00    +0.000 OA
ENDBRANCH  11  18
BRANCH  16  19
ATOM     19  O   UNL     1       1.447  10.776  18.115  0.00  0.00    +0.000 OA
ATOM     20  C   UNL     1       2.418  11.804  18.019  0.00  0.00    +0.000 C 
ENDBRANCH  16  19
ENDBRANCH   1  14
BRANCH   7  21
ATOM     21  C   UNL     1       5.115   4.432  17.224  0.00  0.00    +0.000 A 
ATOM     22  C   UNL     1       5.158   3.746  16.011  0.00  0.00    +0.000 A 
ATOM     23  C   UNL     1       6.049   4.142  15.013  0.00  0.00    +0.000 A 
ATOM     24  C   UNL     1       6.932   5.215  15.207  0.00  0.00    +0.000 A 
ATOM     25  C   UNL     1       6.903   5.918  16.422  0.00  0.00    +0.000 A 
ATOM     26  C   UNL     1       5.972   5.533  17.402  0.00  0.00    +0.000 A 
BRANCH  24  27
ATOM     27  O   UNL     1       7.732   5.420  14.112  0.00  0.00    +0.000 OA
ATOM     28  C   UNL     1       7.388   4.807  12.881  0.00  0.00    +0.000 C 
ENDBRANCH  24  27
BRANCH  25  29
ATOM     29  O   UNL     1       7.793   6.943  16.605  0.00  0.00    +0.000 OA
ATOM     30  C   UNL     1       7.618   7.810  17.717  0.00  0.00    +0.000 C 
ENDBRANCH  25  29
ENDBRANCH   7  21
TORSDOF 6
ENDMDL
MODEL 3
REMARK VINA RESULT:      -7.8      3.902      8.984
REMARK  Name = 
REMARK  10 active torsions:
REMARK  status: ('A' for Active; 'I' for Inactive)
REMARK    1  A    between atoms: C_1  and  O_2
REMARK    2  A    between atoms: O_2  and  C_3
REMARK    3  A    between atoms: C_6  and  C_7
REMARK    4  A    between atoms: C_13  and  C_14
REMARK    5  A    between atoms: C_17  and  O_18
REMARK    6  A    between atoms: O_18  and  C_19
REMARK    7  A    between atoms: C_20  and  O_21
REMARK    8  A    between atoms: O_21  and  C_22
REMARK    9  A    between atoms: C_27  and  O_28
REMARK   10  A    between atoms: O_28  and  C_29
REMARK                            x       y       z     vdW  Elec       q    Type
REMARK                         _______ _______ _______ _____ _____    ______ ____
ROOT
ATOM      1  C   UNL     1       1.188   8.404  20.686  0.00  0.00    +0.000 A 
ATOM      2  C   UNL     1       1.500   9.103  21.860  0.00  0.00    +0.000 A 
ATOM      3  N   UNL     1       0.950  10.269  22.292  0.00  0.00    +0.000 NA
ATOM      4  C   UNL     1       0.025  10.749  21.446  0.00  0.00    +0.000 A 
ATOM      5  N   UNL     1      -0.678  11.902  21.643  0.00  0.00    +0.000 N 
ATOM      6  C   UNL     1      -1.541  12.106  20.594  0.00  0.00    +0.000 A 
ATOM      7  C   UNL     1      -1.397  11.060  19.698  0.00  0.00    +0.000 A 
ATOM      8  C   UNL     1      -0.400  10.191  20.248  0.00  0.00    +0.000 A 
ATOM      9  C   UNL     1       0.190   8.969  19.878  0.00  0.00    +0.000 A 
ATOM     10  H   UNL     1      -0.565  12.494  22.453  0.00  0.00    +0.000 HD
ENDROOT
BRANCH   1  14
ATOM     11  C   UNL     1       3.331   4.812  19.618  0.00  0.00    +0.000 A 
ATOM     12  C   UNL     1       3.383   5.949  18.801  0.00  0.00    +0.000 A 
ATOM     13  C   UNL     1       2.694   7.112  19.152  0.00  0.00    +0.000 A 
ATOM     14  C   UNL     1       1.877   7.160  20.290  0.00  0.00    +0.000 A 
ATOM     15  C   UNL     1       1.753   5.976  21.033  0.00  0.00    +0.000 A 
ATOM     16  C   UNL     1       2.465   4.806  20.716  0.00  0.00    +0.000 A 
BRANCH  11  18
ATOM     17  C   UNL     1       3.828   3.094  18.072  0.00  0.00    +0.000 C 
ATOM     18  O   UNL     1       4.091   3.713  19.331  0.00  0.00    +0.000 OA
ENDBRANCH  11  18
BRANCH  16  19
ATOM     19  O   UNL     1       2.205   3.798  21.606  0.00  0.00    +0.000 OA
ATOM     20  C   UNL     1       1.324   2.755  21.228  0.00  0.00    +0.000 C 
ENDBRANCH  16  19
ENDBRANCH   1  14
BRANCH   7  21
ATOM     21  C   UNL     1      -2.172  10.926  18.467  0.00  0.00    +0.000 A 
ATOM     22  C   UNL     1      -1.663  10.224  17.376  0.00  0.00    +0.000 A 
ATOM     23  C   UNL     1      -2.385  10.164  16.184  0.00  0.00    +0.000 A 
ATOM     24  C   UNL     1      -3.618  10.817  16.043  0.00  0.00    +0.000 A 
ATOM     25  C   UNL     1      -4.147  11.530  17.131  0.00  0.00    +0.000 A 
ATOM     26  C   UNL     1      -3.427  11.547  18.339  0.00  0.00    +0.000 A 
BRANCH  24  27
ATOM     27  O   UNL     1      -4.145  10.647  14.788  0.00  0.00    +0.000 OA
ATOM     28  C   UNL     1      -3.387   9.955  13.810  0.00  0.00    +0.000 C 
ENDBRANCH  24  27
BRANCH  25  29
ATOM     29  O   UNL     1      -5.337  12.186  16.966  0.00  0.00    +0.000 OA
ATOM     30  C   UNL     1      -6.433  11.837  17.802  0.00  0.00    +0.000 C 
ENDBRANCH  25  29
ENDBRANCH   7  21
TORSDOF 6
ENDMDL
MODEL 4
REMARK VINA RESULT:      -7.7      0.831      1.889
REMARK  Name = 
REMARK  10 active torsions:
REMARK  status: ('A' for Active; 'I' for Inactive)
REMARK    1  A    between atoms: C_1  and  O_2
REMARK    2  A    between atoms: O_2  and  C_3
REMARK    3  A    between atoms: C_6  and  C_7
REMARK    4  A    between atoms: C_13  and  C_14
REMARK    5  A    between atoms: C_17  and  O_18
REMARK    6  A    between atoms: O_18  and  C_19
REMARK    7  A    between atoms: C_20  and  O_21
REMARK    8  A    between atoms: O_21  and  C_22
REMARK    9  A    between atoms: C_27  and  O_28
REMARK   10  A    between atoms: O_28  and  C_29
REMARK                            x       y       z     vdW  Elec       q    Type
REMARK                         _______ _______ _______ _____ _____    ______ ____
ROOT
ATOM      1  C   UNL     1       2.040   6.325  19.797  0.00  0.00    +0.000 A 
ATOM      2  C   UNL     1       1.361   5.313  20.488  0.00  0.00    +0.000 A 
ATOM      3  N   UNL     1       1.572   3.972  20.396  0.00  0.00    +0.000 NA
ATOM      4  C   UNL     1       2.541   3.660  19.520  0.00  0.00    +0.000 A 
ATOM      5  N   UNL     1       2.949   2.389  19.240  0.00  0.00    +0.000 N 
ATOM      6  C   UNL     1       3.953   2.417  18.304  0.00  0.00    +0.000 A 
ATOM      7  C   UNL     1       4.204   3.738  17.971  0.00  0.00    +0.000 A 
ATOM      8  C   UNL     1       3.304   4.530  18.754  0.00  0.00    +0.000 A 
ATOM      9  C   UNL     1       3.053   5.904  18.923  0.00  0.00    +0.000 A 
ATOM     10  H   UNL     1       2.558   1.567  19.677  0.00  0.00    +0.000 HD
ENDROOT
BRANCH   1  14
ATOM     11  C   UNL     1       0.899  10.469  20.201  0.00  0.00    +0.000 A 
ATOM     12  C   UNL     1       1.300   9.953  18.962  0.00  0.00    +0.000 A 
ATOM     13  C   UNL     1       1.662   8.610  18.832  0.00  0.00    +0.000 A 
ATOM     14  C   UNL     1       1.704   7.755  19.943  0.00  0.00    +0.000 A 
ATOM     15  C   UNL     1       1.404   8.322  21.192  0.00  0.00    +0.000 A 
ATOM     16  C   UNL     1       1.005   9.662  21.338  0.00  0.00    +0.000 A 
BRANCH  11  18
ATOM     17  C   UNL     1      -0.935  11.944  19.983  0.00  0.00    +0.000 C 
ATOM     18  O   UNL     1       0.442  11.753  20.306  0.00  0.00    +0.000 OA
ENDBRANCH  11  18
BRANCH  16  19
ATOM     19  O   UNL     1       0.734   9.969  22.645  0.00  0.00    +0.000 OA
ATOM     20  C   UNL     1      -0.601   9.882  23.112  0.00  0.00    +0.000 C 
ENDBRANCH  16  19
ENDBRANCH   1  14
BRANCH   7  21
ATOM     21  C   UNL     1       5.227   4.160  17.018  0.00  0.00    +0.000 A 
ATOM     22  C   UNL     1       6.126   5.176  17.338  0.00  0.00    +0.000 A 
ATOM     23  C   UNL     1       7.054   5.615  16.392  0.00  0.00    +0.000 A 
ATOM     24  C   UNL     1       7.094   5.069  15.101  0.00  0.00    +0.000 A 
ATOM     25  C   UNL     1       6.196   4.045  14.760  0.00  0.00    +0.000 A 
ATOM     26  C   UNL     1       5.295   3.585  15.736  0.00  0.00    +0.000 A 
BRANCH  24  27
ATOM     27  O   UNL     1       8.062   5.658  14.330  0.00  0.00    +0.000 OA
ATOM     28  C   UNL     1       8.024   5.485  12.923  0.00  0.00    +0.000 C 
ENDBRANCH  24  27
BRANCH  25  29
ATOM     29  O   UNL     1       6.230   3.545  13.486  0.00  0.00    +0.000 OA
ATOM     30  C   UNL     1       5.009   3.411  12.770  0.00  0.00    +0.000 C 
ENDBRANCH  25  29
ENDBRANCH   7  21
TORSDOF 6
ENDMDL
MODEL 5
REMARK VINA RESULT:      -7.5      1.764      2.675
REMARK  Name = 
REMARK  10 active torsions:
REMARK  status: ('A' for Active; 'I' for Inactive)
REMARK    1  A    between atoms: C_1  and  O_2
REMARK    2  A    between atoms: O_2  and  C_3
REMARK    3  A    between atoms: C_6  and  C_7
REMARK    4  A    between atoms: C_13  and  C_14
REMARK    5  A    between atoms: C_17  and  O_18
REMARK    6  A    between atoms: O_18  and  C_19
REMARK    7  A    between atoms: C_20  and  O_21
REMARK    8  A    between atoms: O_21  and  C_22
REMARK    9  A    between atoms: C_27  and  O_28
REMARK   10  A    between atoms: O_28  and  C_29
REMARK                            x       y       z     vdW  Elec       q    Type
REMARK                         _______ _______ _______ _____ _____    ______ ____
ROOT
ATOM      1  C   UNL     1       1.328   8.764  19.695  0.00  0.00    +0.000 A 
ATOM      2  C   UNL     1       0.801   8.177  20.854  0.00  0.00    +0.000 A 
ATOM      3  N   UNL     1       1.097   6.950  21.360  0.00  0.00    +0.000 NA
ATOM      4  C   UNL     1       1.987   6.282  20.609  0.00  0.00    +0.000 A 
ATOM      5  N   UNL     1       2.454   5.031  20.892  0.00  0.00    +0.000 N 
ATOM      6  C   UNL     1       3.347   4.638  19.927  0.00  0.00    +0.000 A 
ATOM      7  C   UNL     1       3.466   5.658  18.998  0.00  0.00    +0.000 A 
ATOM      8  C   UNL     1       2.600   6.709  19.439  0.00  0.00    +0.000 A 
ATOM      9  C   UNL     1       2.270   8.001  18.990  0.00  0.00    +0.000 A 
ATOM     10  H   UNL     1       2.172   4.501  21.703  0.00  0.00    +0.000 HD
ENDROOT
BRANCH   1  14
ATOM     11  C   UNL     1       0.101  12.707  18.437  0.00  0.00    +0.000 A 
ATOM     12  C   UNL     1      -0.848  11.714  18.712  0.00  0.00    +0.000 A 
ATOM     13  C   UNL     1      -0.449  10.441  19.127  0.00  0.00    +0.000 A 
ATOM     14  C   UNL     1       0.907  10.094  19.212  0.00  0.00    +0.000 A 
ATOM     15  C   UNL     1       1.838  11.071  18.826  0.00  0.00    +0.000 A 
ATOM     16  C   UNL     1       1.457  12.368  18.440  0.00  0.00    +0.000 A 
BRANCH  11  18
ATOM     17  C   UNL     1      -0.441  14.858  19.254  0.00  0.00    +0.000 C 
ATOM     18  O   UNL     1      -0.292  13.981  18.138  0.00  0.00    +0.000 OA
ENDBRANCH  11  18
BRANCH  16  19
ATOM     19  O   UNL     1       2.543  13.147  18.143  0.00  0.00    +0.000 OA
ATOM     20  C   UNL     1       3.118  13.945  19.163  0.00  0.00    +0.000 C 
ENDBRANCH  16  19
ENDBRANCH   1  14
BRANCH   7  21
ATOM     21  C   UNL     1       4.349   5.605  17.835  0.00  0.00    +0.000 A 
ATOM     22  C   UNL     1       4.134   4.677  16.817  0.00  0.00    +0.000 A 
ATOM     23  C   UNL     1       5.026   4.592  15.748  0.00  0.00    +0.000 A 
ATOM     24  C   UNL     1       6.162   5.413  15.676  0.00  0.00    +0.000 A 
ATOM     25  C   UNL     1       6.394   6.353  16.693  0.00  0.00    +0.000 A 
ATOM     26  C   UNL     1       5.466   6.455  17.743  0.00  0.00    +0.000 A 
BRANCH  24  27
ATOM     27  O   UNL     1       6.910   5.150  14.558  0.00  0.00    +0.000 OA
ATOM     28  C   UNL     1       6.479   4.143  13.659  0.00  0.00    +0.000 C 
ENDBRANCH  24  27
BRANCH  25  29
ATOM     29  O   UNL     1       7.524   7.125  16.622  0.00  0.00    +0.000 OA
ATOM     30  C   UNL     1       7.764   8.081  17.645  0.00  0.00    +0.000 C 
ENDBRANCH  25  29
ENDBRANCH   7  21
TORSDOF 6
ENDMDL
MODEL 6
REMARK VINA RESULT:      -7.5      3.713      9.022
REMARK  Name = 
REMARK  10 active torsions:
REMARK  status: ('A' for Active; 'I' for Inactive)
REMARK    1  A    between atoms: C_1  and  O_2
REMARK    2  A    between atoms: O_2  and  C_3
REMARK    3  A    between atoms: C_6  and  C_7
REMARK    4  A    between atoms: C_13  and  C_14
REMARK    5  A    between atoms: C_17  and  O_18
REMARK    6  A    between atoms: O_18  and  C_19
REMARK    7  A    between atoms: C_20  and  O_21
REMARK    8  A    between atoms: O_21  and  C_22
REMARK    9  A    between atoms: C_27  and  O_28
REMARK   10  A    between atoms: O_28  and  C_29
REMARK                            x       y       z     vdW  Elec       q    Type
REMARK                         _______ _______ _______ _____ _____    ______ ____
ROOT
ATOM      1  C   UNL     1       1.246   8.182  20.682  0.00  0.00    +0.000 A 
ATOM      2  C   UNL     1       1.606   8.853  21.859  0.00  0.00    +0.000 A 
ATOM      3  N   UNL     1       1.112  10.036  22.314  0.00  0.00    +0.000 NA
ATOM      4  C   UNL     1       0.193  10.564  21.489  0.00  0.00    +0.000 A 
ATOM      5  N   UNL     1      -0.458  11.742  21.711  0.00  0.00    +0.000 N 
ATOM      6  C   UNL     1      -1.328  11.995  20.680  0.00  0.00    +0.000 A 
ATOM      7  C   UNL     1      -1.242  10.954  19.769  0.00  0.00    +0.000 A 
ATOM      8  C   UNL     1      -0.274  10.039  20.292  0.00  0.00    +0.000 A 
ATOM      9  C   UNL     1       0.259   8.798  19.898  0.00  0.00    +0.000 A 
ATOM     10  H   UNL     1      -0.308  12.319  22.525  0.00  0.00    +0.000 HD
ENDROOT
BRANCH   1  14
ATOM     11  C   UNL     1       2.952   4.441  19.368  0.00  0.00    +0.000 A 
ATOM     12  C   UNL     1       2.299   4.537  20.603  0.00  0.00    +0.000 A 
ATOM     13  C   UNL     1       1.741   5.746  21.023  0.00  0.00    +0.000 A 
ATOM     14  C   UNL     1       1.876   6.916  20.261  0.00  0.00    +0.000 A 
ATOM     15  C   UNL     1       2.629   6.820  19.080  0.00  0.00    +0.000 A 
ATOM     16  C   UNL     1       3.169   5.605  18.624  0.00  0.00    +0.000 A 
BRANCH  11  18
ATOM     17  C   UNL     1       2.549   2.575  17.974  0.00  0.00    +0.000 C 
ATOM     18  O   UNL     1       3.402   3.234  18.910  0.00  0.00    +0.000 OA
ENDBRANCH  11  18
BRANCH  16  19
ATOM     19  O   UNL     1       3.830   5.760  17.435  0.00  0.00    +0.000 OA
ATOM     20  C   UNL     1       4.717   6.855  17.277  0.00  0.00    +0.000 C 
ENDBRANCH  16  19
ENDBRANCH   1  14
BRANCH   7  21
ATOM     21  C   UNL     1      -2.042  10.868  18.550  0.00  0.00    +0.000 A 
ATOM     22  C   UNL     1      -1.565  10.190  17.429  0.00  0.00    +0.000 A 
ATOM     23  C   UNL     1      -2.310  10.175  16.250  0.00  0.00    +0.000 A 
ATOM     24  C   UNL     1      -3.535  10.850  16.151  0.00  0.00    +0.000 A 
ATOM     25  C   UNL     1      -4.032  11.539  17.270  0.00  0.00    +0.000 A 
ATOM     26  C   UNL     1      -3.290  11.511  18.463  0.00  0.00    +0.000 A 
BRANCH  24  27
ATOM     27  O   UNL     1      -4.087  10.724  14.903  0.00  0.00    +0.000 OA
ATOM     28  C   UNL     1      -3.407   9.959  13.921  0.00  0.00    +0.000 C 
ENDBRANCH  24  27
BRANCH  25  29
ATOM     29  O   UNL     1      -5.215  12.217  17.146  0.00  0.00    +0.000 OA
ATOM     30  C   UNL     1      -6.347  11.758  17.872  0.00  0.00    +0.000 C 
ENDBRANCH  25  29
ENDBRANCH   7  21
TORSDOF 6
ENDMDL
MODEL 7
REMARK VINA RESULT:      -7.5      0.761      8.022
REMARK  Name = 
REMARK  10 active torsions:
REMARK  status: ('A' for Active; 'I' for Inactive)
REMARK    1  A    between atoms: C_1  and  O_2
REMARK    2  A    between atoms: O_2  and  C_3
REMARK    3  A    between atoms: C_6  and  C_7
REMARK    4  A    between atoms: C_13  and  C_14
REMARK    5  A    between atoms: C_17  and  O_18
REMARK    6  A    between atoms: O_18  and  C_19
REMARK    7  A    between atoms: C_20  and  O_21
REMARK    8  A    between atoms: O_21  and  C_22
REMARK    9  A    between atoms: C_27  and  O_28
REMARK   10  A    between atoms: O_28  and  C_29
REMARK                            x       y       z     vdW  Elec       q    Type
REMARK                         _______ _______ _______ _____ _____    ______ ____
ROOT
ATOM      1  C   UNL     1       4.230   4.178  17.734  0.00  0.00    +0.000 A 
ATOM      2  C   UNL     1       3.917   2.880  18.161  0.00  0.00    +0.000 A 
ATOM      3  N   UNL     1       2.994   2.522  19.094  0.00  0.00    +0.000 NA
ATOM      4  C   UNL     1       2.363   3.579  19.629  0.00  0.00    +0.000 A 
ATOM      5  N   UNL     1       1.393   3.498  20.585  0.00  0.00    +0.000 N 
ATOM      6  C   UNL     1       0.957   4.757  20.915  0.00  0.00    +0.000 A 
ATOM      7  C   UNL     1       1.658   5.677  20.153  0.00  0.00    +0.000 A 
ATOM      8  C   UNL     1       2.552   4.921  19.328  0.00  0.00    +0.000 A 
ATOM      9  C   UNL     1       3.500   5.217  18.332  0.00  0.00    +0.000 A 
ATOM     10  H   UNL     1       1.059   2.626  20.969  0.00  0.00    +0.000 HD
ENDROOT
BRANCH   1  14
ATOM     11  C   UNL     1       7.206   5.107  14.749  0.00  0.00    +0.000 A 
ATOM     12  C   UNL     1       6.334   4.024  14.580  0.00  0.00    +0.000 A 
ATOM     13  C   UNL     1       5.367   3.730  15.544  0.00  0.00    +0.000 A 
ATOM     14  C   UNL     1       5.282   4.459  16.738  0.00  0.00    +0.000 A 
ATOM     15  C   UNL     1       6.237   5.469  16.934  0.00  0.00    +0.000 A 
ATOM     16  C   UNL     1       7.195   5.803  15.961  0.00  0.00    +0.000 A 
BRANCH  11  18
ATOM     17  C   UNL     1       7.683   5.100  12.433  0.00  0.00    +0.000 C 
ATOM     18  O   UNL     1       8.078   5.460  13.757  0.00  0.00    +0.000 OA
ENDBRANCH  11  18
BRANCH  16  19
ATOM     19  O   UNL     1       7.990   6.841  16.369  0.00  0.00    +0.000 OA
ATOM     20  C   UNL     1       7.629   7.571  17.529  0.00  0.00    +0.000 C 
ENDBRANCH  16  19
ENDBRANCH   1  14
BRANCH   7  21
ATOM     21  C   UNL     1       1.446   7.121  20.216  0.00  0.00    +0.000 A 
ATOM     22  C   UNL     1       1.605   7.917  19.083  0.00  0.00    +0.000 A 
ATOM     23  C   UNL     1       1.466   9.302  19.175  0.00  0.00    +0.000 A 
ATOM     24  C   UNL     1       1.187   9.929  20.398  0.00  0.00    +0.000 A 
ATOM     25  C   UNL     1       1.024   9.144  21.551  0.00  0.00    +0.000 A 
ATOM     26  C   UNL     1       1.126   7.746  21.435  0.00  0.00    +0.000 A 
BRANCH  24  27
ATOM     27  O   UNL     1       1.114  11.291  20.267  0.00  0.00    +0.000 OA
ATOM     28  C   UNL     1      -0.151  11.899  20.069  0.00  0.00    +0.000 C 
ENDBRANCH  24  27
BRANCH  25  29
ATOM     29  O   UNL     1       0.783   9.775  22.742  0.00  0.00    +0.000 OA
ATOM     30  C   UNL     1      -0.550   9.819  23.235  0.00  0.00    +0.000 C 
ENDBRANCH  25  29
ENDBRANCH   7  21
TORSDOF 6
ENDMDL
MODEL 8
REMARK VINA RESULT:      -7.3      1.395      1.986
REMARK  Name = 
REMARK  10 active torsions:
REMARK  status: ('A' for Active; 'I' for Inactive)
REMARK    1  A    between atoms: C_1  and  O_2
REMARK    2  A    between atoms: O_2  and  C_3
REMARK    3  A    between atoms: C_6  and  C_7
REMARK    4  A    between atoms: C_13  and  C_14
REMARK    5  A    between atoms: C_17  and  O_18
REMARK    6  A    between atoms: O_18  and  C_19
REMARK    7  A    between atoms: C_20  and  O_21
REMARK    8  A    between atoms: O_21  and  C_22
REMARK    9  A    between atoms: C_27  and  O_28
REMARK   10  A    between atoms: O_28  and  C_29
REMARK                            x       y       z     vdW  Elec       q    Type
REMARK                         _______ _______ _______ _____ _____    ______ ____
ROOT
ATOM      1  C   UNL     1       1.549   8.269  19.765  0.00  0.00    +0.000 A 
ATOM      2  C   UNL     1       0.968   7.549  20.817  0.00  0.00    +0.000 A 
ATOM      3  N   UNL     1       1.235   6.265  21.180  0.00  0.00    +0.000 NA
ATOM      4  C   UNL     1       2.155   5.686  20.392  0.00  0.00    +0.000 A 
ATOM      5  N   UNL     1       2.604   4.406  20.539  0.00  0.00    +0.000 N 
ATOM      6  C   UNL     1       3.538   4.126  19.573  0.00  0.00    +0.000 A 
ATOM      7  C   UNL     1       3.703   5.252  18.783  0.00  0.00    +0.000 A 
ATOM      8  C   UNL     1       2.822   6.249  19.312  0.00  0.00    +0.000 A 
ATOM      9  C   UNL     1       2.518   7.590  19.013  0.00  0.00    +0.000 A 
ATOM     10  H   UNL     1       2.283   3.782  21.264  0.00  0.00    +0.000 HD
ENDROOT
BRANCH   1  14
ATOM     11  C   UNL     1       0.334  12.259  18.652  0.00  0.00    +0.000 A 
ATOM     12  C   UNL     1       1.617  11.788  18.345  0.00  0.00    +0.000 A 
ATOM     13  C   UNL     1       2.005  10.494  18.700  0.00  0.00    +0.000 A 
ATOM     14  C   UNL     1       1.156   9.653  19.432  0.00  0.00    +0.000 A 
ATOM     15  C   UNL     1      -0.082  10.186  19.824  0.00  0.00    +0.000 A 
ATOM     16  C   UNL     1      -0.505  11.472  19.447  0.00  0.00    +0.000 A 
BRANCH  11  18
ATOM     17  C   UNL     1       0.535  14.607  18.838  0.00  0.00    +0.000 C 
ATOM     18  O   UNL     1      -0.082  13.484  18.210  0.00  0.00    +0.000 OA
ENDBRANCH  11  18
BRANCH  16  19
ATOM     19  O   UNL     1      -1.759  11.752  19.920  0.00  0.00    +0.000 OA
ATOM     20  C   UNL     1      -2.840  11.824  19.006  0.00  0.00    +0.000 C 
ENDBRANCH  16  19
ENDBRANCH   1  14
BRANCH   7  21
ATOM     21  C   UNL     1       4.638   5.335  17.663  0.00  0.00    +0.000 A 
ATOM     22  C   UNL     1       4.516   4.481  16.568  0.00  0.00    +0.000 A 
ATOM     23  C   UNL     1       5.457   4.526  15.538  0.00  0.00    +0.000 A 
ATOM     24  C   UNL     1       6.550   5.403  15.585  0.00  0.00    +0.000 A 
ATOM     25  C   UNL     1       6.689   6.270  16.681  0.00  0.00    +0.000 A 
ATOM     26  C   UNL     1       5.711   6.243  17.691  0.00  0.00    +0.000 A 
BRANCH  24  27
ATOM     27  O   UNL     1       7.360   5.268  14.487  0.00  0.00    +0.000 OA
ATOM     28  C   UNL     1       6.958   4.405  13.436  0.00  0.00    +0.000 C 
ENDBRANCH  24  27
BRANCH  25  29
ATOM     29  O   UNL     1       7.779   7.098  16.724  0.00  0.00    +0.000 OA
ATOM     30  C   UNL     1       7.773   8.190  17.634  0.00  0.00    +0.000 C 
ENDBRANCH  25  29
ENDBRANCH   7  21
TORSDOF 6
ENDMDL
MODEL 9
REMARK VINA RESULT:      -7.2      0.987      7.860
REMARK  Name = 
REMARK  10 active torsions:
REMARK  status: ('A' for Active; 'I' for Inactive)
REMARK    1  A    between atoms: C_1  and  O_2
REMARK    2  A    between atoms: O_2  and  C_3
REMARK    3  A    between atoms: C_6  and  C_7
REMARK    4  A    between atoms: C_13  and  C_14
REMARK    5  A    between atoms: C_17  and  O_18
REMARK    6  A    between atoms: O_18  and  C_19
REMARK    7  A    between atoms: C_20  and  O_21
REMARK    8  A    between atoms: O_21  and  C_22
REMARK    9  A    between atoms: C_27  and  O_28
REMARK   10  A    between atoms: O_28  and  C_29
REMARK                            x       y       z     vdW  Elec       q    Type
REMARK                         _______ _______ _______ _____ _____    ______ ____
ROOT
ATOM      1  C   UNL     1       4.256   4.186  17.759  0.00  0.00    +0.000 A 
ATOM      2  C   UNL     1       3.938   2.882  18.162  0.00  0.00    +0.000 A 
ATOM      3  N   UNL     1       3.013   2.510  19.087  0.00  0.00    +0.000 NA
ATOM      4  C   UNL     1       2.385   3.560  19.641  0.00  0.00    +0.000 A 
ATOM      5  N   UNL     1       1.414   3.465  20.594  0.00  0.00    +0.000 N 
ATOM      6  C   UNL     1       0.982   4.720  20.947  0.00  0.00    +0.000 A 
ATOM      7  C   UNL     1       1.688   5.651  20.202  0.00  0.00    +0.000 A 
ATOM      8  C   UNL     1       2.579   4.907  19.364  0.00  0.00    +0.000 A 
ATOM      9  C   UNL     1       3.530   5.216  18.375  0.00  0.00    +0.000 A 
ATOM     10  H   UNL     1       1.077   2.588  20.963  0.00  0.00    +0.000 HD
ENDROOT
BRANCH   1  14
ATOM     11  C   UNL     1       7.235   5.150  14.788  0.00  0.00    +0.000 A 
ATOM     12  C   UNL     1       6.400   4.036  14.632  0.00  0.00    +0.000 A 
ATOM     13  C   UNL     1       5.432   3.731  15.590  0.00  0.00    +0.000 A 
ATOM     14  C   UNL     1       5.310   4.481  16.769  0.00  0.00    +0.000 A 
ATOM     15  C   UNL     1       6.230   5.524  16.955  0.00  0.00    +0.000 A 
ATOM     16  C   UNL     1       7.188   5.869  15.986  0.00  0.00    +0.000 A 
BRANCH  11  18
ATOM     17  C   UNL     1       7.705   5.175  12.471  0.00  0.00    +0.000 C 
ATOM     18  O   UNL     1       8.107   5.511  13.798  0.00  0.00    +0.000 OA
ENDBRANCH  11  18
BRANCH  16  19
ATOM     19  O   UNL     1       7.945   6.940  16.381  0.00  0.00    +0.000 OA
ATOM     20  C   UNL     1       7.674   7.552  17.631  0.00  0.00    +0.000 C 
ENDBRANCH  16  19
ENDBRANCH   1  14
BRANCH   7  21
ATOM     21  C   UNL     1       1.481   7.094  20.291  0.00  0.00    +0.000 A 
ATOM     22  C   UNL     1       1.075   7.685  21.487  0.00  0.00    +0.000 A 
ATOM     23  C   UNL     1       0.815   9.055  21.538  0.00  0.00    +0.000 A 
ATOM     24  C   UNL     1       0.932   9.864  20.399  0.00  0.00    +0.000 A 
ATOM     25  C   UNL     1       1.340   9.287  19.185  0.00  0.00    +0.000 A 
ATOM     26  C   UNL     1       1.638   7.913  19.158  0.00  0.00    +0.000 A 
BRANCH  24  27
ATOM     27  O   UNL     1       0.610  11.170  20.666  0.00  0.00    +0.000 OA
ATOM     28  C   UNL     1      -0.731  11.598  20.501  0.00  0.00    +0.000 C 
ENDBRANCH  24  27
BRANCH  25  29
ATOM     29  O   UNL     1       1.420  10.086  18.076  0.00  0.00    +0.000 OA
ATOM     30  C   UNL     1       2.376  11.138  18.058  0.00  0.00    +0.000 C 
ENDBRANCH  25  29
ENDBRANCH   7  21
TORSDOF 6
ENDMDL
