MODEL 1
REMARK VINA RESULT:      -8.1      0.000      0.000
REMARK  Name = 
REMARK  4 active torsions:
REMARK  status: ('A' for Active; 'I' for Inactive)
REMARK    1  A    between atoms: C_1  and  C_2
REMARK    2  A    between atoms: C_2  and  N_3
REMARK    3  A    between atoms: C_7  and  C_8
REMARK    4  A    between atoms: C_10  and  O_11
REMARK                            x       y       z     vdW  Elec       q    Type
REMARK                         _______ _______ _______ _____ _____    ______ ____
ROOT
ATOM      1  N   UNL     1       4.987   4.786  16.603  0.00  0.00    +0.000 N 
ATOM      2  C   UNL     1       5.042   6.179  16.540  0.00  0.00    +0.000 C 
ATOM      3  O   UNL     1       5.917   6.884  16.074  0.00  0.00    +0.000 OA
ATOM      4  C   UNL     1       3.782   6.647  17.222  0.00  0.00    +0.000 C 
ATOM      5  C   UNL     1       3.563   7.955  17.412  0.00  0.00    +0.000 C 
ATOM      6  C   UNL     1       3.037   5.455  17.635  0.00  0.00    +0.000 A 
ATOM      7  C   UNL     1       1.825   5.271  18.278  0.00  0.00    +0.000 A 
ATOM      8  C   UNL     1       1.405   3.965  18.546  0.00  0.00    +0.000 A 
ATOM      9  C   UNL     1       2.191   2.866  18.166  0.00  0.00    +0.000 A 
ATOM     10  C   UNL     1       3.407   3.055  17.507  0.00  0.00    +0.000 A 
ATOM     11  C   UNL     1       3.814   4.354  17.249  0.00  0.00    +0.000 A 
ENDROOT
BRANCH   5  12
ATOM     12  C   UNL     1       2.465   8.515  18.181  0.00  0.00    +0.000 A 
ATOM     13  N   UNL     1       1.558   9.251  17.527  0.00  0.00    +0.000 NA
ATOM     14  C   UNL     1       0.572   9.721  18.298  0.00  0.00    +0.000 A 
ATOM     15  C   UNL     1       0.428   9.504  19.662  0.00  0.00    +0.000 A 
ATOM     16  C   UNL     1      -0.630  10.002  20.456  0.00  0.00    +0.000 A 
ATOM     17  C   UNL     1      -0.681   9.712  21.816  0.00  0.00    +0.000 A 
ATOM     18  C   UNL     1       0.322   8.935  22.384  0.00  0.00    +0.000 A 
ATOM     19  C   UNL     1       1.368   8.454  21.588  0.00  0.00    +0.000 A 
ATOM     20  C   UNL     1       1.439   8.723  20.224  0.00  0.00    +0.000 A 
ATOM     21  N   UNL     1       2.453   8.234  19.496  0.00  0.00    +0.000 NA
BRANCH  14  22
ATOM     22  O   UNL     1      -0.338  10.459  17.605  0.00  0.00    +0.000 OA
ATOM     23  H   UNL     1       0.251  11.092  17.157  0.00  0.00    +0.000 HD
ENDBRANCH  14  22
ENDBRANCH   5  12
BRANCH   1  25
ATOM     24  C   UNL     1       6.170   3.818  14.673  0.00  0.00    +0.000 C 
ATOM     25  C   UNL     1       6.064   3.915  16.188  0.00  0.00    +0.000 C 
ENDBRANCH   1  25
TORSDOF 3
ENDMDL
MODEL 2
REMARK VINA RESULT:      -8.1      3.091      7.604
REMARK  Name = 
REMARK  4 active torsions:
REMARK  status: ('A' for Active; 'I' for Inactive)
REMARK    1  A    between atoms: C_1  and  C_2
REMARK    2  A    between atoms: C_2  and  N_3
REMARK    3  A    between atoms: C_7  and  C_8
REMARK    4  A    between atoms: C_10  and  O_11
REMARK                            x       y       z     vdW  Elec       q    Type
REMARK                         _______ _______ _______ _____ _____    ______ ____
ROOT
ATOM      1  N   UNL     1       2.039   4.025  19.667  0.00  0.00    +0.000 N 
ATOM      2  C   UNL     1       2.719   3.055  18.932  0.00  0.00    +0.000 C 
ATOM      3  O   UNL     1       2.713   1.847  19.077  0.00  0.00    +0.000 OA
ATOM      4  C   UNL     1       3.519   3.831  17.916  0.00  0.00    +0.000 C 
ATOM      5  C   UNL     1       4.364   3.195  17.093  0.00  0.00    +0.000 C 
ATOM      6  C   UNL     1       3.227   5.252  18.118  0.00  0.00    +0.000 A 
ATOM      7  C   UNL     1       3.650   6.407  17.483  0.00  0.00    +0.000 A 
ATOM      8  C   UNL     1       3.182   7.636  17.954  0.00  0.00    +0.000 A 
ATOM      9  C   UNL     1       2.298   7.698  19.042  0.00  0.00    +0.000 A 
ATOM     10  C   UNL     1       1.863   6.531  19.673  0.00  0.00    +0.000 A 
ATOM     11  C   UNL     1       2.336   5.319  19.198  0.00  0.00    +0.000 A 
ENDROOT
BRANCH   5  12
ATOM     12  C   UNL     1       5.290   3.845  16.182  0.00  0.00    +0.000 A 
ATOM     13  N   UNL     1       6.094   4.791  16.682  0.00  0.00    +0.000 NA
ATOM     14  C   UNL     1       6.926   5.335  15.786  0.00  0.00    +0.000 A 
ATOM     15  C   UNL     1       7.012   4.997  14.442  0.00  0.00    +0.000 A 
ATOM     16  C   UNL     1       7.908   5.578  13.515  0.00  0.00    +0.000 A 
ATOM     17  C   UNL     1       7.917   5.154  12.190  0.00  0.00    +0.000 A 
ATOM     18  C   UNL     1       7.031   4.160  11.789  0.00  0.00    +0.000 A 
ATOM     19  C   UNL     1       6.144   3.598  12.715  0.00  0.00    +0.000 A 
ATOM     20  C   UNL     1       6.120   3.999  14.047  0.00  0.00    +0.000 A 
ATOM     21  N   UNL     1       5.262   3.428  14.904  0.00  0.00    +0.000 NA
BRANCH  14  22
ATOM     22  O   UNL     1       7.735   6.288  16.324  0.00  0.00    +0.000 OA
ATOM     23  H   UNL     1       8.611   5.911  16.126  0.00  0.00    +0.000 HD
ENDBRANCH  14  22
ENDBRANCH   5  12
BRANCH   1  25
ATOM     24  C   UNL     1       2.091   3.136  21.962  0.00  0.00    +0.000 C 
ATOM     25  C   UNL     1       1.251   3.740  20.846  0.00  0.00    +0.000 C 
ENDBRANCH   1  25
TORSDOF 3
ENDMDL
MODEL 3
REMARK VINA RESULT:      -8.0      1.233      1.955
REMARK  Name = 
REMARK  4 active torsions:
REMARK  status: ('A' for Active; 'I' for Inactive)
REMARK    1  A    between atoms: C_1  and  C_2
REMARK    2  A    between atoms: C_2  and  N_3
REMARK    3  A    between atoms: C_7  and  C_8
REMARK    4  A    between atoms: C_10  and  O_11
REMARK                            x       y       z     vdW  Elec       q    Type
REMARK                         _______ _______ _______ _____ _____    ______ ____
ROOT
ATOM      1  N   UNL     1       4.892   4.567  16.435  0.00  0.00    +0.000 N 
ATOM      2  C   UNL     1       4.966   5.960  16.458  0.00  0.00    +0.000 C 
ATOM      3  O   UNL     1       5.814   6.684  15.970  0.00  0.00    +0.000 OA
ATOM      4  C   UNL     1       3.771   6.398  17.266  0.00  0.00    +0.000 C 
ATOM      5  C   UNL     1       3.590   7.693  17.556  0.00  0.00    +0.000 C 
ATOM      6  C   UNL     1       3.040   5.191  17.659  0.00  0.00    +0.000 A 
ATOM      7  C   UNL     1       1.879   4.979  18.382  0.00  0.00    +0.000 A 
ATOM      8  C   UNL     1       1.459   3.664  18.598  0.00  0.00    +0.000 A 
ATOM      9  C   UNL     1       2.194   2.583  18.088  0.00  0.00    +0.000 A 
ATOM     10  C   UNL     1       3.359   2.800  17.349  0.00  0.00    +0.000 A 
ATOM     11  C   UNL     1       3.766   4.108  17.143  0.00  0.00    +0.000 A 
ENDROOT
BRANCH   5  12
ATOM     12  C   UNL     1       2.566   8.215  18.444  0.00  0.00    +0.000 A 
ATOM     13  N   UNL     1       2.501   7.711  19.683  0.00  0.00    +0.000 NA
ATOM     14  C   UNL     1       1.542   8.248  20.445  0.00  0.00    +0.000 A 
ATOM     15  C   UNL     1       0.658   9.247  20.061  0.00  0.00    +0.000 A 
ATOM     16  C   UNL     1      -0.342   9.808  20.889  0.00  0.00    +0.000 A 
ATOM     17  C   UNL     1      -1.169  10.816  20.402  0.00  0.00    +0.000 A 
ATOM     18  C   UNL     1      -1.005  11.257  19.094  0.00  0.00    +0.000 A 
ATOM     19  C   UNL     1      -0.016  10.688  18.283  0.00  0.00    +0.000 A 
ATOM     20  C   UNL     1       0.828   9.685  18.747  0.00  0.00    +0.000 A 
ATOM     21  N   UNL     1       1.770   9.173  17.940  0.00  0.00    +0.000 NA
BRANCH  14  22
ATOM     22  O   UNL     1       1.504   7.721  21.700  0.00  0.00    +0.000 OA
ATOM     23  H   UNL     1       2.456   7.636  21.886  0.00  0.00    +0.000 HD
ENDBRANCH  14  22
ENDBRANCH   5  12
BRANCH   1  25
ATOM     24  C   UNL     1       6.021   3.848  14.369  0.00  0.00    +0.000 C 
ATOM     25  C   UNL     1       5.919   3.713  15.882  0.00  0.00    +0.000 C 
ENDBRANCH   1  25
TORSDOF 3
ENDMDL
MODEL 4
REMARK VINA RESULT:      -7.8      1.332      1.476
REMARK  Name = 
REMARK  4 active torsions:
REMARK  status: ('A' for Active; 'I' for Inactive)
REMARK    1  A    between atoms: C_1  and  C_2
REMARK    2  A    between atoms: C_2  and  N_3
REMARK    3  A    between atoms: C_7  and  C_8
REMARK    4  A    between atoms: C_10  and  O_11
REMARK                            x       y       z     vdW  Elec       q    Type
REMARK                         _______ _______ _______ _____ _____    ______ ____
ROOT
ATOM      1  N   UNL     1       4.537   5.036  17.673  0.00  0.00    +0.000 N 
ATOM      2  C   UNL     1       4.281   6.313  17.171  0.00  0.00    +0.000 C 
ATOM      3  O   UNL     1       4.840   6.898  16.263  0.00  0.00    +0.000 OA
ATOM      4  C   UNL     1       3.168   6.850  18.034  0.00  0.00    +0.000 C 
ATOM      5  C   UNL     1       2.736   8.108  17.871  0.00  0.00    +0.000 C 
ATOM      6  C   UNL     1       2.820   5.810  19.004  0.00  0.00    +0.000 A 
ATOM      7  C   UNL     1       1.879   5.733  20.016  0.00  0.00    +0.000 A 
ATOM      8  C   UNL     1       1.826   4.569  20.789  0.00  0.00    +0.000 A 
ATOM      9  C   UNL     1       2.701   3.501  20.540  0.00  0.00    +0.000 A 
ATOM     10  C   UNL     1       3.641   3.577  19.511  0.00  0.00    +0.000 A 
ATOM     11  C   UNL     1       3.686   4.736  18.753  0.00  0.00    +0.000 A 
ENDROOT
BRANCH   5  12
ATOM     12  C   UNL     1       1.779   8.780  18.734  0.00  0.00    +0.000 A 
ATOM     13  N   UNL     1       0.846   9.544  18.151  0.00  0.00    +0.000 NA
ATOM     14  C   UNL     1      -0.006  10.119  19.007  0.00  0.00    +0.000 A 
ATOM     15  C   UNL     1       0.007   9.981  20.389  0.00  0.00    +0.000 A 
ATOM     16  C   UNL     1      -0.912  10.590  21.274  0.00  0.00    +0.000 A 
ATOM     17  C   UNL     1      -0.812  10.373  22.645  0.00  0.00    +0.000 A 
ATOM     18  C   UNL     1       0.203   9.557  23.132  0.00  0.00    +0.000 A 
ATOM     19  C   UNL     1       1.110   8.965  22.245  0.00  0.00    +0.000 A 
ATOM     20  C   UNL     1       1.028   9.160  20.870  0.00  0.00    +0.000 A 
ATOM     21  N   UNL     1       1.912   8.567  20.054  0.00  0.00    +0.000 NA
BRANCH  14  22
ATOM     22  O   UNL     1      -0.947  10.884  18.387  0.00  0.00    +0.000 OA
ATOM     23  H   UNL     1      -1.458  11.194  19.156  0.00  0.00    +0.000 HD
ENDBRANCH  14  22
ENDBRANCH   5  12
BRANCH   1  25
ATOM     24  C   UNL     1       6.970   4.673  17.779  0.00  0.00    +0.000 C 
ATOM     25  C   UNL     1       5.631   4.199  17.232  0.00  0.00    +0.000 C 
ENDBRANCH   1  25
TORSDOF 3
ENDMDL
MODEL 5
REMARK VINA RESULT:      -7.7      2.281      7.565
REMARK  Name = 
REMARK  4 active torsions:
REMARK  status: ('A' for Active; 'I' for Inactive)
REMARK    1  A    between atoms: C_1  and  C_2
REMARK    2  A    between atoms: C_2  and  N_3
REMARK    3  A    between atoms: C_7  and  C_8
REMARK    4  A    between atoms: C_10  and  O_11
REMARK                            x       y       z     vdW  Elec       q    Type
REMARK                         _______ _______ _______ _____ _____    ______ ____
ROOT
ATOM      1  N   UNL     1      -0.619  11.104  21.936  0.00  0.00    +0.000 N 
ATOM      2  C   UNL     1       0.065  10.024  22.494  0.00  0.00    +0.000 C 
ATOM      3  O   UNL     1       0.378   9.840  23.655  0.00  0.00    +0.000 OA
ATOM      4  C   UNL     1       0.382   9.123  21.326  0.00  0.00    +0.000 C 
ATOM      5  C   UNL     1       1.121   8.020  21.507  0.00  0.00    +0.000 C 
ATOM      6  C   UNL     1      -0.174   9.748  20.125  0.00  0.00    +0.000 A 
ATOM      7  C   UNL     1      -0.204   9.378  18.791  0.00  0.00    +0.000 A 
ATOM      8  C   UNL     1      -0.815  10.239  17.875  0.00  0.00    +0.000 A 
ATOM      9  C   UNL     1      -1.390  11.446  18.297  0.00  0.00    +0.000 A 
ATOM     10  C   UNL     1      -1.368  11.812  19.645  0.00  0.00    +0.000 A 
ATOM     11  C   UNL     1      -0.758  10.951  20.543  0.00  0.00    +0.000 A 
ENDROOT
BRANCH   5  12
ATOM     12  C   UNL     1       1.612   7.161  20.443  0.00  0.00    +0.000 A 
ATOM     13  N   UNL     1       2.396   7.714  19.509  0.00  0.00    +0.000 NA
ATOM     14  C   UNL     1       2.819   6.860  18.571  0.00  0.00    +0.000 A 
ATOM     15  C   UNL     1       2.520   5.505  18.506  0.00  0.00    +0.000 A 
ATOM     16  C   UNL     1       2.988   4.618  17.509  0.00  0.00    +0.000 A 
ATOM     17  C   UNL     1       2.634   3.273  17.548  0.00  0.00    +0.000 A 
ATOM     18  C   UNL     1       1.812   2.815  18.571  0.00  0.00    +0.000 A 
ATOM     19  C   UNL     1       1.350   3.706  19.548  0.00  0.00    +0.000 A 
ATOM     20  C   UNL     1       1.694   5.054  19.536  0.00  0.00    +0.000 A 
ATOM     21  N   UNL     1       1.238   5.871  20.496  0.00  0.00    +0.000 NA
BRANCH  14  22
ATOM     22  O   UNL     1       3.618   7.448  17.639  0.00  0.00    +0.000 OA
ATOM     23  H   UNL     1       3.121   8.267  17.469  0.00  0.00    +0.000 HD
ENDBRANCH  14  22
ENDBRANCH   5  12
BRANCH   1  25
ATOM     24  C   UNL     1      -2.428  12.202  23.194  0.00  0.00    +0.000 C 
ATOM     25  C   UNL     1      -0.999  12.288  22.674  0.00  0.00    +0.000 C 
ENDBRANCH   1  25
TORSDOF 3
ENDMDL
MODEL 6
REMARK VINA RESULT:      -7.4      2.028      6.644
REMARK  Name = 
REMARK  4 active torsions:
REMARK  status: ('A' for Active; 'I' for Inactive)
REMARK    1  A    between atoms: C_1  and  C_2
REMARK    2  A    between atoms: C_2  and  N_3
REMARK    3  A    between atoms: C_7  and  C_8
REMARK    4  A    between atoms: C_10  and  O_11
REMARK                            x       y       z     vdW  Elec       q    Type
REMARK                         _______ _______ _______ _____ _____    ______ ____
ROOT
ATOM      1  N   UNL     1       0.941  10.788  19.060  0.00  0.00    +0.000 N 
ATOM      2  C   UNL     1       1.850  10.272  18.135  0.00  0.00    +0.000 C 
ATOM      3  O   UNL     1       2.287  10.795  17.127  0.00  0.00    +0.000 OA
ATOM      4  C   UNL     1       2.158   8.881  18.630  0.00  0.00    +0.000 C 
ATOM      5  C   UNL     1       2.944   8.069  17.911  0.00  0.00    +0.000 C 
ATOM      6  C   UNL     1       1.398   8.676  19.865  0.00  0.00    +0.000 A 
ATOM      7  C   UNL     1       1.300   7.618  20.752  0.00  0.00    +0.000 A 
ATOM      8  C   UNL     1       0.444   7.746  21.849  0.00  0.00    +0.000 A 
ATOM      9  C   UNL     1      -0.293   8.923  22.051  0.00  0.00    +0.000 A 
ATOM     10  C   UNL     1      -0.182   9.994  21.162  0.00  0.00    +0.000 A 
ATOM     11  C   UNL     1       0.668   9.853  20.077  0.00  0.00    +0.000 A 
ENDROOT
BRANCH   5  12
ATOM     12  C   UNL     1       3.191   6.668  18.209  0.00  0.00    +0.000 A 
ATOM     13  N   UNL     1       4.416   6.328  18.628  0.00  0.00    +0.000 NA
ATOM     14  C   UNL     1       4.563   5.025  18.894  0.00  0.00    +0.000 A 
ATOM     15  C   UNL     1       3.580   4.052  18.778  0.00  0.00    +0.000 A 
ATOM     16  C   UNL     1       3.756   2.681  19.076  0.00  0.00    +0.000 A 
ATOM     17  C   UNL     1       2.695   1.792  18.934  0.00  0.00    +0.000 A 
ATOM     18  C   UNL     1       1.466   2.267  18.489  0.00  0.00    +0.000 A 
ATOM     19  C   UNL     1       1.307   3.625  18.191  0.00  0.00    +0.000 A 
ATOM     20  C   UNL     1       2.349   4.536  18.331  0.00  0.00    +0.000 A 
ATOM     21  N   UNL     1       2.153   5.830  18.044  0.00  0.00    +0.000 NA
BRANCH  14  22
ATOM     22  O   UNL     1       5.816   4.710  19.324  0.00  0.00    +0.000 OA
ATOM     23  H   UNL     1       5.633   3.893  19.822  0.00  0.00    +0.000 HD
ENDBRANCH  14  22
ENDBRANCH   5  12
BRANCH   1  25
ATOM     24  C   UNL     1      -1.079  11.907  18.207  0.00  0.00    +0.000 C 
ATOM     25  C   UNL     1       0.265  12.056  18.907  0.00  0.00    +0.000 C 
ENDBRANCH   1  25
TORSDOF 3
ENDMDL
MODEL 7
REMARK VINA RESULT:      -7.3      1.941      2.707
REMARK  Name = 
REMARK  4 active torsions:
REMARK  status: ('A' for Active; 'I' for Inactive)
REMARK    1  A    between atoms: C_1  and  C_2
REMARK    2  A    between atoms: C_2  and  N_3
REMARK    3  A    between atoms: C_7  and  C_8
REMARK    4  A    between atoms: C_10  and  O_11
REMARK                            x       y       z     vdW  Elec       q    Type
REMARK                         _______ _______ _______ _____ _____    ______ ____
ROOT
ATOM      1  N   UNL     1       4.401   5.296  17.888  0.00  0.00    +0.000 N 
ATOM      2  C   UNL     1       4.178   6.519  17.255  0.00  0.00    +0.000 C 
ATOM      3  O   UNL     1       4.783   7.014  16.323  0.00  0.00    +0.000 OA
ATOM      4  C   UNL     1       3.028   7.139  18.009  0.00  0.00    +0.000 C 
ATOM      5  C   UNL     1       2.612   8.376  17.706  0.00  0.00    +0.000 C 
ATOM      6  C   UNL     1       2.628   6.196  19.055  0.00  0.00    +0.000 A 
ATOM      7  C   UNL     1       1.639   6.218  20.023  0.00  0.00    +0.000 A 
ATOM      8  C   UNL     1       1.541   5.134  20.900  0.00  0.00    +0.000 A 
ATOM      9  C   UNL     1       2.420   4.045  20.796  0.00  0.00    +0.000 A 
ATOM     10  C   UNL     1       3.409   4.020  19.811  0.00  0.00    +0.000 A 
ATOM     11  C   UNL     1       3.497   5.101  18.949  0.00  0.00    +0.000 A 
ENDROOT
BRANCH   5  12
ATOM     12  C   UNL     1       1.620   9.129  18.453  0.00  0.00    +0.000 A 
ATOM     13  N   UNL     1       1.857   9.353  19.752  0.00  0.00    +0.000 NA
ATOM     14  C   UNL     1       0.906  10.062  20.369  0.00  0.00    +0.000 A 
ATOM     15  C   UNL     1      -0.249  10.563  19.784  0.00  0.00    +0.000 A 
ATOM     16  C   UNL     1      -1.237  11.321  20.455  0.00  0.00    +0.000 A 
ATOM     17  C   UNL     1      -2.353  11.784  19.765  0.00  0.00    +0.000 A 
ATOM     18  C   UNL     1      -2.488  11.486  18.414  0.00  0.00    +0.000 A 
ATOM     19  C   UNL     1      -1.507  10.728  17.763  0.00  0.00    +0.000 A 
ATOM     20  C   UNL     1      -0.378  10.260  18.428  0.00  0.00    +0.000 A 
ATOM     21  N   UNL     1       0.543   9.546  17.765  0.00  0.00    +0.000 NA
BRANCH  14  22
ATOM     22  O   UNL     1       1.177  10.280  21.686  0.00  0.00    +0.000 OA
ATOM     23  H   UNL     1       1.604   9.437  21.921  0.00  0.00    +0.000 HD
ENDBRANCH  14  22
ENDBRANCH   5  12
BRANCH   1  25
ATOM     24  C   UNL     1       6.821   4.931  18.160  0.00  0.00    +0.000 C 
ATOM     25  C   UNL     1       5.509   4.419  17.581  0.00  0.00    +0.000 C 
ENDBRANCH   1  25
TORSDOF 3
ENDMDL
MODEL 8
REMARK VINA RESULT:      -7.1      2.645      7.737
REMARK  Name = 
REMARK  4 active torsions:
REMARK  status: ('A' for Active; 'I' for Inactive)
REMARK    1  A    between atoms: C_1  and  C_2
REMARK    2  A    between atoms: C_2  and  N_3
REMARK    3  A    between atoms: C_7  and  C_8
REMARK    4  A    between atoms: C_10  and  O_11
REMARK                            x       y       z     vdW  Elec       q    Type
REMARK                         _______ _______ _______ _____ _____    ______ ____
ROOT
ATOM      1  N   UNL     1      -1.610  11.918  21.293  0.00  0.00    +0.000 N 
ATOM      2  C   UNL     1      -0.707  11.112  21.987  0.00  0.00    +0.000 C 
ATOM      3  O   UNL     1      -0.353  11.193  23.148  0.00  0.00    +0.000 OA
ATOM      4  C   UNL     1      -0.214  10.117  20.967  0.00  0.00    +0.000 C 
ATOM      5  C   UNL     1       0.744   9.238  21.291  0.00  0.00    +0.000 C 
ATOM      6  C   UNL     1      -0.900  10.404  19.706  0.00  0.00    +0.000 A 
ATOM      7  C   UNL     1      -0.862   9.819  18.451  0.00  0.00    +0.000 A 
ATOM      8  C   UNL     1      -1.649  10.369  17.436  0.00  0.00    +0.000 A 
ATOM      9  C   UNL     1      -2.465  11.483  17.684  0.00  0.00    +0.000 A 
ATOM     10  C   UNL     1      -2.511  12.063  18.953  0.00  0.00    +0.000 A 
ATOM     11  C   UNL     1      -1.725  11.510  19.951  0.00  0.00    +0.000 A 
ENDROOT
BRANCH   5  12
ATOM     12  C   UNL     1       1.399   8.336  20.358  0.00  0.00    +0.000 A 
ATOM     13  N   UNL     1       1.800   8.839  19.184  0.00  0.00    +0.000 NA
ATOM     14  C   UNL     1       2.404   7.953  18.385  0.00  0.00    +0.000 A 
ATOM     15  C   UNL     1       2.638   6.616  18.677  0.00  0.00    +0.000 A 
ATOM     16  C   UNL     1       3.290   5.700  17.819  0.00  0.00    +0.000 A 
ATOM     17  C   UNL     1       3.481   4.381  18.220  0.00  0.00    +0.000 A 
ATOM     18  C   UNL     1       3.019   3.976  19.467  0.00  0.00    +0.000 A 
ATOM     19  C   UNL     1       2.369   4.891  20.303  0.00  0.00    +0.000 A 
ATOM     20  C   UNL     1       2.171   6.217  19.930  0.00  0.00    +0.000 A 
ATOM     21  N   UNL     1       1.552   7.064  20.765  0.00  0.00    +0.000 NA
BRANCH  14  22
ATOM     22  O   UNL     1       2.807   8.494  17.201  0.00  0.00    +0.000 OA
ATOM     23  H   UNL     1       2.059   9.090  17.015  0.00  0.00    +0.000 HD
ENDBRANCH  14  22
ENDBRANCH   5  12
BRANCH   1  25
ATOM     24  C   UNL     1      -3.528  12.781  22.573  0.00  0.00    +0.000 C 
ATOM     25  C   UNL     1      -2.228  13.101  21.848  0.00  0.00    +0.000 C 
ENDBRANCH   1  25
TORSDOF 3
ENDMDL
MODEL 9
REMARK VINA RESULT:      -6.9      2.738      7.532
REMARK  Name = 
REMARK  4 active torsions:
REMARK  status: ('A' for Active; 'I' for Inactive)
REMARK    1  A    between atoms: C_1  and  C_2
REMARK    2  A    between atoms: C_2  and  N_3
REMARK    3  A    between atoms: C_7  and  C_8
REMARK    4  A    between atoms: C_10  and  O_11
REMARK                            x       y       z     vdW  Elec       q    Type
REMARK                         _______ _______ _______ _____ _____    ______ ____
ROOT
ATOM      1  N   UNL     1      -1.492  12.466  20.334  0.00  0.00    +0.000 N 
ATOM      2  C   UNL     1      -0.503  11.869  21.117  0.00  0.00    +0.000 C 
ATOM      3  O   UNL     1      -0.027  12.258  22.167  0.00  0.00    +0.000 OA
ATOM      4  C   UNL     1      -0.104  10.630  20.356  0.00  0.00    +0.000 C 
ATOM      5  C   UNL     1       0.902   9.862  20.799  0.00  0.00    +0.000 C 
ATOM      6  C   UNL     1      -0.927  10.571  19.147  0.00  0.00    +0.000 A 
ATOM      7  C   UNL     1      -1.013   9.668  18.101  0.00  0.00    +0.000 A 
ATOM      8  C   UNL     1      -1.916   9.930  17.067  0.00  0.00    +0.000 A 
ATOM      9  C   UNL     1      -2.723  11.078  17.093  0.00  0.00    +0.000 A 
ATOM     10  C   UNL     1      -2.644  11.980  18.155  0.00  0.00    +0.000 A 
ATOM     11  C   UNL     1      -1.743  11.711  19.173  0.00  0.00    +0.000 A 
ENDROOT
BRANCH   5  12
ATOM     12  C   UNL     1       1.470   8.735  20.079  0.00  0.00    +0.000 A 
ATOM     13  N   UNL     1       1.965   8.964  18.856  0.00  0.00    +0.000 NA
ATOM     14  C   UNL     1       2.481   7.883  18.262  0.00  0.00    +0.000 A 
ATOM     15  C   UNL     1       2.541   6.605  18.801  0.00  0.00    +0.000 A 
ATOM     16  C   UNL     1       3.102   5.477  18.158  0.00  0.00    +0.000 A 
ATOM     17  C   UNL     1       3.119   4.242  18.798  0.00  0.00    +0.000 A 
ATOM     18  C   UNL     1       2.572   4.129  20.072  0.00  0.00    +0.000 A 
ATOM     19  C   UNL     1       2.014   5.252  20.695  0.00  0.00    +0.000 A 
ATOM     20  C   UNL     1       1.991   6.499  20.079  0.00  0.00    +0.000 A 
ATOM     21  N   UNL     1       1.454   7.551  20.715  0.00  0.00    +0.000 NA
BRANCH  14  22
ATOM     22  O   UNL     1       2.983   8.146  17.024  0.00  0.00    +0.000 OA
ATOM     23  H   UNL     1       3.144   9.103  17.097  0.00  0.00    +0.000 HD
ENDBRANCH  14  22
ENDBRANCH   5  12
BRANCH   1  25
ATOM     24  C   UNL     1      -1.183  14.900  20.127  0.00  0.00    +0.000 C 
ATOM     25  C   UNL     1      -2.070  13.762  20.612  0.00  0.00    +0.000 C 
ENDBRANCH   1  25
TORSDOF 3
ENDMDL
