MODEL 1
REMARK VINA RESULT:      -5.6      0.000      0.000
REMARK  Name = 
REMARK  8 active torsions:
REMARK  status: ('A' for Active; 'I' for Inactive)
REMARK    1  A    between atoms: C_1  and  N_2
REMARK    2  A    between atoms: C_3  and  S_4
REMARK    3  A    between atoms: N_5  and  N_6
REMARK    4  A    between atoms: C_7  and  C_8
REMARK    5  A    between atoms: C_8  and  C_9
REMARK    6  A    between atoms: N_10  and  N_11
REMARK    7  A    between atoms: C_12  and  S_13
REMARK    8  A    between atoms: N_14  and  C_15
REMARK                            x       y       z     vdW  Elec       q    Type
REMARK                         _______ _______ _______ _____ _____    ______ ____
ROOT
ATOM      1  C   UNL     1       6.828   5.530  17.873  0.00  0.00    +0.000 C 
ATOM      2  C   UNL     1       7.461   6.888  18.045  0.00  0.00    +0.000 C 
ATOM      3  N   UNL     1       6.872   4.802  16.791  0.00  0.00    +0.000 NA
ENDROOT
BRANCH   3   4
ATOM      4  N   UNL     1       7.542   5.309  15.699  0.00  0.00    +0.000 N 
ATOM      5  C   UNL     1       7.283   5.060  14.364  0.00  0.00    +0.000 C 
ATOM      6  N   UNL     1       8.015   5.613  13.458  0.00  0.00    +0.000 NA
ATOM      7  C   UNL     1       7.747   5.358  12.045  0.00  0.00    +0.000 C 
ATOM      8  H   UNL     1       8.327   5.946  15.808  0.00  0.00    +0.000 HD
BRANCH   5   9
ATOM      9  S   UNL     1       5.942   3.975  14.022  0.00  0.00    +0.000 S 
ATOM     10  H   UNL     1       5.818   4.388  12.754  0.00  0.00    +0.000 HD
ENDBRANCH   5   9
ENDBRANCH   3   4
BRANCH   1  12
ATOM     11  N   UNL     1       5.406   3.862  18.893  0.00  0.00    +0.000 NA
ATOM     12  C   UNL     1       6.082   4.948  19.060  0.00  0.00    +0.000 C 
BRANCH  11  16
ATOM     13  C   UNL     1       1.388   2.686  21.347  0.00  0.00    +0.000 C 
ATOM     14  N   UNL     1       2.829   2.773  21.162  0.00  0.00    +0.000 NA
ATOM     15  C   UNL     1       3.352   3.285  20.098  0.00  0.00    +0.000 C 
ATOM     16  N   UNL     1       4.734   3.346  19.968  0.00  0.00    +0.000 N 
ATOM     17  H   UNL     1       5.225   2.951  20.767  0.00  0.00    +0.000 HD
BRANCH  15  18
ATOM     18  S   UNL     1       2.425   3.945  18.742  0.00  0.00    +0.000 S 
ATOM     19  H   UNL     1       1.197   3.650  19.164  0.00  0.00    +0.000 HD
ENDBRANCH  15  18
ENDBRANCH  11  16
ENDBRANCH   1  12
TORSDOF 5
ENDMDL
MODEL 2
REMARK VINA RESULT:      -5.2      1.687      7.050
REMARK  Name = 
REMARK  8 active torsions:
REMARK  status: ('A' for Active; 'I' for Inactive)
REMARK    1  A    between atoms: C_1  and  N_2
REMARK    2  A    between atoms: C_3  and  S_4
REMARK    3  A    between atoms: N_5  and  N_6
REMARK    4  A    between atoms: C_7  and  C_8
REMARK    5  A    between atoms: C_8  and  C_9
REMARK    6  A    between atoms: N_10  and  N_11
REMARK    7  A    between atoms: C_12  and  S_13
REMARK    8  A    between atoms: N_14  and  C_15
REMARK                            x       y       z     vdW  Elec       q    Type
REMARK                         _______ _______ _______ _____ _____    ______ ____
ROOT
ATOM      1  C   UNL     1       4.132   6.238  18.174  0.00  0.00    +0.000 C 
ATOM      2  C   UNL     1       2.834   7.003  18.107  0.00  0.00    +0.000 C 
ATOM      3  N   UNL     1       4.464   5.381  19.100  0.00  0.00    +0.000 NA
ENDROOT
BRANCH   3   4
ATOM      4  N   UNL     1       3.565   5.152  20.118  0.00  0.00    +0.000 N 
ATOM      5  C   UNL     1       2.898   3.974  20.402  0.00  0.00    +0.000 C 
ATOM      6  N   UNL     1       2.077   3.928  21.395  0.00  0.00    +0.000 NA
ATOM      7  C   UNL     1       1.370   2.688  21.704  0.00  0.00    +0.000 C 
ATOM      8  H   UNL     1       3.314   5.884  20.777  0.00  0.00    +0.000 HD
BRANCH   5   9
ATOM      9  S   UNL     1       3.241   2.613  19.342  0.00  0.00    +0.000 S 
ATOM     10  H   UNL     1       3.110   3.339  18.225  0.00  0.00    +0.000 HD
ENDBRANCH   5   9
ENDBRANCH   3   4
BRANCH   1  12
ATOM     11  N   UNL     1       6.101   5.624  16.913  0.00  0.00    +0.000 NA
ATOM     12  C   UNL     1       5.142   6.473  17.065  0.00  0.00    +0.000 C 
BRANCH  11  16
ATOM     13  C   UNL     1       7.905   4.947  12.459  0.00  0.00    +0.000 C 
ATOM     14  N   UNL     1       7.892   5.539  13.789  0.00  0.00    +0.000 NA
ATOM     15  C   UNL     1       6.979   5.253  14.656  0.00  0.00    +0.000 C 
ATOM     16  N   UNL     1       7.009   5.845  15.912  0.00  0.00    +0.000 N 
ATOM     17  H   UNL     1       7.789   6.488  16.029  0.00  0.00    +0.000 HD
BRANCH  15  18
ATOM     18  S   UNL     1       5.645   4.125  14.372  0.00  0.00    +0.000 S 
ATOM     19  H   UNL     1       6.267   3.260  13.572  0.00  0.00    +0.000 HD
ENDBRANCH  15  18
ENDBRANCH  11  16
ENDBRANCH   1  12
TORSDOF 5
ENDMDL
MODEL 3
REMARK VINA RESULT:      -5.2      1.241      1.258
REMARK  Name = 
REMARK  8 active torsions:
REMARK  status: ('A' for Active; 'I' for Inactive)
REMARK    1  A    between atoms: C_1  and  N_2
REMARK    2  A    between atoms: C_3  and  S_4
REMARK    3  A    between atoms: N_5  and  N_6
REMARK    4  A    between atoms: C_7  and  C_8
REMARK    5  A    between atoms: C_8  and  C_9
REMARK    6  A    between atoms: N_10  and  N_11
REMARK    7  A    between atoms: C_12  and  S_13
REMARK    8  A    between atoms: N_14  and  C_15
REMARK                            x       y       z     vdW  Elec       q    Type
REMARK                         _______ _______ _______ _____ _____    ______ ____
ROOT
ATOM      1  C   UNL     1       5.888   5.929  17.448  0.00  0.00    +0.000 C 
ATOM      2  C   UNL     1       5.204   7.037  16.687  0.00  0.00    +0.000 C 
ATOM      3  N   UNL     1       6.964   5.296  17.068  0.00  0.00    +0.000 NA
ENDROOT
BRANCH   3   4
ATOM      4  N   UNL     1       7.530   5.652  15.864  0.00  0.00    +0.000 N 
ATOM      5  C   UNL     1       7.258   5.119  14.617  0.00  0.00    +0.000 C 
ATOM      6  N   UNL     1       7.886   5.562  13.582  0.00  0.00    +0.000 NA
ATOM      7  C   UNL     1       7.604   5.007  12.261  0.00  0.00    +0.000 C 
ATOM      8  H   UNL     1       8.234   6.382  15.805  0.00  0.00    +0.000 HD
BRANCH   5   9
ATOM      9  S   UNL     1       6.048   3.844  14.565  0.00  0.00    +0.000 S 
ATOM     10  H   UNL     1       6.040   3.788  13.227  0.00  0.00    +0.000 HD
ENDBRANCH   5   9
ENDBRANCH   3   4
BRANCH   1  12
ATOM     11  N   UNL     1       4.001   5.544  18.910  0.00  0.00    +0.000 NA
ATOM     12  C   UNL     1       5.284   5.516  18.778  0.00  0.00    +0.000 C 
BRANCH  11  16
ATOM     13  C   UNL     1       1.391   2.639  21.791  0.00  0.00    +0.000 C 
ATOM     14  N   UNL     1       2.224   3.801  21.513  0.00  0.00    +0.000 NA
ATOM     15  C   UNL     1       2.674   4.051  20.329  0.00  0.00    +0.000 C 
ATOM     16  N   UNL     1       3.465   5.172  20.114  0.00  0.00    +0.000 N 
ATOM     17  H   UNL     1       3.627   5.713  20.961  0.00  0.00    +0.000 HD
BRANCH  15  18
ATOM     18  S   UNL     1       2.353   3.054  18.902  0.00  0.00    +0.000 S 
ATOM     19  H   UNL     1       2.712   3.920  17.956  0.00  0.00    +0.000 HD
ENDBRANCH  15  18
ENDBRANCH  11  16
ENDBRANCH   1  12
TORSDOF 5
ENDMDL
MODEL 4
REMARK VINA RESULT:      -5.1      4.044      4.694
REMARK  Name = 
REMARK  8 active torsions:
REMARK  status: ('A' for Active; 'I' for Inactive)
REMARK    1  A    between atoms: C_1  and  N_2
REMARK    2  A    between atoms: C_3  and  S_4
REMARK    3  A    between atoms: N_5  and  N_6
REMARK    4  A    between atoms: C_7  and  C_8
REMARK    5  A    between atoms: C_8  and  C_9
REMARK    6  A    between atoms: N_10  and  N_11
REMARK    7  A    between atoms: C_12  and  S_13
REMARK    8  A    between atoms: N_14  and  C_15
REMARK                            x       y       z     vdW  Elec       q    Type
REMARK                         _______ _______ _______ _____ _____    ______ ____
ROOT
ATOM      1  C   UNL     1       3.244   4.631  18.744  0.00  0.00    +0.000 C 
ATOM      2  C   UNL     1       2.238   4.093  17.758  0.00  0.00    +0.000 C 
ATOM      3  N   UNL     1       4.541   4.523  18.643  0.00  0.00    +0.000 NA
ENDROOT
BRANCH   3   4
ATOM      4  N   UNL     1       5.049   3.852  17.553  0.00  0.00    +0.000 N 
ATOM      5  C   UNL     1       5.511   4.399  16.370  0.00  0.00    +0.000 C 
ATOM      6  N   UNL     1       5.952   3.624  15.438  0.00  0.00    +0.000 NA
ATOM      7  C   UNL     1       6.444   4.192  14.185  0.00  0.00    +0.000 C 
ATOM      8  H   UNL     1       5.127   2.839  17.544  0.00  0.00    +0.000 HD
BRANCH   5   9
ATOM      9  S   UNL     1       5.444   6.151  16.245  0.00  0.00    +0.000 S 
ATOM     10  H   UNL     1       6.357   6.341  17.205  0.00  0.00    +0.000 HD
ENDBRANCH   5   9
ENDBRANCH   3   4
BRANCH   1  12
ATOM     11  N   UNL     1       2.268   6.575  19.798  0.00  0.00    +0.000 NA
ATOM     12  C   UNL     1       2.711   5.374  19.955  0.00  0.00    +0.000 C 
BRANCH  11  16
ATOM     13  C   UNL     1       0.228  10.369  22.034  0.00  0.00    +0.000 C 
ATOM     14  N   UNL     1       0.818   9.038  21.990  0.00  0.00    +0.000 NA
ATOM     15  C   UNL     1       1.236   8.512  20.888  0.00  0.00    +0.000 C 
ATOM     16  N   UNL     1       1.791   7.239  20.897  0.00  0.00    +0.000 N 
ATOM     17  H   UNL     1       1.807   6.819  21.824  0.00  0.00    +0.000 HD
BRANCH  15  18
ATOM     18  S   UNL     1       1.164   9.306  19.307  0.00  0.00    +0.000 S 
ATOM     19  H   UNL     1      -0.071   9.799  19.375  0.00  0.00    +0.000 HD
ENDBRANCH  15  18
ENDBRANCH  11  16
ENDBRANCH   1  12
TORSDOF 5
ENDMDL
MODEL 5
REMARK VINA RESULT:      -5.1      3.999      7.384
REMARK  Name = 
REMARK  8 active torsions:
REMARK  status: ('A' for Active; 'I' for Inactive)
REMARK    1  A    between atoms: C_1  and  N_2
REMARK    2  A    between atoms: C_3  and  S_4
REMARK    3  A    between atoms: N_5  and  N_6
REMARK    4  A    between atoms: C_7  and  C_8
REMARK    5  A    between atoms: C_8  and  C_9
REMARK    6  A    between atoms: N_10  and  N_11
REMARK    7  A    between atoms: C_12  and  S_13
REMARK    8  A    between atoms: N_14  and  C_15
REMARK                            x       y       z     vdW  Elec       q    Type
REMARK                         _______ _______ _______ _____ _____    ______ ____
ROOT
ATOM      1  C   UNL     1       2.561   5.290  19.911  0.00  0.00    +0.000 C 
ATOM      2  C   UNL     1       2.162   4.467  21.110  0.00  0.00    +0.000 C 
ATOM      3  N   UNL     1       2.422   6.583  19.795  0.00  0.00    +0.000 NA
ENDROOT
BRANCH   3   4
ATOM      4  N   UNL     1       1.853   7.267  20.846  0.00  0.00    +0.000 N 
ATOM      5  C   UNL     1       1.254   8.513  20.812  0.00  0.00    +0.000 C 
ATOM      6  N   UNL     1       0.772   9.020  21.895  0.00  0.00    +0.000 NA
ATOM      7  C   UNL     1       0.135  10.334  21.868  0.00  0.00    +0.000 C 
ATOM      8  H   UNL     1       1.831   6.875  21.784  0.00  0.00    +0.000 HD
BRANCH   5   9
ATOM      9  S   UNL     1       1.212   9.312  19.246  0.00  0.00    +0.000 S 
ATOM     10  H   UNL     1       0.325  10.232  19.643  0.00  0.00    +0.000 HD
ENDBRANCH   5   9
ENDBRANCH   3   4
BRANCH   1  12
ATOM     11  N   UNL     1       4.477   4.480  18.679  0.00  0.00    +0.000 NA
ATOM     12  C   UNL     1       3.190   4.561  18.738  0.00  0.00    +0.000 C 
BRANCH  11  16
ATOM     13  C   UNL     1       6.446   4.274  14.248  0.00  0.00    +0.000 C 
ATOM     14  N   UNL     1       5.980   3.696  15.501  0.00  0.00    +0.000 NA
ATOM     15  C   UNL     1       5.466   4.420  16.438  0.00  0.00    +0.000 C 
ATOM     16  N   UNL     1       5.036   3.822  17.615  0.00  0.00    +0.000 N 
ATOM     17  H   UNL     1       5.184   2.815  17.627  0.00  0.00    +0.000 HD
BRANCH  15  18
ATOM     18  S   UNL     1       5.249   6.175  16.346  0.00  0.00    +0.000 S 
ATOM     19  H   UNL     1       4.545   6.241  15.218  0.00  0.00    +0.000 HD
ENDBRANCH  15  18
ENDBRANCH  11  16
ENDBRANCH   1  12
TORSDOF 5
ENDMDL
MODEL 6
REMARK VINA RESULT:      -5.0      4.681      8.152
REMARK  Name = 
REMARK  8 active torsions:
REMARK  status: ('A' for Active; 'I' for Inactive)
REMARK    1  A    between atoms: C_1  and  N_2
REMARK    2  A    between atoms: C_3  and  S_4
REMARK    3  A    between atoms: N_5  and  N_6
REMARK    4  A    between atoms: C_7  and  C_8
REMARK    5  A    between atoms: C_8  and  C_9
REMARK    6  A    between atoms: N_10  and  N_11
REMARK    7  A    between atoms: C_12  and  S_13
REMARK    8  A    between atoms: N_14  and  C_15
REMARK                            x       y       z     vdW  Elec       q    Type
REMARK                         _______ _______ _______ _____ _____    ______ ____
ROOT
ATOM      1  C   UNL     1       2.292   6.514  19.668  0.00  0.00    +0.000 C 
ATOM      2  C   UNL     1       2.000   5.329  20.554  0.00  0.00    +0.000 C 
ATOM      3  N   UNL     1       2.107   7.765  19.987  0.00  0.00    +0.000 NA
ENDROOT
BRANCH   3   4
ATOM      4  N   UNL     1       1.589   8.044  21.232  0.00  0.00    +0.000 N 
ATOM      5  C   UNL     1       0.652   9.008  21.557  0.00  0.00    +0.000 C 
ATOM      6  N   UNL     1       0.276   9.146  22.782  0.00  0.00    +0.000 NA
ATOM      7  C   UNL     1      -0.716  10.159  23.134  0.00  0.00    +0.000 C 
ATOM      8  H   UNL     1       1.881   7.524  22.055  0.00  0.00    +0.000 HD
BRANCH   5   9
ATOM      9  S   UNL     1       0.050   9.985  20.225  0.00  0.00    +0.000 S 
ATOM     10  H   UNL     1       1.071  10.850  20.284  0.00  0.00    +0.000 HD
ENDBRANCH   5   9
ENDBRANCH   3   4
BRANCH   1  12
ATOM     11  N   UNL     1       3.915   6.879  17.914  0.00  0.00    +0.000 NA
ATOM     12  C   UNL     1       2.862   6.235  18.289  0.00  0.00    +0.000 C 
BRANCH  11  16
ATOM     13  C   UNL     1       7.041   4.802  14.838  0.00  0.00    +0.000 C 
ATOM     14  N   UNL     1       5.902   5.643  15.176  0.00  0.00    +0.000 NA
ATOM     15  C   UNL     1       5.514   5.811  16.396  0.00  0.00    +0.000 C 
ATOM     16  N   UNL     1       4.421   6.623  16.667  0.00  0.00    +0.000 N 
ATOM     17  H   UNL     1       4.005   7.023  15.829  0.00  0.00    +0.000 HD
BRANCH  15  18
ATOM     18  S   UNL     1       6.289   5.072  17.806  0.00  0.00    +0.000 S 
ATOM     19  H   UNL     1       5.199   4.715  18.482  0.00  0.00    +0.000 HD
ENDBRANCH  15  18
ENDBRANCH  11  16
ENDBRANCH   1  12
TORSDOF 5
ENDMDL
MODEL 7
REMARK VINA RESULT:      -5.0      4.246      7.553
REMARK  Name = 
REMARK  8 active torsions:
REMARK  status: ('A' for Active; 'I' for Inactive)
REMARK    1  A    between atoms: C_1  and  N_2
REMARK    2  A    between atoms: C_3  and  S_4
REMARK    3  A    between atoms: N_5  and  N_6
REMARK    4  A    between atoms: C_7  and  C_8
REMARK    5  A    between atoms: C_8  and  C_9
REMARK    6  A    between atoms: N_10  and  N_11
REMARK    7  A    between atoms: C_12  and  S_13
REMARK    8  A    between atoms: N_14  and  C_15
REMARK                            x       y       z     vdW  Elec       q    Type
REMARK                         _______ _______ _______ _____ _____    ______ ____
ROOT
ATOM      1  C   UNL     1       7.312   6.409  18.228  0.00  0.00    +0.000 C 
ATOM      2  C   UNL     1       8.189   5.957  19.368  0.00  0.00    +0.000 C 
ATOM      3  N   UNL     1       6.302   5.744  17.735  0.00  0.00    +0.000 NA
ENDROOT
BRANCH   3   4
ATOM      4  N   UNL     1       6.007   4.517  18.286  0.00  0.00    +0.000 N 
ATOM      5  C   UNL     1       4.918   4.188  19.071  0.00  0.00    +0.000 C 
ATOM      6  N   UNL     1       4.792   2.984  19.517  0.00  0.00    +0.000 NA
ATOM      7  C   UNL     1       3.644   2.627  20.345  0.00  0.00    +0.000 C 
ATOM      8  H   UNL     1       6.612   3.713  18.142  0.00  0.00    +0.000 HD
BRANCH   5   9
ATOM      9  S   UNL     1       3.777   5.485  19.401  0.00  0.00    +0.000 S 
ATOM     10  H   UNL     1       2.809   4.940  18.654  0.00  0.00    +0.000 HD
ENDBRANCH   5   9
ENDBRANCH   3   4
BRANCH   1  12
ATOM     11  N   UNL     1       8.294   8.617  18.284  0.00  0.00    +0.000 NA
ATOM     12  C   UNL     1       7.615   7.757  17.601  0.00  0.00    +0.000 C 
BRANCH  11  16
ATOM     13  C   UNL     1       9.888  13.200  18.367  0.00  0.00    +0.000 C 
ATOM     14  N   UNL     1       9.317  12.025  17.724  0.00  0.00    +0.000 NA
ATOM     15  C   UNL     1       9.108  10.926  18.369  0.00  0.00    +0.000 C 
ATOM     16  N   UNL     1       8.561   9.832  17.711  0.00  0.00    +0.000 N 
ATOM     17  H   UNL     1       8.375  10.013  16.727  0.00  0.00    +0.000 HD
BRANCH  15  18
ATOM     18  S   UNL     1       9.468  10.687  20.086  0.00  0.00    +0.000 S 
ATOM     19  H   UNL     1       8.944   9.473  20.244  0.00  0.00    +0.000 HD
ENDBRANCH  15  18
ENDBRANCH  11  16
ENDBRANCH   1  12
TORSDOF 5
ENDMDL
MODEL 8
REMARK VINA RESULT:      -5.0      4.652      5.029
REMARK  Name = 
REMARK  8 active torsions:
REMARK  status: ('A' for Active; 'I' for Inactive)
REMARK    1  A    between atoms: C_1  and  N_2
REMARK    2  A    between atoms: C_3  and  S_4
REMARK    3  A    between atoms: N_5  and  N_6
REMARK    4  A    between atoms: C_7  and  C_8
REMARK    5  A    between atoms: C_8  and  C_9
REMARK    6  A    between atoms: N_10  and  N_11
REMARK    7  A    between atoms: C_12  and  S_13
REMARK    8  A    between atoms: N_14  and  C_15
REMARK                            x       y       z     vdW  Elec       q    Type
REMARK                         _______ _______ _______ _____ _____    ______ ____
ROOT
ATOM      1  C   UNL     1       3.077   6.097  18.415  0.00  0.00    +0.000 C 
ATOM      2  C   UNL     1       2.366   4.953  17.736  0.00  0.00    +0.000 C 
ATOM      3  N   UNL     1       4.058   6.792  17.908  0.00  0.00    +0.000 NA
ENDROOT
BRANCH   3   4
ATOM      4  N   UNL     1       4.502   6.457  16.648  0.00  0.00    +0.000 N 
ATOM      5  C   UNL     1       5.662   5.780  16.318  0.00  0.00    +0.000 C 
ATOM      6  N   UNL     1       5.937   5.551  15.079  0.00  0.00    +0.000 NA
ATOM      7  C   UNL     1       7.158   4.835  14.721  0.00  0.00    +0.000 C 
ATOM      8  H   UNL     1       3.970   6.700  15.816  0.00  0.00    +0.000 HD
BRANCH   5   9
ATOM      9  S   UNL     1       6.684   5.290  17.662  0.00  0.00    +0.000 S 
ATOM     10  H   UNL     1       5.905   4.250  17.987  0.00  0.00    +0.000 HD
ENDBRANCH   5   9
ENDBRANCH   3   4
BRANCH   1  12
ATOM     11  N   UNL     1       2.020   7.625  19.962  0.00  0.00    +0.000 NA
ATOM     12  C   UNL     1       2.608   6.487  19.805  0.00  0.00    +0.000 C 
BRANCH  11  16
ATOM     13  C   UNL     1      -0.565  10.264  23.110  0.00  0.00    +0.000 C 
ATOM     14  N   UNL     1       0.379   9.216  22.745  0.00  0.00    +0.000 NA
ATOM     15  C   UNL     1       0.698   8.981  21.517  0.00  0.00    +0.000 C 
ATOM     16  N   UNL     1       1.603   7.970  21.220  0.00  0.00    +0.000 N 
ATOM     17  H   UNL     1       1.938   7.481  22.048  0.00  0.00    +0.000 HD
BRANCH  15  18
ATOM     18  S   UNL     1       0.063   9.874  20.126  0.00  0.00    +0.000 S 
ATOM     19  H   UNL     1      -0.287  11.001  20.743  0.00  0.00    +0.000 HD
ENDBRANCH  15  18
ENDBRANCH  11  16
ENDBRANCH   1  12
TORSDOF 5
ENDMDL
MODEL 9
REMARK VINA RESULT:      -5.0      1.275      7.005
REMARK  Name = 
REMARK  8 active torsions:
REMARK  status: ('A' for Active; 'I' for Inactive)
REMARK    1  A    between atoms: C_1  and  N_2
REMARK    2  A    between atoms: C_3  and  S_4
REMARK    3  A    between atoms: N_5  and  N_6
REMARK    4  A    between atoms: C_7  and  C_8
REMARK    5  A    between atoms: C_8  and  C_9
REMARK    6  A    between atoms: N_10  and  N_11
REMARK    7  A    between atoms: C_12  and  S_13
REMARK    8  A    between atoms: N_14  and  C_15
REMARK                            x       y       z     vdW  Elec       q    Type
REMARK                         _______ _______ _______ _____ _____    ______ ____
ROOT
ATOM      1  C   UNL     1       5.332   5.691  18.450  0.00  0.00    +0.000 C 
ATOM      2  C   UNL     1       6.260   5.140  19.503  0.00  0.00    +0.000 C 
ATOM      3  N   UNL     1       4.050   5.887  18.593  0.00  0.00    +0.000 NA
ENDROOT
BRANCH   3   4
ATOM      4  N   UNL     1       3.478   5.556  19.801  0.00  0.00    +0.000 N 
ATOM      5  C   UNL     1       2.783   4.402  20.115  0.00  0.00    +0.000 C 
ATOM      6  N   UNL     1       2.301   4.250  21.301  0.00  0.00    +0.000 NA
ATOM      7  C   UNL     1       1.568   3.033  21.642  0.00  0.00    +0.000 C 
ATOM      8  H   UNL     1       3.531   6.181  20.601  0.00  0.00    +0.000 HD
BRANCH   5   9
ATOM      9  S   UNL     1       2.616   3.221  18.823  0.00  0.00    +0.000 S 
ATOM     10  H   UNL     1       2.570   2.180  19.664  0.00  0.00    +0.000 HD
ENDBRANCH   5   9
ENDBRANCH   3   4
BRANCH   1  12
ATOM     11  N   UNL     1       6.950   5.388  16.679  0.00  0.00    +0.000 NA
ATOM     12  C   UNL     1       5.937   6.062  17.108  0.00  0.00    +0.000 C 
BRANCH  11  16
ATOM     13  C   UNL     1       7.502   4.924  11.880  0.00  0.00    +0.000 C 
ATOM     14  N   UNL     1       7.772   5.531  13.175  0.00  0.00    +0.000 NA
ATOM     15  C   UNL     1       7.199   5.120  14.256  0.00  0.00    +0.000 C 
ATOM     16  N   UNL     1       7.490   5.732  15.468  0.00  0.00    +0.000 N 
ATOM     17  H   UNL     1       8.160   6.493  15.378  0.00  0.00    +0.000 HD
BRANCH  15  18
ATOM     18  S   UNL     1       6.035   3.788  14.330  0.00  0.00    +0.000 S 
ATOM     19  H   UNL     1       5.732   3.845  15.626  0.00  0.00    +0.000 HD
ENDBRANCH  15  18
ENDBRANCH  11  16
ENDBRANCH   1  12
TORSDOF 5
ENDMDL
