MODEL 1
REMARK VINA RESULT:      -7.5      0.000      0.000
REMARK  Name = 
REMARK  4 active torsions:
REMARK  status: ('A' for Active; 'I' for Inactive)
REMARK    1  A    between atoms: C_1  and  C_2
REMARK    2  A    between atoms: C_2  and  C_3
REMARK    3  A    between atoms: C_2  and  C_4
REMARK    4  A    between atoms: C_8  and  C_9
REMARK                            x       y       z     vdW  Elec       q    Type
REMARK                         _______ _______ _______ _____ _____    ______ ____
ROOT
ATOM      1  C   UNL     1       4.551   6.420  16.613  0.00  0.00    +0.000 C 
ATOM      2  O   UNL     1       4.460   7.459  15.956  0.00  0.00    +0.000 OA
ATOM      3  N   UNL     1       3.608   6.072  17.586  0.00  0.00    +0.000 N 
ATOM      4  C   UNL     1       2.411   6.899  17.800  0.00  0.00    +0.000 C 
ATOM      5  C   UNL     1       2.281   7.483  19.205  0.00  0.00    +0.000 C 
ATOM      6  C   UNL     1       2.219   6.385  20.246  0.00  0.00    +0.000 C 
ATOM      7  O   UNL     1       1.200   6.132  20.877  0.00  0.00    +0.000 OA
ATOM      8  N   UNL     1       3.389   5.642  20.340  0.00  0.00    +0.000 N 
ATOM      9  C   UNL     1       3.390   4.532  19.445  0.00  0.00    +0.000 A 
ATOM     10  C   UNL     1       3.362   3.240  19.941  0.00  0.00    +0.000 A 
ATOM     11  C   UNL     1       3.443   2.180  19.042  0.00  0.00    +0.000 A 
ATOM     12  C   UNL     1       3.535   2.466  17.687  0.00  0.00    +0.000 A 
ATOM     13  N   UNL     1       3.564   3.717  17.177  0.00  0.00    +0.000 NA
ATOM     14  C   UNL     1       3.515   4.736  18.062  0.00  0.00    +0.000 A 
ATOM     15  H   UNL     1       4.162   6.246  20.055  0.00  0.00    +0.000 HD
ENDROOT
BRANCH   1  20
ATOM     16  C   UNL     1       6.850   5.536  17.245  0.00  0.00    +0.000 A 
ATOM     17  O   UNL     1       7.744   4.662  16.680  0.00  0.00    +0.000 OA
ATOM     18  C   UNL     1       7.078   4.144  15.616  0.00  0.00    +0.000 A 
ATOM     19  N   UNL     1       5.844   4.571  15.468  0.00  0.00    +0.000 NA
ATOM     20  C   UNL     1       5.709   5.531  16.464  0.00  0.00    +0.000 A 
BRANCH  16  22
ATOM     21  C   UNL     1       8.233   5.455  19.305  0.00  0.00    +0.000 C 
ATOM     22  C   UNL     1       7.303   6.302  18.438  0.00  0.00    +0.000 C 
ATOM     23  C   UNL     1       7.971   7.609  18.018  0.00  0.00    +0.000 C 
ENDBRANCH  16  22
ENDBRANCH   1  20
TORSDOF 2
ENDMDL
MODEL 2
REMARK VINA RESULT:      -7.5      2.121      5.511
REMARK  Name = 
REMARK  4 active torsions:
REMARK  status: ('A' for Active; 'I' for Inactive)
REMARK    1  A    between atoms: C_1  and  C_2
REMARK    2  A    between atoms: C_2  and  C_3
REMARK    3  A    between atoms: C_2  and  C_4
REMARK    4  A    between atoms: C_8  and  C_9
REMARK                            x       y       z     vdW  Elec       q    Type
REMARK                         _______ _______ _______ _____ _____    ______ ____
ROOT
ATOM      1  C   UNL     1       3.572   3.485  17.187  0.00  0.00    +0.000 C 
ATOM      2  O   UNL     1       2.572   3.262  16.501  0.00  0.00    +0.000 OA
ATOM      3  N   UNL     1       4.662   4.211  16.696  0.00  0.00    +0.000 N 
ATOM      4  C   UNL     1       4.619   4.817  15.357  0.00  0.00    +0.000 C 
ATOM      5  C   UNL     1       5.696   4.320  14.396  0.00  0.00    +0.000 C 
ATOM      6  C   UNL     1       7.081   4.606  14.936  0.00  0.00    +0.000 C 
ATOM      7  O   UNL     1       7.826   5.439  14.433  0.00  0.00    +0.000 OA
ATOM      8  N   UNL     1       7.378   3.909  16.101  0.00  0.00    +0.000 N 
ATOM      9  C   UNL     1       6.982   4.626  17.268  0.00  0.00    +0.000 A 
ATOM     10  C   UNL     1       7.938   5.105  18.147  0.00  0.00    +0.000 A 
ATOM     11  C   UNL     1       7.513   5.731  19.315  0.00  0.00    +0.000 A 
ATOM     12  C   UNL     1       6.149   5.861  19.540  0.00  0.00    +0.000 A 
ATOM     13  N   UNL     1       5.196   5.402  18.699  0.00  0.00    +0.000 NA
ATOM     14  C   UNL     1       5.622   4.770  17.584  0.00  0.00    +0.000 A 
ATOM     15  H   UNL     1       6.832   3.046  16.091  0.00  0.00    +0.000 HD
ENDROOT
BRANCH   1  20
ATOM     16  C   UNL     1       2.913   3.235  19.630  0.00  0.00    +0.000 A 
ATOM     17  O   UNL     1       3.460   2.615  20.725  0.00  0.00    +0.000 OA
ATOM     18  C   UNL     1       4.520   1.928  20.226  0.00  0.00    +0.000 A 
ATOM     19  N   UNL     1       4.681   2.019  18.925  0.00  0.00    +0.000 NA
ATOM     20  C   UNL     1       3.701   2.925  18.536  0.00  0.00    +0.000 A 
BRANCH  16  22
ATOM     21  C   UNL     1       0.527   3.282  20.314  0.00  0.00    +0.000 C 
ATOM     22  C   UNL     1       1.729   4.108  19.857  0.00  0.00    +0.000 C 
ATOM     23  C   UNL     1       2.058   5.212  20.858  0.00  0.00    +0.000 C 
ENDBRANCH  16  22
ENDBRANCH   1  20
TORSDOF 2
ENDMDL
MODEL 3
REMARK VINA RESULT:      -7.4      1.146      2.184
REMARK  Name = 
REMARK  4 active torsions:
REMARK  status: ('A' for Active; 'I' for Inactive)
REMARK    1  A    between atoms: C_1  and  C_2
REMARK    2  A    between atoms: C_2  and  C_3
REMARK    3  A    between atoms: C_2  and  C_4
REMARK    4  A    between atoms: C_8  and  C_9
REMARK                            x       y       z     vdW  Elec       q    Type
REMARK                         _______ _______ _______ _____ _____    ______ ____
ROOT
ATOM      1  C   UNL     1       4.921   6.469  17.135  0.00  0.00    +0.000 C 
ATOM      2  O   UNL     1       4.868   7.565  16.573  0.00  0.00    +0.000 OA
ATOM      3  N   UNL     1       3.863   5.979  17.909  0.00  0.00    +0.000 N 
ATOM      4  C   UNL     1       2.600   6.724  18.010  0.00  0.00    +0.000 C 
ATOM      5  C   UNL     1       2.222   7.152  19.426  0.00  0.00    +0.000 C 
ATOM      6  C   UNL     1       2.068   5.950  20.334  0.00  0.00    +0.000 C 
ATOM      7  O   UNL     1       0.982   5.587  20.770  0.00  0.00    +0.000 OA
ATOM      8  N   UNL     1       3.254   5.255  20.540  0.00  0.00    +0.000 N 
ATOM      9  C   UNL     1       3.459   4.245  19.555  0.00  0.00    +0.000 A 
ATOM     10  C   UNL     1       3.434   2.909  19.914  0.00  0.00    +0.000 A 
ATOM     11  C   UNL     1       3.715   1.953  18.942  0.00  0.00    +0.000 A 
ATOM     12  C   UNL     1       3.995   2.382  17.651  0.00  0.00    +0.000 A 
ATOM     13  N   UNL     1       4.025   3.680  17.275  0.00  0.00    +0.000 NA
ATOM     14  C   UNL     1       3.780   4.597  18.234  0.00  0.00    +0.000 A 
ATOM     15  H   UNL     1       4.022   5.920  20.439  0.00  0.00    +0.000 HD
ENDROOT
BRANCH   1  20
ATOM     16  C   UNL     1       6.696   5.083  15.956  0.00  0.00    +0.000 A 
ATOM     17  O   UNL     1       7.732   4.279  16.363  0.00  0.00    +0.000 OA
ATOM     18  C   UNL     1       7.773   4.445  17.710  0.00  0.00    +0.000 A 
ATOM     19  N   UNL     1       6.896   5.295  18.195  0.00  0.00    +0.000 NA
ATOM     20  C   UNL     1       6.140   5.653  17.085  0.00  0.00    +0.000 A 
BRANCH  16  22
ATOM     21  C   UNL     1       7.643   5.201  13.664  0.00  0.00    +0.000 C 
ATOM     22  C   UNL     1       6.371   5.096  14.503  0.00  0.00    +0.000 C 
ATOM     23  C   UNL     1       5.553   3.864  14.123  0.00  0.00    +0.000 C 
ENDBRANCH  16  22
ENDBRANCH   1  20
TORSDOF 2
ENDMDL
MODEL 4
REMARK VINA RESULT:      -6.7      2.062      5.053
REMARK  Name = 
REMARK  4 active torsions:
REMARK  status: ('A' for Active; 'I' for Inactive)
REMARK    1  A    between atoms: C_1  and  C_2
REMARK    2  A    between atoms: C_2  and  C_3
REMARK    3  A    between atoms: C_2  and  C_4
REMARK    4  A    between atoms: C_8  and  C_9
REMARK                            x       y       z     vdW  Elec       q    Type
REMARK                         _______ _______ _______ _____ _____    ______ ____
ROOT
ATOM      1  C   UNL     1       5.087   3.802  18.982  0.00  0.00    +0.000 C 
ATOM      2  O   UNL     1       5.328   3.563  20.167  0.00  0.00    +0.000 OA
ATOM      3  N   UNL     1       5.945   4.572  18.190  0.00  0.00    +0.000 N 
ATOM      4  C   UNL     1       7.226   5.056  18.724  0.00  0.00    +0.000 C 
ATOM      5  C   UNL     1       7.378   6.575  18.741  0.00  0.00    +0.000 C 
ATOM      6  C   UNL     1       7.268   7.148  17.344  0.00  0.00    +0.000 C 
ATOM      7  O   UNL     1       8.225   7.633  16.753  0.00  0.00    +0.000 OA
ATOM      8  N   UNL     1       6.012   6.982  16.773  0.00  0.00    +0.000 N 
ATOM      9  C   UNL     1       5.906   5.746  16.069  0.00  0.00    +0.000 A 
ATOM     10  C   UNL     1       5.756   5.741  14.693  0.00  0.00    +0.000 A 
ATOM     11  C   UNL     1       5.577   4.521  14.047  0.00  0.00    +0.000 A 
ATOM     12  C   UNL     1       5.569   3.361  14.811  0.00  0.00    +0.000 A 
ATOM     13  N   UNL     1       5.712   3.339  16.155  0.00  0.00    +0.000 NA
ATOM     14  C   UNL     1       5.856   4.531  16.771  0.00  0.00    +0.000 A 
ATOM     15  H   UNL     1       5.331   6.943  17.532  0.00  0.00    +0.000 HD
ENDROOT
BRANCH   1  20
ATOM     16  C   UNL     1       2.639   4.050  18.340  0.00  0.00    +0.000 A 
ATOM     17  O   UNL     1       1.686   3.222  17.804  0.00  0.00    +0.000 OA
ATOM     18  C   UNL     1       2.367   2.089  17.489  0.00  0.00    +0.000 A 
ATOM     19  N   UNL     1       3.656   2.126  17.737  0.00  0.00    +0.000 NA
ATOM     20  C   UNL     1       3.834   3.355  18.362  0.00  0.00    +0.000 A 
BRANCH  16  22
ATOM     21  C   UNL     1       2.297   5.476  20.343  0.00  0.00    +0.000 C 
ATOM     22  C   UNL     1       2.192   5.386  18.822  0.00  0.00    +0.000 C 
ATOM     23  C   UNL     1       2.988   6.498  18.143  0.00  0.00    +0.000 C 
ENDBRANCH  16  22
ENDBRANCH   1  20
TORSDOF 2
ENDMDL
MODEL 5
REMARK VINA RESULT:      -6.4      1.469      1.564
REMARK  Name = 
REMARK  4 active torsions:
REMARK  status: ('A' for Active; 'I' for Inactive)
REMARK    1  A    between atoms: C_1  and  C_2
REMARK    2  A    between atoms: C_2  and  C_3
REMARK    3  A    between atoms: C_2  and  C_4
REMARK    4  A    between atoms: C_8  and  C_9
REMARK                            x       y       z     vdW  Elec       q    Type
REMARK                         _______ _______ _______ _____ _____    ______ ____
ROOT
ATOM      1  C   UNL     1       3.882   6.838  17.048  0.00  0.00    +0.000 C 
ATOM      2  O   UNL     1       4.135   7.772  16.284  0.00  0.00    +0.000 OA
ATOM      3  N   UNL     1       2.843   6.903  17.982  0.00  0.00    +0.000 N 
ATOM      4  C   UNL     1       1.947   8.068  18.028  0.00  0.00    +0.000 C 
ATOM      5  C   UNL     1       1.950   8.823  19.356  0.00  0.00    +0.000 C 
ATOM      6  C   UNL     1       1.519   7.923  20.494  0.00  0.00    +0.000 C 
ATOM      7  O   UNL     1       0.449   8.060  21.075  0.00  0.00    +0.000 OA
ATOM      8  N   UNL     1       2.404   6.880  20.744  0.00  0.00    +0.000 N 
ATOM      9  C   UNL     1       2.099   5.724  19.966  0.00  0.00    +0.000 A 
ATOM     10  C   UNL     1       1.661   4.566  20.586  0.00  0.00    +0.000 A 
ATOM     11  C   UNL     1       1.449   3.434  19.805  0.00  0.00    +0.000 A 
ATOM     12  C   UNL     1       1.672   3.520  18.437  0.00  0.00    +0.000 A 
ATOM     13  N   UNL     1       2.099   4.637  17.808  0.00  0.00    +0.000 NA
ATOM     14  C   UNL     1       2.330   5.719  18.582  0.00  0.00    +0.000 A 
ATOM     15  H   UNL     1       3.333   7.189  20.454  0.00  0.00    +0.000 HD
ENDROOT
BRANCH   1  20
ATOM     16  C   UNL     1       5.962   5.511  17.662  0.00  0.00    +0.000 A 
ATOM     17  O   UNL     1       6.466   4.281  17.321  0.00  0.00    +0.000 OA
ATOM     18  C   UNL     1       5.482   3.710  16.579  0.00  0.00    +0.000 A 
ATOM     19  N   UNL     1       4.394   4.434  16.444  0.00  0.00    +0.000 NA
ATOM     20  C   UNL     1       4.719   5.633  17.069  0.00  0.00    +0.000 A 
BRANCH  16  22
ATOM     21  C   UNL     1       7.812   5.598  19.314  0.00  0.00    +0.000 C 
ATOM     22  C   UNL     1       6.834   6.409  18.466  0.00  0.00    +0.000 C 
ATOM     23  C   UNL     1       7.568   7.398  17.563  0.00  0.00    +0.000 C 
ENDBRANCH  16  22
ENDBRANCH   1  20
TORSDOF 2
ENDMDL
MODEL 6
REMARK VINA RESULT:      -6.4      2.120      4.826
REMARK  Name = 
REMARK  4 active torsions:
REMARK  status: ('A' for Active; 'I' for Inactive)
REMARK    1  A    between atoms: C_1  and  C_2
REMARK    2  A    between atoms: C_2  and  C_3
REMARK    3  A    between atoms: C_2  and  C_4
REMARK    4  A    between atoms: C_8  and  C_9
REMARK                            x       y       z     vdW  Elec       q    Type
REMARK                         _______ _______ _______ _____ _____    ______ ____
ROOT
ATOM      1  C   UNL     1       2.947   4.048  20.591  0.00  0.00    +0.000 C 
ATOM      2  O   UNL     1       2.127   3.941  21.506  0.00  0.00    +0.000 OA
ATOM      3  N   UNL     1       3.225   5.277  19.984  0.00  0.00    +0.000 N 
ATOM      4  C   UNL     1       2.608   6.516  20.480  0.00  0.00    +0.000 C 
ATOM      5  C   UNL     1       1.745   7.253  19.459  0.00  0.00    +0.000 C 
ATOM      6  C   UNL     1       2.559   7.652  18.246  0.00  0.00    +0.000 C 
ATOM      7  O   UNL     1       2.841   8.818  17.995  0.00  0.00    +0.000 OA
ATOM      8  N   UNL     1       3.028   6.570  17.512  0.00  0.00    +0.000 N 
ATOM      9  C   UNL     1       4.298   6.118  17.979  0.00  0.00    +0.000 A 
ATOM     10  C   UNL     1       5.419   6.248  17.177  0.00  0.00    +0.000 A 
ATOM     11  C   UNL     1       6.626   5.726  17.632  0.00  0.00    +0.000 A 
ATOM     12  C   UNL     1       6.656   5.110  18.877  0.00  0.00    +0.000 A 
ATOM     13  N   UNL     1       5.576   4.970  19.678  0.00  0.00    +0.000 NA
ATOM     14  C   UNL     1       4.406   5.454  19.211  0.00  0.00    +0.000 A 
ATOM     15  H   UNL     1       2.376   5.796  17.651  0.00  0.00    +0.000 HD
ENDROOT
BRANCH   1  20
ATOM     16  C   UNL     1       3.194   2.127  18.944  0.00  0.00    +0.000 A 
ATOM     17  O   UNL     1       4.006   1.024  18.851  0.00  0.00    +0.000 OA
ATOM     18  C   UNL     1       4.900   1.182  19.861  0.00  0.00    +0.000 A 
ATOM     19  N   UNL     1       4.762   2.285  20.561  0.00  0.00    +0.000 NA
ATOM     20  C   UNL     1       3.615   2.866  20.034  0.00  0.00    +0.000 A 
BRANCH  16  22
ATOM     21  C   UNL     1       0.740   2.407  18.703  0.00  0.00    +0.000 C 
ATOM     22  C   UNL     1       2.071   2.233  17.973  0.00  0.00    +0.000 C 
ATOM     23  C   UNL     1       2.318   3.371  16.985  0.00  0.00    +0.000 C 
ENDBRANCH  16  22
ENDBRANCH   1  20
TORSDOF 2
ENDMDL
MODEL 7
REMARK VINA RESULT:      -6.1      6.173      9.326
REMARK  Name = 
REMARK  4 active torsions:
REMARK  status: ('A' for Active; 'I' for Inactive)
REMARK    1  A    between atoms: C_1  and  C_2
REMARK    2  A    between atoms: C_2  and  C_3
REMARK    3  A    between atoms: C_2  and  C_4
REMARK    4  A    between atoms: C_8  and  C_9
REMARK                            x       y       z     vdW  Elec       q    Type
REMARK                         _______ _______ _______ _____ _____    ______ ____
ROOT
ATOM      1  C   UNL     1      -0.322   9.724  21.269  0.00  0.00    +0.000 C 
ATOM      2  O   UNL     1      -0.629   8.686  21.859  0.00  0.00    +0.000 OA
ATOM      3  N   UNL     1      -0.566  10.989  21.816  0.00  0.00    +0.000 N 
ATOM      4  C   UNL     1      -1.126  11.126  23.168  0.00  0.00    +0.000 C 
ATOM      5  C   UNL     1      -2.466  11.855  23.234  0.00  0.00    +0.000 C 
ATOM      6  C   UNL     1      -2.346  13.263  22.690  0.00  0.00    +0.000 C 
ATOM      7  O   UNL     1      -2.422  14.255  23.405  0.00  0.00    +0.000 OA
ATOM      8  N   UNL     1      -2.049  13.310  21.333  0.00  0.00    +0.000 N 
ATOM      9  C   UNL     1      -0.643  13.302  21.094  0.00  0.00    +0.000 A 
ATOM     10  C   UNL     1      -0.025  14.415  20.551  0.00  0.00    +0.000 A 
ATOM     11  C   UNL     1       1.334  14.344  20.258  0.00  0.00    +0.000 A 
ATOM     12  C   UNL     1       2.012  13.165  20.537  0.00  0.00    +0.000 A 
ATOM     13  N   UNL     1       1.432  12.066  21.067  0.00  0.00    +0.000 NA
ATOM     14  C   UNL     1       0.108  12.138  21.318  0.00  0.00    +0.000 A 
ATOM     15  H   UNL     1      -2.421  12.460  20.906  0.00  0.00    +0.000 HD
ENDROOT
BRANCH   1  20
ATOM     16  C   UNL     1      -0.384  10.085  18.753  0.00  0.00    +0.000 A 
ATOM     17  O   UNL     1       0.427   9.740  17.702  0.00  0.00    +0.000 OA
ATOM     18  C   UNL     1       1.522   9.192  18.290  0.00  0.00    +0.000 A 
ATOM     19  N   UNL     1       1.506   9.186  19.603  0.00  0.00    +0.000 NA
ATOM     20  C   UNL     1       0.246   9.684  19.917  0.00  0.00    +0.000 A 
BRANCH  16  22
ATOM     21  C   UNL     1      -1.528  12.109  17.885  0.00  0.00    +0.000 C 
ATOM     22  C   UNL     1      -1.704  10.693  18.430  0.00  0.00    +0.000 C 
ATOM     23  C   UNL     1      -2.477   9.812  17.451  0.00  0.00    +0.000 C 
ENDBRANCH  16  22
ENDBRANCH   1  20
TORSDOF 2
ENDMDL
MODEL 8
REMARK VINA RESULT:      -6.0      1.682      2.542
REMARK  Name = 
REMARK  4 active torsions:
REMARK  status: ('A' for Active; 'I' for Inactive)
REMARK    1  A    between atoms: C_1  and  C_2
REMARK    2  A    between atoms: C_2  and  C_3
REMARK    3  A    between atoms: C_2  and  C_4
REMARK    4  A    between atoms: C_8  and  C_9
REMARK                            x       y       z     vdW  Elec       q    Type
REMARK                         _______ _______ _______ _____ _____    ______ ____
ROOT
ATOM      1  C   UNL     1       4.414   6.031  18.223  0.00  0.00    +0.000 C 
ATOM      2  O   UNL     1       4.165   7.231  18.094  0.00  0.00    +0.000 OA
ATOM      3  N   UNL     1       3.494   5.137  18.781  0.00  0.00    +0.000 N 
ATOM      4  C   UNL     1       2.145   5.586  19.157  0.00  0.00    +0.000 C 
ATOM      5  C   UNL     1       1.806   5.419  20.637  0.00  0.00    +0.000 C 
ATOM      6  C   UNL     1       1.891   3.966  21.053  0.00  0.00    +0.000 C 
ATOM      7  O   UNL     1       0.901   3.303  21.341  0.00  0.00    +0.000 OA
ATOM      8  N   UNL     1       3.176   3.442  20.982  0.00  0.00    +0.000 N 
ATOM      9  C   UNL     1       3.458   2.892  19.697  0.00  0.00    +0.000 A 
ATOM     10  C   UNL     1       3.652   1.529  19.552  0.00  0.00    +0.000 A 
ATOM     11  C   UNL     1       4.003   1.037  18.298  0.00  0.00    +0.000 A 
ATOM     12  C   UNL     1       4.129   1.933  17.245  0.00  0.00    +0.000 A 
ATOM     13  N   UNL     1       3.945   3.267  17.360  0.00  0.00    +0.000 NA
ATOM     14  C   UNL     1       3.635   3.735  18.588  0.00  0.00    +0.000 A 
ATOM     15  H   UNL     1       3.832   4.213  21.118  0.00  0.00    +0.000 HD
ENDROOT
BRANCH   1  20
ATOM     16  C   UNL     1       6.170   5.170  16.598  0.00  0.00    +0.000 A 
ATOM     17  O   UNL     1       7.392   4.557  16.722  0.00  0.00    +0.000 OA
ATOM     18  C   UNL     1       7.645   4.583  18.056  0.00  0.00    +0.000 A 
ATOM     19  N   UNL     1       6.730   5.180  18.786  0.00  0.00    +0.000 NA
ATOM     20  C   UNL     1       5.732   5.492  17.870  0.00  0.00    +0.000 A 
BRANCH  16  22
ATOM     21  C   UNL     1       5.264   6.723  14.887  0.00  0.00    +0.000 C 
ATOM     22  C   UNL     1       5.590   5.271  15.231  0.00  0.00    +0.000 C 
ATOM     23  C   UNL     1       6.532   4.653  14.200  0.00  0.00    +0.000 C 
ENDBRANCH  16  22
ENDBRANCH   1  20
TORSDOF 2
ENDMDL
MODEL 9
REMARK VINA RESULT:      -6.0      7.418      9.528
REMARK  Name = 
REMARK  4 active torsions:
REMARK  status: ('A' for Active; 'I' for Inactive)
REMARK    1  A    between atoms: C_1  and  C_2
REMARK    2  A    between atoms: C_2  and  C_3
REMARK    3  A    between atoms: C_2  and  C_4
REMARK    4  A    between atoms: C_8  and  C_9
REMARK                            x       y       z     vdW  Elec       q    Type
REMARK                         _______ _______ _______ _____ _____    ______ ____
ROOT
ATOM      1  C   UNL     1      -0.541  13.453  21.870  0.00  0.00    +0.000 C 
ATOM      2  O   UNL     1      -0.475  13.939  23.001  0.00  0.00    +0.000 OA
ATOM      3  N   UNL     1      -0.826  12.099  21.659  0.00  0.00    +0.000 N 
ATOM      4  C   UNL     1      -1.148  11.215  22.789  0.00  0.00    +0.000 C 
ATOM      5  C   UNL     1      -0.194  10.036  22.969  0.00  0.00    +0.000 C 
ATOM      6  C   UNL     1      -0.186   9.152  21.739  0.00  0.00    +0.000 C 
ATOM      7  O   UNL     1      -0.665   8.025  21.734  0.00  0.00    +0.000 OA
ATOM      8  N   UNL     1       0.326   9.778  20.609  0.00  0.00    +0.000 N 
ATOM      9  C   UNL     1      -0.685  10.464  19.875  0.00  0.00    +0.000 A 
ATOM     10  C   UNL     1      -1.042  10.028  18.610  0.00  0.00    +0.000 A 
ATOM     11  C   UNL     1      -1.977  10.767  17.891  0.00  0.00    +0.000 A 
ATOM     12  C   UNL     1      -2.520  11.902  18.479  0.00  0.00    +0.000 A 
ATOM     13  N   UNL     1      -2.189  12.348  19.711  0.00  0.00    +0.000 NA
ATOM     14  C   UNL     1      -1.260  11.639  20.385  0.00  0.00    +0.000 A 
ATOM     15  H   UNL     1       0.989  10.488  20.923  0.00  0.00    +0.000 HD
ENDROOT
BRANCH   1  20
ATOM     16  C   UNL     1       0.894  14.169  19.898  0.00  0.00    +0.000 A 
ATOM     17  O   UNL     1       0.855  15.198  18.990  0.00  0.00    +0.000 OA
ATOM     18  C   UNL     1      -0.321  15.826  19.247  0.00  0.00    +0.000 A 
ATOM     19  N   UNL     1      -1.048  15.283  20.197  0.00  0.00    +0.000 NA
ATOM     20  C   UNL     1      -0.240  14.261  20.683  0.00  0.00    +0.000 A 
BRANCH  16  22
ATOM     21  C   UNL     1       2.222  12.551  18.564  0.00  0.00    +0.000 C 
ATOM     22  C   UNL     1       2.100  13.296  19.892  0.00  0.00    +0.000 C 
ATOM     23  C   UNL     1       3.356  14.111  20.190  0.00  0.00    +0.000 C 
ENDBRANCH  16  22
ENDBRANCH   1  20
TORSDOF 2
ENDMDL
