MODEL 1
REMARK VINA RESULT:      -6.9      0.000      0.000
REMARK  Name = 
REMARK  7 active torsions:
REMARK  status: ('A' for Active; 'I' for Inactive)
REMARK    1  A    between atoms: C_1  and  C_2
REMARK    2  A    between atoms: C_2  and  C_3
REMARK    3  A    between atoms: C_4  and  C_5
REMARK    4  A    between atoms: C_5  and  C_6
REMARK    5  A    between atoms: N_9  and  C_10
REMARK    6  A    between atoms: N_12  and  S_13
REMARK    7  A    between atoms: S_13  and  C_16
REMARK                            x       y       z     vdW  Elec       q    Type
REMARK                         _______ _______ _______ _____ _____    ______ ____
ROOT
ATOM      1  C   UNL     1      -0.769  11.282  19.485  0.00  0.00    +0.000 C 
ATOM      2  C   UNL     1       0.126  12.297  18.740  0.00  0.00    +0.000 C 
ATOM      3  C   UNL     1       0.543  13.295  19.800  0.00  0.00    +0.000 C 
ATOM      4  N   UNL     1      -0.184  12.905  21.001  0.00  0.00    +0.000 NA
ATOM      5  C   UNL     1      -0.342  13.991  21.930  0.00  0.00    +0.000 C 
ATOM      6  C   UNL     1      -1.378  12.125  20.678  0.00  0.00    +0.000 C 
ATOM      7  N   UNL     1      -2.634  12.698  20.093  0.00  0.00    +0.000 N 
ATOM      8  C   UNL     1      -3.038  11.829  19.017  0.00  0.00    +0.000 A 
ATOM      9  C   UNL     1      -4.234  11.743  18.328  0.00  0.00    +0.000 A 
ATOM     10  C   UNL     1      -4.339  10.814  17.288  0.00  0.00    +0.000 A 
ATOM     11  C   UNL     1      -3.261  10.007  16.905  0.00  0.00    +0.000 A 
ATOM     12  C   UNL     1      -2.044  10.107  17.587  0.00  0.00    +0.000 A 
ATOM     13  C   UNL     1      -1.973  10.995  18.652  0.00  0.00    +0.000 A 
ENDROOT
BRANCH   7  14
ATOM     14  S   UNL     1      -3.692  13.815  20.805  0.00  0.00    +0.000 S 
ATOM     15  O   UNL     1      -2.990  14.999  21.247  0.00  0.00    +0.000 OA
ATOM     16  O   UNL     1      -4.821  13.950  19.898  0.00  0.00    +0.000 OA
BRANCH  14  17
ATOM     17  C   UNL     1      -4.381  13.117  22.308  0.00  0.00    +0.000 A 
ATOM     18  C   UNL     1      -5.756  12.950  22.453  0.00  0.00    +0.000 A 
ATOM     19  C   UNL     1      -6.265  12.611  23.713  0.00  0.00    +0.000 A 
ATOM     20  C   UNL     1      -5.418  12.367  24.788  0.00  0.00    +0.000 A 
ATOM     21  C   UNL     1      -4.039  12.342  24.586  0.00  0.00    +0.000 A 
ATOM     22  C   UNL     1      -3.518  12.713  23.344  0.00  0.00    +0.000 A 
ENDBRANCH  14  17
ENDBRANCH   7  14
BRANCH   1  23
ATOM     23  C   UNL     1       0.076  10.054  19.912  0.00  0.00    +0.000 C 
BRANCH  23  27
ATOM     24  C   UNL     1       2.794   8.091  17.905  0.00  0.00    +0.000 C 
ATOM     25  C   UNL     1       1.856   8.473  19.015  0.00  0.00    +0.000 C 
ATOM     26  C   UNL     1       1.826   7.588  20.230  0.00  0.00    +0.000 C 
ATOM     27  C   UNL     1       1.085   9.571  18.898  0.00  0.00    +0.000 C 
ENDBRANCH  23  27
ENDBRANCH   1  23
TORSDOF 4
ENDMDL
MODEL 2
REMARK VINA RESULT:      -6.8      2.123      3.021
REMARK  Name = 
REMARK  7 active torsions:
REMARK  status: ('A' for Active; 'I' for Inactive)
REMARK    1  A    between atoms: C_1  and  C_2
REMARK    2  A    between atoms: C_2  and  C_3
REMARK    3  A    between atoms: C_4  and  C_5
REMARK    4  A    between atoms: C_5  and  C_6
REMARK    5  A    between atoms: N_9  and  C_10
REMARK    6  A    between atoms: N_12  and  S_13
REMARK    7  A    between atoms: S_13  and  C_16
REMARK                            x       y       z     vdW  Elec       q    Type
REMARK                         _______ _______ _______ _____ _____    ______ ____
ROOT
ATOM      1  C   UNL     1      -1.595  12.045  20.027  0.00  0.00    +0.000 C 
ATOM      2  C   UNL     1      -0.960  13.369  19.549  0.00  0.00    +0.000 C 
ATOM      3  C   UNL     1      -1.633  14.443  20.378  0.00  0.00    +0.000 C 
ATOM      4  N   UNL     1      -2.648  13.745  21.157  0.00  0.00    +0.000 NA
ATOM      5  C   UNL     1      -3.712  14.613  21.586  0.00  0.00    +0.000 C 
ATOM      6  C   UNL     1      -3.031  12.479  20.531  0.00  0.00    +0.000 C 
ATOM      7  N   UNL     1      -3.882  12.363  19.303  0.00  0.00    +0.000 N 
ATOM      8  C   UNL     1      -3.244  11.409  18.432  0.00  0.00    +0.000 A 
ATOM      9  C   UNL     1      -3.720  10.748  17.315  0.00  0.00    +0.000 A 
ATOM     10  C   UNL     1      -2.856   9.888  16.629  0.00  0.00    +0.000 A 
ATOM     11  C   UNL     1      -1.523   9.714  17.018  0.00  0.00    +0.000 A 
ATOM     12  C   UNL     1      -1.033  10.397  18.136  0.00  0.00    +0.000 A 
ATOM     13  C   UNL     1      -1.918  11.205  18.837  0.00  0.00    +0.000 A 
ENDROOT
BRANCH   7  14
ATOM     14  S   UNL     1      -5.505  12.816  19.120  0.00  0.00    +0.000 S 
ATOM     15  O   UNL     1      -5.814  13.996  19.898  0.00  0.00    +0.000 OA
ATOM     16  O   UNL     1      -5.776  12.812  17.691  0.00  0.00    +0.000 OA
BRANCH  14  17
ATOM     17  C   UNL     1      -6.566  11.540  19.801  0.00  0.00    +0.000 A 
ATOM     18  C   UNL     1      -7.276  11.756  20.980  0.00  0.00    +0.000 A 
ATOM     19  C   UNL     1      -7.914  10.670  21.592  0.00  0.00    +0.000 A 
ATOM     20  C   UNL     1      -7.911   9.411  21.003  0.00  0.00    +0.000 A 
ATOM     21  C   UNL     1      -7.369   9.247  19.729  0.00  0.00    +0.000 A 
ATOM     22  C   UNL     1      -6.699  10.313  19.124  0.00  0.00    +0.000 A 
ENDBRANCH  14  17
ENDBRANCH   7  14
BRANCH   1  23
ATOM     23  C   UNL     1      -0.691  11.389  21.103  0.00  0.00    +0.000 C 
BRANCH  23  27
ATOM     24  C   UNL     1       1.458   8.138  20.821  0.00  0.00    +0.000 C 
ATOM     25  C   UNL     1       0.694   9.281  21.429  0.00  0.00    +0.000 C 
ATOM     26  C   UNL     1       0.596   9.327  22.929  0.00  0.00    +0.000 C 
ATOM     27  C   UNL     1       0.131  10.212  20.636  0.00  0.00    +0.000 C 
ENDBRANCH  23  27
ENDBRANCH   1  23
TORSDOF 4
ENDMDL
MODEL 3
REMARK VINA RESULT:      -6.8      2.396      4.729
REMARK  Name = 
REMARK  7 active torsions:
REMARK  status: ('A' for Active; 'I' for Inactive)
REMARK    1  A    between atoms: C_1  and  C_2
REMARK    2  A    between atoms: C_2  and  C_3
REMARK    3  A    between atoms: C_4  and  C_5
REMARK    4  A    between atoms: C_5  and  C_6
REMARK    5  A    between atoms: N_9  and  C_10
REMARK    6  A    between atoms: N_12  and  S_13
REMARK    7  A    between atoms: S_13  and  C_16
REMARK                            x       y       z     vdW  Elec       q    Type
REMARK                         _______ _______ _______ _____ _____    ______ ____
ROOT
ATOM      1  C   UNL     1      -1.473  11.850  19.301  0.00  0.00    +0.000 C 
ATOM      2  C   UNL     1      -1.401  10.310  19.206  0.00  0.00    +0.000 C 
ATOM      3  C   UNL     1      -1.883   9.986  17.807  0.00  0.00    +0.000 C 
ATOM      4  N   UNL     1      -2.302  11.262  17.241  0.00  0.00    +0.000 NA
ATOM      5  C   UNL     1      -3.251  11.108  16.171  0.00  0.00    +0.000 C 
ATOM      6  C   UNL     1      -2.624  12.234  18.285  0.00  0.00    +0.000 C 
ATOM      7  N   UNL     1      -3.862  12.193  19.130  0.00  0.00    +0.000 N 
ATOM      8  C   UNL     1      -3.454  12.416  20.494  0.00  0.00    +0.000 A 
ATOM      9  C   UNL     1      -4.196  12.730  21.617  0.00  0.00    +0.000 A 
ATOM     10  C   UNL     1      -3.532  12.856  22.842  0.00  0.00    +0.000 A 
ATOM     11  C   UNL     1      -2.155  12.633  22.963  0.00  0.00    +0.000 A 
ATOM     12  C   UNL     1      -1.406  12.295  21.831  0.00  0.00    +0.000 A 
ATOM     13  C   UNL     1      -2.071  12.227  20.615  0.00  0.00    +0.000 A 
ENDROOT
BRANCH   7  14
ATOM     14  S   UNL     1      -5.469  12.372  18.622  0.00  0.00    +0.000 S 
ATOM     15  O   UNL     1      -6.017  13.643  19.042  0.00  0.00    +0.000 OA
ATOM     16  O   UNL     1      -5.500  12.012  17.213  0.00  0.00    +0.000 OA
BRANCH  14  17
ATOM     17  C   UNL     1      -6.497  11.150  19.440  0.00  0.00    +0.000 A 
ATOM     18  C   UNL     1      -7.303  11.503  20.520  0.00  0.00    +0.000 A 
ATOM     19  C   UNL     1      -7.917  10.486  21.264  0.00  0.00    +0.000 A 
ATOM     20  C   UNL     1      -7.794   9.152  20.894  0.00  0.00    +0.000 A 
ATOM     21  C   UNL     1      -7.152   8.823  19.701  0.00  0.00    +0.000 A 
ATOM     22  C   UNL     1      -6.506   9.823  18.970  0.00  0.00    +0.000 A 
ENDBRANCH  14  17
ENDBRANCH   7  14
BRANCH   1  23
ATOM     23  C   UNL     1      -0.084  12.460  18.980  0.00  0.00    +0.000 C 
BRANCH  23  27
ATOM     24  C   UNL     1       0.943  16.219  18.698  0.00  0.00    +0.000 C 
ATOM     25  C   UNL     1       1.053  14.734  18.904  0.00  0.00    +0.000 C 
ATOM     26  C   UNL     1       2.419  14.174  19.189  0.00  0.00    +0.000 C 
ATOM     27  C   UNL     1      -0.048  13.962  18.832  0.00  0.00    +0.000 C 
ENDBRANCH  23  27
ENDBRANCH   1  23
TORSDOF 4
ENDMDL
MODEL 4
REMARK VINA RESULT:      -6.8      0.777      1.022
REMARK  Name = 
REMARK  7 active torsions:
REMARK  status: ('A' for Active; 'I' for Inactive)
REMARK    1  A    between atoms: C_1  and  C_2
REMARK    2  A    between atoms: C_2  and  C_3
REMARK    3  A    between atoms: C_4  and  C_5
REMARK    4  A    between atoms: C_5  and  C_6
REMARK    5  A    between atoms: N_9  and  C_10
REMARK    6  A    between atoms: N_12  and  S_13
REMARK    7  A    between atoms: S_13  and  C_16
REMARK                            x       y       z     vdW  Elec       q    Type
REMARK                         _______ _______ _______ _____ _____    ______ ____
ROOT
ATOM      1  C   UNL     1      -0.615  11.222  19.419  0.00  0.00    +0.000 C 
ATOM      2  C   UNL     1       0.292  12.144  18.573  0.00  0.00    +0.000 C 
ATOM      3  C   UNL     1       0.847  13.151  19.559  0.00  0.00    +0.000 C 
ATOM      4  N   UNL     1       0.180  12.859  20.821  0.00  0.00    +0.000 NA
ATOM      5  C   UNL     1       0.159  13.988  21.711  0.00  0.00    +0.000 C 
ATOM      6  C   UNL     1      -1.083  12.151  20.612  0.00  0.00    +0.000 C 
ATOM      7  N   UNL     1      -2.336  12.787  20.088  0.00  0.00    +0.000 N 
ATOM      8  C   UNL     1      -2.870  11.906  19.080  0.00  0.00    +0.000 A 
ATOM      9  C   UNL     1      -4.113  11.877  18.476  0.00  0.00    +0.000 A 
ATOM     10  C   UNL     1      -4.351  10.918  17.486  0.00  0.00    +0.000 A 
ATOM     11  C   UNL     1      -3.359  10.024  17.067  0.00  0.00    +0.000 A 
ATOM     12  C   UNL     1      -2.093  10.066  17.663  0.00  0.00    +0.000 A 
ATOM     13  C   UNL     1      -1.890  10.987  18.681  0.00  0.00    +0.000 A 
ENDROOT
BRANCH   7  14
ATOM     14  S   UNL     1      -3.265  14.000  20.819  0.00  0.00    +0.000 S 
ATOM     15  O   UNL     1      -2.639  15.297  20.686  0.00  0.00    +0.000 OA
ATOM     16  O   UNL     1      -4.629  13.815  20.350  0.00  0.00    +0.000 OA
BRANCH  14  17
ATOM     17  C   UNL     1      -3.337  13.718  22.590  0.00  0.00    +0.000 A 
ATOM     18  C   UNL     1      -3.840  12.525  23.103  0.00  0.00    +0.000 A 
ATOM     19  C   UNL     1      -4.081  12.431  24.479  0.00  0.00    +0.000 A 
ATOM     20  C   UNL     1      -3.758  13.476  25.337  0.00  0.00    +0.000 A 
ATOM     21  C   UNL     1      -3.074  14.586  24.845  0.00  0.00    +0.000 A 
ATOM     22  C   UNL     1      -2.859  14.707  23.470  0.00  0.00    +0.000 A 
ENDBRANCH  14  17
ENDBRANCH   7  14
BRANCH   1  23
ATOM     23  C   UNL     1       0.175   9.957  19.842  0.00  0.00    +0.000 C 
BRANCH  23  27
ATOM     24  C   UNL     1       2.897   7.954  17.881  0.00  0.00    +0.000 C 
ATOM     25  C   UNL     1       1.953   8.355  18.980  0.00  0.00    +0.000 C 
ATOM     26  C   UNL     1       1.909   7.486  20.206  0.00  0.00    +0.000 C 
ATOM     27  C   UNL     1       1.189   9.455  18.842  0.00  0.00    +0.000 C 
ENDBRANCH  23  27
ENDBRANCH   1  23
TORSDOF 4
ENDMDL
MODEL 5
REMARK VINA RESULT:      -6.7      2.000      2.606
REMARK  Name = 
REMARK  7 active torsions:
REMARK  status: ('A' for Active; 'I' for Inactive)
REMARK    1  A    between atoms: C_1  and  C_2
REMARK    2  A    between atoms: C_2  and  C_3
REMARK    3  A    between atoms: C_4  and  C_5
REMARK    4  A    between atoms: C_5  and  C_6
REMARK    5  A    between atoms: N_9  and  C_10
REMARK    6  A    between atoms: N_12  and  S_13
REMARK    7  A    between atoms: S_13  and  C_16
REMARK                            x       y       z     vdW  Elec       q    Type
REMARK                         _______ _______ _______ _____ _____    ______ ____
ROOT
ATOM      1  C   UNL     1      -0.710  12.716  20.201  0.00  0.00    +0.000 C 
ATOM      2  C   UNL     1      -0.513  14.234  19.992  0.00  0.00    +0.000 C 
ATOM      3  C   UNL     1      -0.485  14.817  21.390  0.00  0.00    +0.000 C 
ATOM      4  N   UNL     1      -0.774  13.697  22.278  0.00  0.00    +0.000 NA
ATOM      5  C   UNL     1      -1.305  14.118  23.546  0.00  0.00    +0.000 C 
ATOM      6  C   UNL     1      -1.484  12.626  21.579  0.00  0.00    +0.000 C 
ATOM      7  N   UNL     1      -2.926  12.686  21.174  0.00  0.00    +0.000 N 
ATOM      8  C   UNL     1      -3.005  12.218  19.813  0.00  0.00    +0.000 A 
ATOM      9  C   UNL     1      -4.095  11.831  19.056  0.00  0.00    +0.000 A 
ATOM     10  C   UNL     1      -3.882  11.447  17.727  0.00  0.00    +0.000 A 
ATOM     11  C   UNL     1      -2.611  11.485  17.141  0.00  0.00    +0.000 A 
ATOM     12  C   UNL     1      -1.510  11.896  17.901  0.00  0.00    +0.000 A 
ATOM     13  C   UNL     1      -1.731  12.221  19.232  0.00  0.00    +0.000 A 
ENDROOT
BRANCH   7  14
ATOM     14  S   UNL     1      -4.283  12.776  22.185  0.00  0.00    +0.000 S 
ATOM     15  O   UNL     1      -5.470  12.289  21.517  0.00  0.00    +0.000 OA
ATOM     16  O   UNL     1      -3.889  12.193  23.458  0.00  0.00    +0.000 OA
BRANCH  14  17
ATOM     17  C   UNL     1      -4.649  14.494  22.550  0.00  0.00    +0.000 A 
ATOM     18  C   UNL     1      -4.302  15.503  21.654  0.00  0.00    +0.000 A 
ATOM     19  C   UNL     1      -4.404  16.837  22.070  0.00  0.00    +0.000 A 
ATOM     20  C   UNL     1      -4.913  17.162  23.321  0.00  0.00    +0.000 A 
ATOM     21  C   UNL     1      -5.441  16.160  24.133  0.00  0.00    +0.000 A 
ATOM     22  C   UNL     1      -5.313  14.823  23.746  0.00  0.00    +0.000 A 
ENDBRANCH  14  17
ENDBRANCH   7  14
BRANCH   1  23
ATOM     23  C   UNL     1       0.666  12.001  20.172  0.00  0.00    +0.000 C 
BRANCH  23  27
ATOM     24  C   UNL     1       1.027   8.217  21.077  0.00  0.00    +0.000 C 
ATOM     25  C   UNL     1       0.968   9.477  20.259  0.00  0.00    +0.000 C 
ATOM     26  C   UNL     1       1.196   9.351  18.778  0.00  0.00    +0.000 C 
ATOM     27  C   UNL     1       0.718  10.657  20.857  0.00  0.00    +0.000 C 
ENDBRANCH  23  27
ENDBRANCH   1  23
TORSDOF 4
ENDMDL
MODEL 6
REMARK VINA RESULT:      -6.7      1.286      1.949
REMARK  Name = 
REMARK  7 active torsions:
REMARK  status: ('A' for Active; 'I' for Inactive)
REMARK    1  A    between atoms: C_1  and  C_2
REMARK    2  A    between atoms: C_2  and  C_3
REMARK    3  A    between atoms: C_4  and  C_5
REMARK    4  A    between atoms: C_5  and  C_6
REMARK    5  A    between atoms: N_9  and  C_10
REMARK    6  A    between atoms: N_12  and  S_13
REMARK    7  A    between atoms: S_13  and  C_16
REMARK                            x       y       z     vdW  Elec       q    Type
REMARK                         _______ _______ _______ _____ _____    ______ ____
ROOT
ATOM      1  C   UNL     1      -0.950  12.207  19.458  0.00  0.00    +0.000 C 
ATOM      2  C   UNL     1      -0.429  13.285  18.482  0.00  0.00    +0.000 C 
ATOM      3  C   UNL     1      -0.287  14.535  19.325  0.00  0.00    +0.000 C 
ATOM      4  N   UNL     1      -0.817  14.175  20.635  0.00  0.00    +0.000 NA
ATOM      5  C   UNL     1      -1.255  15.319  21.388  0.00  0.00    +0.000 C 
ATOM      6  C   UNL     1      -1.736  13.040  20.550  0.00  0.00    +0.000 C 
ATOM      7  N   UNL     1      -3.128  13.114  19.997  0.00  0.00    +0.000 N 
ATOM      8  C   UNL     1      -3.295  11.986  19.116  0.00  0.00    +0.000 A 
ATOM      9  C   UNL     1      -4.437  11.439  18.560  0.00  0.00    +0.000 A 
ATOM     10  C   UNL     1      -4.301  10.347  17.696  0.00  0.00    +0.000 A 
ATOM     11  C   UNL     1      -3.047   9.828  17.352  0.00  0.00    +0.000 A 
ATOM     12  C   UNL     1      -1.890  10.394  17.897  0.00  0.00    +0.000 A 
ATOM     13  C   UNL     1      -2.045  11.441  18.794  0.00  0.00    +0.000 A 
ENDROOT
BRANCH   7  14
ATOM     14  S   UNL     1      -4.442  13.989  20.613  0.00  0.00    +0.000 S 
ATOM     15  O   UNL     1      -4.124  15.394  20.747  0.00  0.00    +0.000 OA
ATOM     16  O   UNL     1      -5.604  13.591  19.835  0.00  0.00    +0.000 OA
BRANCH  14  17
ATOM     17  C   UNL     1      -4.792  13.448  22.288  0.00  0.00    +0.000 A 
ATOM     18  C   UNL     1      -3.760  13.204  23.190  0.00  0.00    +0.000 A 
ATOM     19  C   UNL     1      -4.061  12.578  24.406  0.00  0.00    +0.000 A 
ATOM     20  C   UNL     1      -5.372  12.271  24.750  0.00  0.00    +0.000 A 
ATOM     21  C   UNL     1      -6.418  12.696  23.932  0.00  0.00    +0.000 A 
ATOM     22  C   UNL     1      -6.129  13.289  22.700  0.00  0.00    +0.000 A 
ENDBRANCH  14  17
ENDBRANCH   7  14
BRANCH   1  23
ATOM     23  C   UNL     1       0.239  11.371  19.998  0.00  0.00    +0.000 C 
BRANCH  23  27
ATOM     24  C   UNL     1       0.248   9.360  23.348  0.00  0.00    +0.000 C 
ATOM     25  C   UNL     1       0.379   9.669  21.883  0.00  0.00    +0.000 C 
ATOM     26  C   UNL     1       0.808   8.549  20.976  0.00  0.00    +0.000 C 
ATOM     27  C   UNL     1       0.116  10.909  21.430  0.00  0.00    +0.000 C 
ENDBRANCH  23  27
ENDBRANCH   1  23
TORSDOF 4
ENDMDL
MODEL 7
REMARK VINA RESULT:      -6.7      1.808      2.406
REMARK  Name = 
REMARK  7 active torsions:
REMARK  status: ('A' for Active; 'I' for Inactive)
REMARK    1  A    between atoms: C_1  and  C_2
REMARK    2  A    between atoms: C_2  and  C_3
REMARK    3  A    between atoms: C_4  and  C_5
REMARK    4  A    between atoms: C_5  and  C_6
REMARK    5  A    between atoms: N_9  and  C_10
REMARK    6  A    between atoms: N_12  and  S_13
REMARK    7  A    between atoms: S_13  and  C_16
REMARK                            x       y       z     vdW  Elec       q    Type
REMARK                         _______ _______ _______ _____ _____    ______ ____
ROOT
ATOM      1  C   UNL     1      -1.012  12.037  19.066  0.00  0.00    +0.000 C 
ATOM      2  C   UNL     1      -0.626  13.502  18.763  0.00  0.00    +0.000 C 
ATOM      3  C   UNL     1      -0.207  14.076  20.101  0.00  0.00    +0.000 C 
ATOM      4  N   UNL     1      -0.472  13.021  21.071  0.00  0.00    +0.000 NA
ATOM      5  C   UNL     1      -0.645  13.527  22.406  0.00  0.00    +0.000 C 
ATOM      6  C   UNL     1      -1.477  12.078  20.579  0.00  0.00    +0.000 C 
ATOM      7  N   UNL     1      -2.944  12.373  20.485  0.00  0.00    +0.000 N 
ATOM      8  C   UNL     1      -3.387  11.920  19.191  0.00  0.00    +0.000 A 
ATOM      9  C   UNL     1      -4.661  11.714  18.696  0.00  0.00    +0.000 A 
ATOM     10  C   UNL     1      -4.802  11.297  17.368  0.00  0.00    +0.000 A 
ATOM     11  C   UNL     1      -3.697  11.125  16.526  0.00  0.00    +0.000 A 
ATOM     12  C   UNL     1      -2.407  11.353  17.019  0.00  0.00    +0.000 A 
ATOM     13  C   UNL     1      -2.283  11.713  18.354  0.00  0.00    +0.000 A 
ENDROOT
BRANCH   7  14
ATOM     14  S   UNL     1      -4.021  12.686  21.756  0.00  0.00    +0.000 S 
ATOM     15  O   UNL     1      -5.373  12.308  21.407  0.00  0.00    +0.000 OA
ATOM     16  O   UNL     1      -3.413  12.136  22.957  0.00  0.00    +0.000 OA
BRANCH  14  17
ATOM     17  C   UNL     1      -4.112  14.455  22.044  0.00  0.00    +0.000 A 
ATOM     18  C   UNL     1      -3.601  15.357  21.114  0.00  0.00    +0.000 A 
ATOM     19  C   UNL     1      -3.494  16.707  21.473  0.00  0.00    +0.000 A 
ATOM     20  C   UNL     1      -3.956  17.162  22.702  0.00  0.00    +0.000 A 
ATOM     21  C   UNL     1      -4.645  16.291  23.545  0.00  0.00    +0.000 A 
ATOM     22  C   UNL     1      -4.727  14.936  23.215  0.00  0.00    +0.000 A 
ENDBRANCH  14  17
ENDBRANCH   7  14
BRANCH   1  23
ATOM     23  C   UNL     1       0.193  11.107  18.774  0.00  0.00    +0.000 C 
BRANCH  23  27
ATOM     24  C   UNL     1       1.441   7.983  20.761  0.00  0.00    +0.000 C 
ATOM     25  C   UNL     1       1.247   8.957  19.634  0.00  0.00    +0.000 C 
ATOM     26  C   UNL     1       1.968   8.675  18.344  0.00  0.00    +0.000 C 
ATOM     27  C   UNL     1       0.452  10.031  19.801  0.00  0.00    +0.000 C 
ENDBRANCH  23  27
ENDBRANCH   1  23
TORSDOF 4
ENDMDL
MODEL 8
REMARK VINA RESULT:      -6.7      1.254      1.472
REMARK  Name = 
REMARK  7 active torsions:
REMARK  status: ('A' for Active; 'I' for Inactive)
REMARK    1  A    between atoms: C_1  and  C_2
REMARK    2  A    between atoms: C_2  and  C_3
REMARK    3  A    between atoms: C_4  and  C_5
REMARK    4  A    between atoms: C_5  and  C_6
REMARK    5  A    between atoms: N_9  and  C_10
REMARK    6  A    between atoms: N_12  and  S_13
REMARK    7  A    between atoms: S_13  and  C_16
REMARK                            x       y       z     vdW  Elec       q    Type
REMARK                         _______ _______ _______ _____ _____    ______ ____
ROOT
ATOM      1  C   UNL     1       0.199  10.939  19.364  0.00  0.00    +0.000 C 
ATOM      2  C   UNL     1       1.028  11.723  18.322  0.00  0.00    +0.000 C 
ATOM      3  C   UNL     1       1.920  12.631  19.142  0.00  0.00    +0.000 C 
ATOM      4  N   UNL     1       1.504  12.432  20.524  0.00  0.00    +0.000 NA
ATOM      5  C   UNL     1       1.836  13.547  21.369  0.00  0.00    +0.000 C 
ATOM      6  C   UNL     1       0.136  11.919  20.605  0.00  0.00    +0.000 C 
ATOM      7  N   UNL     1      -1.094  12.734  20.343  0.00  0.00    +0.000 N 
ATOM      8  C   UNL     1      -1.952  11.948  19.493  0.00  0.00    +0.000 A 
ATOM      9  C   UNL     1      -3.287  12.105  19.168  0.00  0.00    +0.000 A 
ATOM     10  C   UNL     1      -3.867  11.197  18.276  0.00  0.00    +0.000 A 
ATOM     11  C   UNL     1      -3.127  10.170  17.679  0.00  0.00    +0.000 A 
ATOM     12  C   UNL     1      -1.771  10.022  17.991  0.00  0.00    +0.000 A 
ATOM     13  C   UNL     1      -1.224  10.898  18.920  0.00  0.00    +0.000 A 
ENDROOT
BRANCH   7  14
ATOM     14  S   UNL     1      -1.661  14.066  21.224  0.00  0.00    +0.000 S 
ATOM     15  O   UNL     1      -0.680  14.518  22.186  0.00  0.00    +0.000 OA
ATOM     16  O   UNL     1      -2.194  15.008  20.252  0.00  0.00    +0.000 OA
BRANCH  14  17
ATOM     17  C   UNL     1      -3.070  13.573  22.219  0.00  0.00    +0.000 A 
ATOM     18  C   UNL     1      -4.328  14.133  22.003  0.00  0.00    +0.000 A 
ATOM     19  C   UNL     1      -5.344  13.887  22.935  0.00  0.00    +0.000 A 
ATOM     20  C   UNL     1      -5.136  13.041  24.018  0.00  0.00    +0.000 A 
ATOM     21  C   UNL     1      -3.941  12.331  24.119  0.00  0.00    +0.000 A 
ATOM     22  C   UNL     1      -2.907  12.594  23.216  0.00  0.00    +0.000 A 
ENDBRANCH  14  17
ENDBRANCH   7  14
BRANCH   1  23
ATOM     23  C   UNL     1       0.870   9.568  19.642  0.00  0.00    +0.000 C 
BRANCH  23  27
ATOM     24  C   UNL     1       3.248   7.458  17.371  0.00  0.00    +0.000 C 
ATOM     25  C   UNL     1       2.412   7.864  18.552  0.00  0.00    +0.000 C 
ATOM     26  C   UNL     1       2.336   6.905  19.708  0.00  0.00    +0.000 C 
ATOM     27  C   UNL     1       1.769   9.047  18.547  0.00  0.00    +0.000 C 
ENDBRANCH  23  27
ENDBRANCH   1  23
TORSDOF 4
ENDMDL
MODEL 9
REMARK VINA RESULT:      -6.6      2.539      4.062
REMARK  Name = 
REMARK  7 active torsions:
REMARK  status: ('A' for Active; 'I' for Inactive)
REMARK    1  A    between atoms: C_1  and  C_2
REMARK    2  A    between atoms: C_2  and  C_3
REMARK    3  A    between atoms: C_4  and  C_5
REMARK    4  A    between atoms: C_5  and  C_6
REMARK    5  A    between atoms: N_9  and  C_10
REMARK    6  A    between atoms: N_12  and  S_13
REMARK    7  A    between atoms: S_13  and  C_16
REMARK                            x       y       z     vdW  Elec       q    Type
REMARK                         _______ _______ _______ _____ _____    ______ ____
ROOT
ATOM      1  C   UNL     1      -1.553  12.905  20.293  0.00  0.00    +0.000 C 
ATOM      2  C   UNL     1      -1.331  14.289  19.643  0.00  0.00    +0.000 C 
ATOM      3  C   UNL     1      -2.045  15.264  20.557  0.00  0.00    +0.000 C 
ATOM      4  N   UNL     1      -2.707  14.437  21.558  0.00  0.00    +0.000 NA
ATOM      5  C   UNL     1      -3.829  15.098  22.169  0.00  0.00    +0.000 C 
ATOM      6  C   UNL     1      -2.920  13.073  21.073  0.00  0.00    +0.000 C 
ATOM      7  N   UNL     1      -3.951  12.684  20.057  0.00  0.00    +0.000 N 
ATOM      8  C   UNL     1      -3.305  11.815  19.106  0.00  0.00    +0.000 A 
ATOM      9  C   UNL     1      -3.837  10.982  18.140  0.00  0.00    +0.000 A 
ATOM     10  C   UNL     1      -2.959  10.266  17.319  0.00  0.00    +0.000 A 
ATOM     11  C   UNL     1      -1.570  10.403  17.424  0.00  0.00    +0.000 A 
ATOM     12  C   UNL     1      -1.030  11.262  18.387  0.00  0.00    +0.000 A 
ATOM     13  C   UNL     1      -1.913  11.923  19.229  0.00  0.00    +0.000 A 
ENDROOT
BRANCH   7  14
ATOM     14  S   UNL     1      -5.637  12.775  20.204  0.00  0.00    +0.000 S 
ATOM     15  O   UNL     1      -6.260  11.498  19.933  0.00  0.00    +0.000 OA
ATOM     16  O   UNL     1      -5.905  13.448  21.465  0.00  0.00    +0.000 OA
BRANCH  14  17
ATOM     17  C   UNL     1      -6.292  13.869  18.941  0.00  0.00    +0.000 A 
ATOM     18  C   UNL     1      -6.706  13.369  17.709  0.00  0.00    +0.000 A 
ATOM     19  C   UNL     1      -7.002  14.273  16.680  0.00  0.00    +0.000 A 
ATOM     20  C   UNL     1      -6.962  15.645  16.896  0.00  0.00    +0.000 A 
ATOM     21  C   UNL     1      -6.741  16.134  18.182  0.00  0.00    +0.000 A 
ATOM     22  C   UNL     1      -6.409  15.246  19.208  0.00  0.00    +0.000 A 
ENDBRANCH  14  17
ENDBRANCH   7  14
BRANCH   1  23
ATOM     23  C   UNL     1      -0.332  12.540  21.177  0.00  0.00    +0.000 C 
BRANCH  23  27
ATOM     24  C   UNL     1      -0.342   9.296  23.354  0.00  0.00    +0.000 C 
ATOM     25  C   UNL     1      -0.038  10.241  22.226  0.00  0.00    +0.000 C 
ATOM     26  C   UNL     1       0.870   9.748  21.135  0.00  0.00    +0.000 C 
ATOM     27  C   UNL     1      -0.575  11.477  22.220  0.00  0.00    +0.000 C 
ENDBRANCH  23  27
ENDBRANCH   1  23
TORSDOF 4
ENDMDL
