MODEL 1
REMARK VINA RESULT:      -7.4      0.000      0.000
REMARK  Name = 
REMARK  9 active torsions:
REMARK  status: ('A' for Active; 'I' for Inactive)
REMARK    1  A    between atoms: C_1  and  C_2
REMARK    2  A    between atoms: C_2  and  O_3
REMARK    3  A    between atoms: O_3  and  C_4
REMARK    4  A    between atoms: C_4  and  C_6
REMARK    5  A    between atoms: C_9  and  N_10
REMARK    6  A    between atoms: C_14  and  N_15
REMARK    7  A    between atoms: N_18  and  C_19
REMARK    8  A    between atoms: C_19  and  C_20
REMARK    9  A    between atoms: C_21  and  C_22
REMARK                            x       y       z     vdW  Elec       q    Type
REMARK                         _______ _______ _______ _____ _____    ______ ____
ROOT
ATOM      1  N   UNL     1       0.226   9.416  19.271  0.00  0.00    +0.000 N 
ATOM      2  C   UNL     1       0.423   8.813  20.485  0.00  0.00    +0.000 C 
ATOM      3  O   UNL     1      -0.315   8.780  21.461  0.00  0.00    +0.000 OA
ATOM      4  C   UNL     1       1.767   8.152  20.505  0.00  0.00    +0.000 C 
ATOM      5  C   UNL     1       2.302   8.271  19.081  0.00  0.00    +0.000 C 
ATOM      6  C   UNL     1       1.352   9.307  18.481  0.00  0.00    +0.000 C 
ATOM      7  O   UNL     1       1.626   9.968  17.482  0.00  0.00    +0.000 OA
ENDROOT
BRANCH   1  11
ATOM      8  C   UNL     1      -3.346  11.462  18.196  0.00  0.00    +0.000 A 
ATOM      9  C   UNL     1      -2.540  11.946  19.227  0.00  0.00    +0.000 A 
ATOM     10  C   UNL     1      -1.358  11.283  19.575  0.00  0.00    +0.000 A 
ATOM     11  C   UNL     1      -0.942  10.132  18.890  0.00  0.00    +0.000 A 
ATOM     12  C   UNL     1      -1.751   9.672  17.837  0.00  0.00    +0.000 A 
ATOM     13  C   UNL     1      -2.943  10.323  17.494  0.00  0.00    +0.000 A 
BRANCH   8  14
ATOM     14  C   UNL     1      -4.655  12.124  17.965  0.00  0.00    +0.000 C 
ATOM     15  O   UNL     1      -5.163  12.245  16.862  0.00  0.00    +0.000 OA
BRANCH  14  16
ATOM     16  O   UNL     1      -5.091  12.693  19.115  0.00  0.00    +0.000 OA
BRANCH  16  18
ATOM     17  C   UNL     1      -6.990  13.404  20.365  0.00  0.00    +0.000 C 
ATOM     18  C   UNL     1      -6.320  13.419  19.001  0.00  0.00    +0.000 C 
ENDBRANCH  16  18
ENDBRANCH  14  16
ENDBRANCH   8  14
ENDBRANCH   1  11
BRANCH   5  19
ATOM     19  N   UNL     1       2.284   7.014  18.281  0.00  0.00    +0.000 NA
ATOM     20  C   UNL     1       3.400   6.965  17.294  0.00  0.00    +0.000 C 
ATOM     21  C   UNL     1       4.804   6.756  17.914  0.00  0.00    +0.000 C 
ATOM     22  N   UNL     1       4.923   5.569  18.789  0.00  0.00    +0.000 NA
ATOM     23  C   UNL     1       3.792   5.547  19.740  0.00  0.00    +0.000 C 
ATOM     24  C   UNL     1       2.400   5.785  19.105  0.00  0.00    +0.000 C 
BRANCH  22  25
ATOM     25  C   UNL     1       4.980   4.316  18.025  0.00  0.00    +0.000 C 
BRANCH  25  26
ATOM     26  C   UNL     1       5.711   4.468  16.724  0.00  0.00    +0.000 C 
ATOM     27  C   UNL     1       5.181   4.131  15.538  0.00  0.00    +0.000 C 
BRANCH  27  28
ATOM     28  C   UNL     1       5.951   4.216  14.302  0.00  0.00    +0.000 A 
ATOM     29  C   UNL     1       5.549   3.460  13.199  0.00  0.00    +0.000 A 
ATOM     30  C   UNL     1       6.267   3.520  12.005  0.00  0.00    +0.000 A 
ATOM     31  C   UNL     1       7.391   4.337  11.911  0.00  0.00    +0.000 A 
ATOM     32  C   UNL     1       7.799   5.096  13.006  0.00  0.00    +0.000 A 
ATOM     33  C   UNL     1       7.083   5.037  14.204  0.00  0.00    +0.000 A 
ENDBRANCH  27  28
ENDBRANCH  25  26
ENDBRANCH  22  25
ENDBRANCH   5  19
TORSDOF 8
ENDMDL
MODEL 2
REMARK VINA RESULT:      -7.4      3.338     11.581
REMARK  Name = 
REMARK  9 active torsions:
REMARK  status: ('A' for Active; 'I' for Inactive)
REMARK    1  A    between atoms: C_1  and  C_2
REMARK    2  A    between atoms: C_2  and  O_3
REMARK    3  A    between atoms: O_3  and  C_4
REMARK    4  A    between atoms: C_4  and  C_6
REMARK    5  A    between atoms: C_9  and  N_10
REMARK    6  A    between atoms: C_14  and  N_15
REMARK    7  A    between atoms: N_18  and  C_19
REMARK    8  A    between atoms: C_19  and  C_20
REMARK    9  A    between atoms: C_21  and  C_22
REMARK                            x       y       z     vdW  Elec       q    Type
REMARK                         _______ _______ _______ _____ _____    ______ ____
ROOT
ATOM      1  N   UNL     1       3.094   5.898  18.655  0.00  0.00    +0.000 N 
ATOM      2  C   UNL     1       2.883   5.217  19.825  0.00  0.00    +0.000 C 
ATOM      3  O   UNL     1       3.449   4.218  20.250  0.00  0.00    +0.000 OA
ATOM      4  C   UNL     1       1.775   5.869  20.593  0.00  0.00    +0.000 C 
ATOM      5  C   UNL     1       1.448   7.149  19.831  0.00  0.00    +0.000 C 
ATOM      6  C   UNL     1       2.168   6.910  18.504  0.00  0.00    +0.000 C 
ATOM      7  O   UNL     1       1.882   7.507  17.470  0.00  0.00    +0.000 OA
ENDROOT
BRANCH   1  11
ATOM      8  C   UNL     1       5.928   4.939  15.631  0.00  0.00    +0.000 A 
ATOM      9  C   UNL     1       5.990   6.168  16.290  0.00  0.00    +0.000 A 
ATOM     10  C   UNL     1       5.067   6.482  17.295  0.00  0.00    +0.000 A 
ATOM     11  C   UNL     1       4.074   5.569  17.678  0.00  0.00    +0.000 A 
ATOM     12  C   UNL     1       4.041   4.326  17.023  0.00  0.00    +0.000 A 
ATOM     13  C   UNL     1       4.952   4.013  16.006  0.00  0.00    +0.000 A 
BRANCH   8  14
ATOM     14  C   UNL     1       6.843   4.719  14.481  0.00  0.00    +0.000 C 
ATOM     15  O   UNL     1       7.602   5.572  14.052  0.00  0.00    +0.000 OA
BRANCH  14  16
ATOM     16  O   UNL     1       6.581   3.518  13.912  0.00  0.00    +0.000 OA
BRANCH  16  18
ATOM     17  C   UNL     1       4.996   3.692  12.142  0.00  0.00    +0.000 C 
ATOM     18  C   UNL     1       6.468   3.539  12.484  0.00  0.00    +0.000 C 
ENDBRANCH  16  18
ENDBRANCH  14  16
ENDBRANCH   8  14
ENDBRANCH   1  11
BRANCH   5  19
ATOM     19  N   UNL     1       1.918   8.413  20.465  0.00  0.00    +0.000 NA
ATOM     20  C   UNL     1       1.529   9.613  19.672  0.00  0.00    +0.000 C 
ATOM     21  C   UNL     1       0.018   9.952  19.708  0.00  0.00    +0.000 C 
ATOM     22  N   UNL     1      -0.549  10.106  21.065  0.00  0.00    +0.000 NA
ATOM     23  C   UNL     1      -0.126   8.965  21.904  0.00  0.00    +0.000 C 
ATOM     24  C   UNL     1       1.382   8.624  21.833  0.00  0.00    +0.000 C 
BRANCH  22  25
ATOM     25  C   UNL     1      -0.161  11.378  21.692  0.00  0.00    +0.000 C 
BRANCH  25  26
ATOM     26  C   UNL     1      -1.334  12.280  21.934  0.00  0.00    +0.000 C 
ATOM     27  C   UNL     1      -1.836  12.524  23.155  0.00  0.00    +0.000 C 
BRANCH  27  28
ATOM     28  C   UNL     1      -3.028  13.342  23.346  0.00  0.00    +0.000 A 
ATOM     29  C   UNL     1      -4.232  12.931  22.770  0.00  0.00    +0.000 A 
ATOM     30  C   UNL     1      -5.387  13.695  22.934  0.00  0.00    +0.000 A 
ATOM     31  C   UNL     1      -5.342  14.874  23.674  0.00  0.00    +0.000 A 
ATOM     32  C   UNL     1      -4.145  15.290  24.254  0.00  0.00    +0.000 A 
ATOM     33  C   UNL     1      -2.985  14.529  24.090  0.00  0.00    +0.000 A 
ENDBRANCH  27  28
ENDBRANCH  25  26
ENDBRANCH  22  25
ENDBRANCH   5  19
TORSDOF 8
ENDMDL
MODEL 3
REMARK VINA RESULT:      -7.3      3.625     10.264
REMARK  Name = 
REMARK  9 active torsions:
REMARK  status: ('A' for Active; 'I' for Inactive)
REMARK    1  A    between atoms: C_1  and  C_2
REMARK    2  A    between atoms: C_2  and  O_3
REMARK    3  A    between atoms: O_3  and  C_4
REMARK    4  A    between atoms: C_4  and  C_6
REMARK    5  A    between atoms: C_9  and  N_10
REMARK    6  A    between atoms: C_14  and  N_15
REMARK    7  A    between atoms: N_18  and  C_19
REMARK    8  A    between atoms: C_19  and  C_20
REMARK    9  A    between atoms: C_21  and  C_22
REMARK                            x       y       z     vdW  Elec       q    Type
REMARK                         _______ _______ _______ _____ _____    ______ ____
ROOT
ATOM      1  N   UNL     1       3.027   6.017  18.784  0.00  0.00    +0.000 N 
ATOM      2  C   UNL     1       2.789   5.357  19.961  0.00  0.00    +0.000 C 
ATOM      3  O   UNL     1       3.332   4.355  20.408  0.00  0.00    +0.000 OA
ATOM      4  C   UNL     1       1.684   6.040  20.705  0.00  0.00    +0.000 C 
ATOM      5  C   UNL     1       1.389   7.315  19.920  0.00  0.00    +0.000 C 
ATOM      6  C   UNL     1       2.122   7.043  18.606  0.00  0.00    +0.000 C 
ATOM      7  O   UNL     1       1.860   7.630  17.559  0.00  0.00    +0.000 OA
ENDROOT
BRANCH   1  11
ATOM      8  C   UNL     1       5.881   4.960  15.811  0.00  0.00    +0.000 A 
ATOM      9  C   UNL     1       5.946   6.205  16.439  0.00  0.00    +0.000 A 
ATOM     10  C   UNL     1       5.017   6.551  17.427  0.00  0.00    +0.000 A 
ATOM     11  C   UNL     1       4.013   5.656  17.824  0.00  0.00    +0.000 A 
ATOM     12  C   UNL     1       3.976   4.397  17.201  0.00  0.00    +0.000 A 
ATOM     13  C   UNL     1       4.894   4.051  16.201  0.00  0.00    +0.000 A 
BRANCH   8  14
ATOM     14  C   UNL     1       6.803   4.704  14.676  0.00  0.00    +0.000 C 
ATOM     15  O   UNL     1       7.725   5.445  14.376  0.00  0.00    +0.000 OA
BRANCH  14  16
ATOM     16  O   UNL     1       6.364   3.641  13.959  0.00  0.00    +0.000 OA
BRANCH  16  18
ATOM     17  C   UNL     1       5.307   3.103  11.893  0.00  0.00    +0.000 C 
ATOM     18  C   UNL     1       6.511   3.768  12.540  0.00  0.00    +0.000 C 
ENDBRANCH  16  18
ENDBRANCH  14  16
ENDBRANCH   8  14
ENDBRANCH   1  11
BRANCH   5  19
ATOM     19  N   UNL     1       1.874   8.579  20.542  0.00  0.00    +0.000 NA
ATOM     20  C   UNL     1       1.540   9.772  19.713  0.00  0.00    +0.000 C 
ATOM     21  C   UNL     1       0.038  10.150  19.699  0.00  0.00    +0.000 C 
ATOM     22  N   UNL     1      -0.563  10.348  21.037  0.00  0.00    +0.000 NA
ATOM     23  C   UNL     1      -0.194   9.214  21.910  0.00  0.00    +0.000 C 
ATOM     24  C   UNL     1       1.307   8.833  21.889  0.00  0.00    +0.000 C 
BRANCH  22  25
ATOM     25  C   UNL     1      -0.159  11.621  21.648  0.00  0.00    +0.000 C 
BRANCH  25  26
ATOM     26  C   UNL     1       0.329  12.615  20.635  0.00  0.00    +0.000 C 
ATOM     27  C   UNL     1       1.436  13.355  20.805  0.00  0.00    +0.000 C 
BRANCH  27  28
ATOM     28  C   UNL     1       1.837  14.370  19.838  0.00  0.00    +0.000 A 
ATOM     29  C   UNL     1       1.252  15.636  19.900  0.00  0.00    +0.000 A 
ATOM     30  C   UNL     1       1.614  16.625  18.986  0.00  0.00    +0.000 A 
ATOM     31  C   UNL     1       2.563  16.350  18.005  0.00  0.00    +0.000 A 
ATOM     32  C   UNL     1       3.154  15.089  17.936  0.00  0.00    +0.000 A 
ATOM     33  C   UNL     1       2.792  14.096  18.849  0.00  0.00    +0.000 A 
ENDBRANCH  27  28
ENDBRANCH  25  26
ENDBRANCH  22  25
ENDBRANCH   5  19
TORSDOF 8
ENDMDL
MODEL 4
REMARK VINA RESULT:      -7.1      3.329     11.664
REMARK  Name = 
REMARK  9 active torsions:
REMARK  status: ('A' for Active; 'I' for Inactive)
REMARK    1  A    between atoms: C_1  and  C_2
REMARK    2  A    between atoms: C_2  and  O_3
REMARK    3  A    between atoms: O_3  and  C_4
REMARK    4  A    between atoms: C_4  and  C_6
REMARK    5  A    between atoms: C_9  and  N_10
REMARK    6  A    between atoms: C_14  and  N_15
REMARK    7  A    between atoms: N_18  and  C_19
REMARK    8  A    between atoms: C_19  and  C_20
REMARK    9  A    between atoms: C_21  and  C_22
REMARK                            x       y       z     vdW  Elec       q    Type
REMARK                         _______ _______ _______ _____ _____    ______ ____
ROOT
ATOM      1  N   UNL     1       3.015   5.928  18.626  0.00  0.00    +0.000 N 
ATOM      2  C   UNL     1       2.990   5.238  19.809  0.00  0.00    +0.000 C 
ATOM      3  O   UNL     1       3.661   4.275  20.156  0.00  0.00    +0.000 OA
ATOM      4  C   UNL     1       1.949   5.825  20.711  0.00  0.00    +0.000 C 
ATOM      5  C   UNL     1       1.456   7.083  20.002  0.00  0.00    +0.000 C 
ATOM      6  C   UNL     1       2.021   6.885  18.595  0.00  0.00    +0.000 C 
ATOM      7  O   UNL     1       1.576   7.463  17.608  0.00  0.00    +0.000 OA
ENDROOT
BRANCH   1  11
ATOM      8  C   UNL     1       5.726   5.119  15.449  0.00  0.00    +0.000 A 
ATOM      9  C   UNL     1       4.942   4.096  15.983  0.00  0.00    +0.000 A 
ATOM     10  C   UNL     1       4.040   4.361  17.020  0.00  0.00    +0.000 A 
ATOM     11  C   UNL     1       3.885   5.656  17.534  0.00  0.00    +0.000 A 
ATOM     12  C   UNL     1       4.663   6.681  16.968  0.00  0.00    +0.000 A 
ATOM     13  C   UNL     1       5.578   6.419  15.941  0.00  0.00    +0.000 A 
BRANCH   8  14
ATOM     14  C   UNL     1       6.764   4.754  14.451  0.00  0.00    +0.000 C 
ATOM     15  O   UNL     1       7.776   5.408  14.262  0.00  0.00    +0.000 OA
BRANCH  14  16
ATOM     16  O   UNL     1       6.332   3.709  13.703  0.00  0.00    +0.000 OA
BRANCH  16  18
ATOM     17  C   UNL     1       6.299   2.436  11.690  0.00  0.00    +0.000 C 
ATOM     18  C   UNL     1       6.741   3.741  12.330  0.00  0.00    +0.000 C 
ENDBRANCH  16  18
ENDBRANCH  14  16
ENDBRANCH   8  14
ENDBRANCH   1  11
BRANCH   5  19
ATOM     19  N   UNL     1       1.926   8.373  20.582  0.00  0.00    +0.000 NA
ATOM     20  C   UNL     1       1.546   9.537  19.732  0.00  0.00    +0.000 C 
ATOM     21  C   UNL     1       0.035   9.882  19.744  0.00  0.00    +0.000 C 
ATOM     22  N   UNL     1      -0.539  10.098  21.090  0.00  0.00    +0.000 NA
ATOM     23  C   UNL     1      -0.124   8.995  21.982  0.00  0.00    +0.000 C 
ATOM     24  C   UNL     1       1.384   8.647  21.935  0.00  0.00    +0.000 C 
BRANCH  22  25
ATOM     25  C   UNL     1      -0.150  11.396  21.661  0.00  0.00    +0.000 C 
BRANCH  25  26
ATOM     26  C   UNL     1      -1.330  12.285  21.920  0.00  0.00    +0.000 C 
ATOM     27  C   UNL     1      -1.912  12.403  23.124  0.00  0.00    +0.000 C 
BRANCH  27  28
ATOM     28  C   UNL     1      -3.108  13.214  23.323  0.00  0.00    +0.000 A 
ATOM     29  C   UNL     1      -4.241  12.625  23.886  0.00  0.00    +0.000 A 
ATOM     30  C   UNL     1      -5.400  13.376  24.085  0.00  0.00    +0.000 A 
ATOM     31  C   UNL     1      -5.429  14.719  23.719  0.00  0.00    +0.000 A 
ATOM     32  C   UNL     1      -4.301  15.316  23.157  0.00  0.00    +0.000 A 
ATOM     33  C   UNL     1      -3.140  14.566  22.955  0.00  0.00    +0.000 A 
ENDBRANCH  27  28
ENDBRANCH  25  26
ENDBRANCH  22  25
ENDBRANCH   5  19
TORSDOF 8
ENDMDL
MODEL 5
REMARK VINA RESULT:      -7.0      3.810      5.910
REMARK  Name = 
REMARK  9 active torsions:
REMARK  status: ('A' for Active; 'I' for Inactive)
REMARK    1  A    between atoms: C_1  and  C_2
REMARK    2  A    between atoms: C_2  and  O_3
REMARK    3  A    between atoms: O_3  and  C_4
REMARK    4  A    between atoms: C_4  and  C_6
REMARK    5  A    between atoms: C_9  and  N_10
REMARK    6  A    between atoms: C_14  and  N_15
REMARK    7  A    between atoms: N_18  and  C_19
REMARK    8  A    between atoms: C_19  and  C_20
REMARK    9  A    between atoms: C_21  and  C_22
REMARK                            x       y       z     vdW  Elec       q    Type
REMARK                         _______ _______ _______ _____ _____    ______ ____
ROOT
ATOM      1  N   UNL     1      -2.179  12.992  20.334  0.00  0.00    +0.000 N 
ATOM      2  C   UNL     1      -1.298  14.030  20.179  0.00  0.00    +0.000 C 
ATOM      3  O   UNL     1      -1.321  15.145  20.683  0.00  0.00    +0.000 OA
ATOM      4  C   UNL     1      -0.214  13.629  19.227  0.00  0.00    +0.000 C 
ATOM      5  C   UNL     1      -0.439  12.145  18.952  0.00  0.00    +0.000 C 
ATOM      6  C   UNL     1      -1.850  11.940  19.504  0.00  0.00    +0.000 C 
ATOM      7  O   UNL     1      -2.568  11.001  19.174  0.00  0.00    +0.000 OA
ENDROOT
BRANCH   1  11
ATOM      8  C   UNL     1      -5.643  12.908  22.804  0.00  0.00    +0.000 A 
ATOM      9  C   UNL     1      -4.370  12.902  23.376  0.00  0.00    +0.000 A 
ATOM     10  C   UNL     1      -3.228  12.943  22.567  0.00  0.00    +0.000 A 
ATOM     11  C   UNL     1      -3.330  13.010  21.170  0.00  0.00    +0.000 A 
ATOM     12  C   UNL     1      -4.619  13.041  20.610  0.00  0.00    +0.000 A 
ATOM     13  C   UNL     1      -5.765  12.985  21.414  0.00  0.00    +0.000 A 
BRANCH   8  14
ATOM     14  C   UNL     1      -6.811  12.722  23.702  0.00  0.00    +0.000 C 
ATOM     15  O   UNL     1      -7.457  11.689  23.760  0.00  0.00    +0.000 OA
BRANCH  14  16
ATOM     16  O   UNL     1      -7.124  13.899  24.296  0.00  0.00    +0.000 OA
BRANCH  16  18
ATOM     17  C   UNL     1      -7.225  16.141  23.496  0.00  0.00    +0.000 C 
ATOM     18  C   UNL     1      -7.914  14.787  23.496  0.00  0.00    +0.000 C 
ENDBRANCH  16  18
ENDBRANCH  14  16
ENDBRANCH   8  14
ENDBRANCH   1  11
BRANCH   5  19
ATOM     19  N   UNL     1       0.524  11.216  19.610  0.00  0.00    +0.000 NA
ATOM     20  C   UNL     1       0.218   9.790  19.306  0.00  0.00    +0.000 C 
ATOM     21  C   UNL     1       0.525   9.357  17.851  0.00  0.00    +0.000 C 
ATOM     22  N   UNL     1       1.910   9.626  17.405  0.00  0.00    +0.000 NA
ATOM     23  C   UNL     1       2.274  11.016  17.753  0.00  0.00    +0.000 C 
ATOM     24  C   UNL     1       1.933  11.439  19.203  0.00  0.00    +0.000 C 
BRANCH  22  25
ATOM     25  C   UNL     1       2.876   8.681  17.982  0.00  0.00    +0.000 C 
BRANCH  25  26
ATOM     26  C   UNL     1       2.277   7.329  18.235  0.00  0.00    +0.000 C 
ATOM     27  C   UNL     1       2.816   6.430  19.073  0.00  0.00    +0.000 C 
BRANCH  27  28
ATOM     28  C   UNL     1       2.251   5.094  19.232  0.00  0.00    +0.000 A 
ATOM     29  C   UNL     1       1.750   4.714  20.479  0.00  0.00    +0.000 A 
ATOM     30  C   UNL     1       1.207   3.442  20.661  0.00  0.00    +0.000 A 
ATOM     31  C   UNL     1       1.164   2.546  19.595  0.00  0.00    +0.000 A 
ATOM     32  C   UNL     1       1.661   2.918  18.347  0.00  0.00    +0.000 A 
ATOM     33  C   UNL     1       2.208   4.190  18.162  0.00  0.00    +0.000 A 
ENDBRANCH  27  28
ENDBRANCH  25  26
ENDBRANCH  22  25
ENDBRANCH   5  19
TORSDOF 8
ENDMDL
MODEL 6
REMARK VINA RESULT:      -7.0      3.623     10.266
REMARK  Name = 
REMARK  9 active torsions:
REMARK  status: ('A' for Active; 'I' for Inactive)
REMARK    1  A    between atoms: C_1  and  C_2
REMARK    2  A    between atoms: C_2  and  O_3
REMARK    3  A    between atoms: O_3  and  C_4
REMARK    4  A    between atoms: C_4  and  C_6
REMARK    5  A    between atoms: C_9  and  N_10
REMARK    6  A    between atoms: C_14  and  N_15
REMARK    7  A    between atoms: N_18  and  C_19
REMARK    8  A    between atoms: C_19  and  C_20
REMARK    9  A    between atoms: C_21  and  C_22
REMARK                            x       y       z     vdW  Elec       q    Type
REMARK                         _______ _______ _______ _____ _____    ______ ____
ROOT
ATOM      1  N   UNL     1       2.970   6.055  18.671  0.00  0.00    +0.000 N 
ATOM      2  C   UNL     1       2.886   5.369  19.853  0.00  0.00    +0.000 C 
ATOM      3  O   UNL     1       3.520   4.390  20.225  0.00  0.00    +0.000 OA
ATOM      4  C   UNL     1       1.830   5.985  20.718  0.00  0.00    +0.000 C 
ATOM      5  C   UNL     1       1.394   7.253  19.990  0.00  0.00    +0.000 C 
ATOM      6  C   UNL     1       2.001   7.036  18.604  0.00  0.00    +0.000 C 
ATOM      7  O   UNL     1       1.605   7.623  17.601  0.00  0.00    +0.000 OA
ENDROOT
BRANCH   1  11
ATOM      8  C   UNL     1       5.765   5.159  15.591  0.00  0.00    +0.000 A 
ATOM      9  C   UNL     1       4.880   4.180  16.046  0.00  0.00    +0.000 A 
ATOM     10  C   UNL     1       3.951   4.475  17.050  0.00  0.00    +0.000 A 
ATOM     11  C   UNL     1       3.869   5.758  17.610  0.00  0.00    +0.000 A 
ATOM     12  C   UNL     1       4.748   6.740  17.123  0.00  0.00    +0.000 A 
ATOM     13  C   UNL     1       5.691   6.447  16.129  0.00  0.00    +0.000 A 
BRANCH   8  14
ATOM     14  C   UNL     1       6.819   4.753  14.628  0.00  0.00    +0.000 C 
ATOM     15  O   UNL     1       7.780   5.450  14.347  0.00  0.00    +0.000 OA
BRANCH  14  16
ATOM     16  O   UNL     1       6.460   3.598  14.015  0.00  0.00    +0.000 OA
BRANCH  16  18
ATOM     17  C   UNL     1       5.047   3.469  12.102  0.00  0.00    +0.000 C 
ATOM     18  C   UNL     1       6.477   3.645  12.583  0.00  0.00    +0.000 C 
ENDBRANCH  16  18
ENDBRANCH  14  16
ENDBRANCH   8  14
ENDBRANCH   1  11
BRANCH   5  19
ATOM     19  N   UNL     1       1.877   8.532  20.583  0.00  0.00    +0.000 NA
ATOM     20  C   UNL     1       1.492   9.710  19.756  0.00  0.00    +0.000 C 
ATOM     21  C   UNL     1      -0.017  10.061  19.791  0.00  0.00    +0.000 C 
ATOM     22  N   UNL     1      -0.573  10.261  21.147  0.00  0.00    +0.000 NA
ATOM     23  C   UNL     1      -0.154   9.142  22.018  0.00  0.00    +0.000 C 
ATOM     24  C   UNL     1       1.352   8.788  21.947  0.00  0.00    +0.000 C 
BRANCH  22  25
ATOM     25  C   UNL     1      -0.173  11.548  21.732  0.00  0.00    +0.000 C 
BRANCH  25  26
ATOM     26  C   UNL     1       0.546  12.425  20.751  0.00  0.00    +0.000 C 
ATOM     27  C   UNL     1       0.825  13.718  20.985  0.00  0.00    +0.000 C 
BRANCH  27  28
ATOM     28  C   UNL     1       1.452  14.563  19.976  0.00  0.00    +0.000 A 
ATOM     29  C   UNL     1       2.341  13.988  19.066  0.00  0.00    +0.000 A 
ATOM     30  C   UNL     1       2.958  14.773  18.093  0.00  0.00    +0.000 A 
ATOM     31  C   UNL     1       2.687  16.137  18.026  0.00  0.00    +0.000 A 
ATOM     32  C   UNL     1       1.799  16.719  18.929  0.00  0.00    +0.000 A 
ATOM     33  C   UNL     1       1.182  15.936  19.907  0.00  0.00    +0.000 A 
ENDBRANCH  27  28
ENDBRANCH  25  26
ENDBRANCH  22  25
ENDBRANCH   5  19
TORSDOF 8
ENDMDL
MODEL 7
REMARK VINA RESULT:      -7.0      3.677     11.559
REMARK  Name = 
REMARK  9 active torsions:
REMARK  status: ('A' for Active; 'I' for Inactive)
REMARK    1  A    between atoms: C_1  and  C_2
REMARK    2  A    between atoms: C_2  and  O_3
REMARK    3  A    between atoms: O_3  and  C_4
REMARK    4  A    between atoms: C_4  and  C_6
REMARK    5  A    between atoms: C_9  and  N_10
REMARK    6  A    between atoms: C_14  and  N_15
REMARK    7  A    between atoms: N_18  and  C_19
REMARK    8  A    between atoms: C_19  and  C_20
REMARK    9  A    between atoms: C_21  and  C_22
REMARK                            x       y       z     vdW  Elec       q    Type
REMARK                         _______ _______ _______ _____ _____    ______ ____
ROOT
ATOM      1  N   UNL     1       3.169   6.111  18.642  0.00  0.00    +0.000 N 
ATOM      2  C   UNL     1       2.992   5.548  19.879  0.00  0.00    +0.000 C 
ATOM      3  O   UNL     1       3.589   4.612  20.393  0.00  0.00    +0.000 OA
ATOM      4  C   UNL     1       1.880   6.249  20.596  0.00  0.00    +0.000 C 
ATOM      5  C   UNL     1       1.509   7.437  19.713  0.00  0.00    +0.000 C 
ATOM      6  C   UNL     1       2.216   7.081  18.405  0.00  0.00    +0.000 C 
ATOM      7  O   UNL     1       1.900   7.563  17.320  0.00  0.00    +0.000 OA
ENDROOT
BRANCH   1  11
ATOM      8  C   UNL     1       5.989   4.938  15.681  0.00  0.00    +0.000 A 
ATOM      9  C   UNL     1       6.139   6.151  16.356  0.00  0.00    +0.000 A 
ATOM     10  C   UNL     1       5.220   6.534  17.340  0.00  0.00    +0.000 A 
ATOM     11  C   UNL     1       4.142   5.708  17.687  0.00  0.00    +0.000 A 
ATOM     12  C   UNL     1       4.019   4.478  17.017  0.00  0.00    +0.000 A 
ATOM     13  C   UNL     1       4.927   4.097  16.021  0.00  0.00    +0.000 A 
BRANCH   8  14
ATOM     14  C   UNL     1       6.911   4.650  14.553  0.00  0.00    +0.000 C 
ATOM     15  O   UNL     1       7.814   5.397  14.213  0.00  0.00    +0.000 OA
BRANCH  14  16
ATOM     16  O   UNL     1       6.492   3.545  13.890  0.00  0.00    +0.000 OA
BRANCH  16  18
ATOM     17  C   UNL     1       5.072   3.297  11.993  0.00  0.00    +0.000 C 
ATOM     18  C   UNL     1       6.467   3.671  12.463  0.00  0.00    +0.000 C 
ENDBRANCH  16  18
ENDBRANCH  14  16
ENDBRANCH   8  14
ENDBRANCH   1  11
BRANCH   5  19
ATOM     19  N   UNL     1       1.957   8.770  20.208  0.00  0.00    +0.000 NA
ATOM     20  C   UNL     1       1.798   9.830  19.173  0.00  0.00    +0.000 C 
ATOM     21  C   UNL     1       0.331  10.237  18.882  0.00  0.00    +0.000 C 
ATOM     22  N   UNL     1      -0.444  10.648  20.073  0.00  0.00    +0.000 NA
ATOM     23  C   UNL     1      -0.255   9.651  21.148  0.00  0.00    +0.000 C 
ATOM     24  C   UNL     1       1.214   9.237  21.405  0.00  0.00    +0.000 C 
BRANCH  22  25
ATOM     25  C   UNL     1      -0.075  11.990  20.544  0.00  0.00    +0.000 C 
BRANCH  25  26
ATOM     26  C   UNL     1      -0.969  12.477  21.646  0.00  0.00    +0.000 C 
ATOM     27  C   UNL     1      -0.768  13.632  22.300  0.00  0.00    +0.000 C 
BRANCH  27  28
ATOM     28  C   UNL     1      -1.608  14.035  23.422  0.00  0.00    +0.000 A 
ATOM     29  C   UNL     1      -1.116  14.968  24.337  0.00  0.00    +0.000 A 
ATOM     30  C   UNL     1      -1.897  15.369  25.421  0.00  0.00    +0.000 A 
ATOM     31  C   UNL     1      -3.173  14.838  25.593  0.00  0.00    +0.000 A 
ATOM     32  C   UNL     1      -3.672  13.908  24.683  0.00  0.00    +0.000 A 
ATOM     33  C   UNL     1      -2.892  13.502  23.598  0.00  0.00    +0.000 A 
ENDBRANCH  27  28
ENDBRANCH  25  26
ENDBRANCH  22  25
ENDBRANCH   5  19
TORSDOF 8
ENDMDL
MODEL 8
REMARK VINA RESULT:      -6.9      3.949      6.721
REMARK  Name = 
REMARK  9 active torsions:
REMARK  status: ('A' for Active; 'I' for Inactive)
REMARK    1  A    between atoms: C_1  and  C_2
REMARK    2  A    between atoms: C_2  and  O_3
REMARK    3  A    between atoms: O_3  and  C_4
REMARK    4  A    between atoms: C_4  and  C_6
REMARK    5  A    between atoms: C_9  and  N_10
REMARK    6  A    between atoms: C_14  and  N_15
REMARK    7  A    between atoms: N_18  and  C_19
REMARK    8  A    between atoms: C_19  and  C_20
REMARK    9  A    between atoms: C_21  and  C_22
REMARK                            x       y       z     vdW  Elec       q    Type
REMARK                         _______ _______ _______ _____ _____    ______ ____
ROOT
ATOM      1  N   UNL     1       2.989   5.328  18.589  0.00  0.00    +0.000 N 
ATOM      2  C   UNL     1       2.409   4.421  17.742  0.00  0.00    +0.000 C 
ATOM      3  O   UNL     1       1.258   4.377  17.327  0.00  0.00    +0.000 OA
ATOM      4  C   UNL     1       3.415   3.381  17.355  0.00  0.00    +0.000 C 
ATOM      5  C   UNL     1       4.743   3.864  17.929  0.00  0.00    +0.000 C 
ATOM      6  C   UNL     1       4.283   4.957  18.893  0.00  0.00    +0.000 C 
ATOM      7  O   UNL     1       4.973   5.362  19.825  0.00  0.00    +0.000 OA
ENDROOT
BRANCH   1  11
ATOM      8  C   UNL     1       1.155   8.738  20.352  0.00  0.00    +0.000 A 
ATOM      9  C   UNL     1       1.603   8.784  19.032  0.00  0.00    +0.000 A 
ATOM     10  C   UNL     1       2.196   7.660  18.444  0.00  0.00    +0.000 A 
ATOM     11  C   UNL     1       2.336   6.459  19.154  0.00  0.00    +0.000 A 
ATOM     12  C   UNL     1       1.856   6.420  20.474  0.00  0.00    +0.000 A 
ATOM     13  C   UNL     1       1.277   7.547  21.073  0.00  0.00    +0.000 A 
BRANCH   8  14
ATOM     14  C   UNL     1       0.665   9.998  20.966  0.00  0.00    +0.000 C 
ATOM     15  O   UNL     1       0.279  10.958  20.317  0.00  0.00    +0.000 OA
BRANCH  14  16
ATOM     16  O   UNL     1       0.868   9.965  22.305  0.00  0.00    +0.000 OA
BRANCH  16  18
ATOM     17  C   UNL     1      -1.150  10.962  23.085  0.00  0.00    +0.000 C 
ATOM     18  C   UNL     1      -0.304   9.701  23.087  0.00  0.00    +0.000 C 
ENDBRANCH  16  18
ENDBRANCH  14  16
ENDBRANCH   8  14
ENDBRANCH   1  11
BRANCH   5  19
ATOM     19  N   UNL     1       5.711   4.411  16.936  0.00  0.00    +0.000 NA
ATOM     20  C   UNL     1       5.317   5.767  16.462  0.00  0.00    +0.000 C 
ATOM     21  C   UNL     1       5.488   6.895  17.510  0.00  0.00    +0.000 C 
ATOM     22  N   UNL     1       6.844   6.997  18.092  0.00  0.00    +0.000 NA
ATOM     23  C   UNL     1       7.298   5.655  18.513  0.00  0.00    +0.000 C 
ATOM     24  C   UNL     1       7.093   4.536  17.463  0.00  0.00    +0.000 C 
BRANCH  22  25
ATOM     25  C   UNL     1       7.808   7.599  17.161  0.00  0.00    +0.000 C 
BRANCH  25  26
ATOM     26  C   UNL     1       8.250   8.965  17.596  0.00  0.00    +0.000 C 
ATOM     27  C   UNL     1       8.905   9.196  18.745  0.00  0.00    +0.000 C 
BRANCH  27  28
ATOM     28  C   UNL     1       9.248  10.547  19.175  0.00  0.00    +0.000 A 
ATOM     29  C   UNL     1       9.378  11.552  18.215  0.00  0.00    +0.000 A 
ATOM     30  C   UNL     1       9.707  12.852  18.598  0.00  0.00    +0.000 A 
ATOM     31  C   UNL     1       9.908  13.150  19.944  0.00  0.00    +0.000 A 
ATOM     32  C   UNL     1       9.779  12.153  20.909  0.00  0.00    +0.000 A 
ATOM     33  C   UNL     1       9.452  10.849  20.528  0.00  0.00    +0.000 A 
ENDBRANCH  27  28
ENDBRANCH  25  26
ENDBRANCH  22  25
ENDBRANCH   5  19
TORSDOF 8
ENDMDL
MODEL 9
REMARK VINA RESULT:      -6.8      3.912     11.120
REMARK  Name = 
REMARK  9 active torsions:
REMARK  status: ('A' for Active; 'I' for Inactive)
REMARK    1  A    between atoms: C_1  and  C_2
REMARK    2  A    between atoms: C_2  and  O_3
REMARK    3  A    between atoms: O_3  and  C_4
REMARK    4  A    between atoms: C_4  and  C_6
REMARK    5  A    between atoms: C_9  and  N_10
REMARK    6  A    between atoms: C_14  and  N_15
REMARK    7  A    between atoms: N_18  and  C_19
REMARK    8  A    between atoms: C_19  and  C_20
REMARK    9  A    between atoms: C_21  and  C_22
REMARK                            x       y       z     vdW  Elec       q    Type
REMARK                         _______ _______ _______ _____ _____    ______ ____
ROOT
ATOM      1  N   UNL     1       1.903   8.263  19.582  0.00  0.00    +0.000 N 
ATOM      2  C   UNL     1       1.800   8.944  18.398  0.00  0.00    +0.000 C 
ATOM      3  O   UNL     1       2.128   8.591  17.272  0.00  0.00    +0.000 OA
ATOM      4  C   UNL     1       1.205  10.296  18.646  0.00  0.00    +0.000 C 
ATOM      5  C   UNL     1       0.788  10.296  20.113  0.00  0.00    +0.000 C 
ATOM      6  C   UNL     1       1.517   9.060  20.640  0.00  0.00    +0.000 C 
ATOM      7  O   UNL     1       1.758   8.882  21.831  0.00  0.00    +0.000 OA
ENDROOT
BRANCH   1  11
ATOM      8  C   UNL     1       3.328   4.271  19.947  0.00  0.00    +0.000 A 
ATOM      9  C   UNL     1       3.946   5.161  19.069  0.00  0.00    +0.000 A 
ATOM     10  C   UNL     1       3.488   6.480  18.955  0.00  0.00    +0.000 A 
ATOM     11  C   UNL     1       2.416   6.945  19.730  0.00  0.00    +0.000 A 
ATOM     12  C   UNL     1       1.820   6.044  20.629  0.00  0.00    +0.000 A 
ATOM     13  C   UNL     1       2.264   4.719  20.735  0.00  0.00    +0.000 A 
BRANCH   8  14
ATOM     14  C   UNL     1       3.764   2.852  19.923  0.00  0.00    +0.000 C 
ATOM     15  O   UNL     1       4.935   2.507  19.941  0.00  0.00    +0.000 OA
BRANCH  14  16
ATOM     16  O   UNL     1       2.694   2.046  19.718  0.00  0.00    +0.000 OA
BRANCH  16  18
ATOM     17  C   UNL     1       0.621   2.351  18.584  0.00  0.00    +0.000 C 
ATOM     18  C   UNL     1       2.114   2.135  18.410  0.00  0.00    +0.000 C 
ENDBRANCH  16  18
ENDBRANCH  14  16
ENDBRANCH   8  14
ENDBRANCH   1  11
BRANCH   5  19
ATOM     19  N   UNL     1      -0.678  10.190  20.364  0.00  0.00    +0.000 NA
ATOM     20  C   UNL     1      -1.022  10.478  21.785  0.00  0.00    +0.000 C 
ATOM     21  C   UNL     1      -0.881  11.965  22.198  0.00  0.00    +0.000 C 
ATOM     22  N   UNL     1      -1.634  12.915  21.350  0.00  0.00    +0.000 NA
ATOM     23  C   UNL     1      -1.371  12.615  19.927  0.00  0.00    +0.000 C 
ATOM     24  C   UNL     1      -1.488  11.121  19.540  0.00  0.00    +0.000 C 
BRANCH  22  25
ATOM     25  C   UNL     1      -3.077  12.886  21.624  0.00  0.00    +0.000 C 
BRANCH  25  26
ATOM     26  C   UNL     1      -3.900  13.132  20.394  0.00  0.00    +0.000 C 
ATOM     27  C   UNL     1      -5.121  13.691  20.424  0.00  0.00    +0.000 C 
BRANCH  27  28
ATOM     28  C   UNL     1      -5.927  13.840  19.218  0.00  0.00    +0.000 A 
ATOM     29  C   UNL     1      -6.019  12.770  18.327  0.00  0.00    +0.000 A 
ATOM     30  C   UNL     1      -6.780  12.886  17.164  0.00  0.00    +0.000 A 
ATOM     31  C   UNL     1      -7.452  14.074  16.889  0.00  0.00    +0.000 A 
ATOM     32  C   UNL     1      -7.367  15.147  17.774  0.00  0.00    +0.000 A 
ATOM     33  C   UNL     1      -6.603  15.035  18.938  0.00  0.00    +0.000 A 
ENDBRANCH  27  28
ENDBRANCH  25  26
ENDBRANCH  22  25
ENDBRANCH   5  19
TORSDOF 8
ENDMDL
