MODEL 1
REMARK VINA RESULT:      -8.8      0.000      0.000
REMARK  Name = 
REMARK  7 active torsions:
REMARK  status: ('A' for Active; 'I' for Inactive)
REMARK    1  A    between atoms: C_1  and  C_2
REMARK    2  A    between atoms: C_2  and  N_3
REMARK    3  A    between atoms: C_2  and  C_12
REMARK    4  A    between atoms: N_14  and  N_15
REMARK    5  A    between atoms: N_15  and  C_16
REMARK    6  A    between atoms: C_16  and  C_17
REMARK    7  A    between atoms: N_22  and  C_23
REMARK                            x       y       z     vdW  Elec       q    Type
REMARK                         _______ _______ _______ _____ _____    ______ ____
ROOT
ATOM      1  N   UNL     1       1.080   9.676  19.818  0.00  0.00    +0.000 N 
ATOM      2  C   UNL     1       1.656   8.755  18.931  0.00  0.00    +0.000 C 
ATOM      3  O   UNL     1       1.740   9.012  17.731  0.00  0.00    +0.000 OA
ATOM      4  N   UNL     1       2.100   7.594  19.540  0.00  0.00    +0.000 N 
ATOM      5  H   UNL     1       1.745   7.433  20.468  0.00  0.00    +0.000 HD
ENDROOT
BRANCH   4   6
ATOM      6  C   UNL     1       2.712   6.471  18.914  0.00  0.00    +0.000 A 
ATOM      7  C   UNL     1       3.661   6.640  17.897  0.00  0.00    +0.000 A 
ATOM      8  C   UNL     1       4.198   5.550  17.219  0.00  0.00    +0.000 A 
ATOM      9  C   UNL     1       3.802   4.264  17.556  0.00  0.00    +0.000 A 
ATOM     10  C   UNL     1       2.887   4.045  18.593  0.00  0.00    +0.000 A 
ATOM     11  C   UNL     1       2.523   2.728  18.913  0.00  0.00    +0.000 A 
ATOM     12  C   UNL     1       1.632   2.459  19.948  0.00  0.00    +0.000 A 
ATOM     13  C   UNL     1       1.099   3.508  20.682  0.00  0.00    +0.000 A 
ATOM     14  C   UNL     1       1.443   4.828  20.369  0.00  0.00    +0.000 A 
ATOM     15  C   UNL     1       2.336   5.144  19.309  0.00  0.00    +0.000 A 
ENDBRANCH   4   6
BRANCH   1  18
ATOM     16  C   UNL     1      -0.832  10.823  18.854  0.00  0.00    +0.000 C 
ATOM     17  O   UNL     1      -1.611   9.905  19.132  0.00  0.00    +0.000 OA
ATOM     18  N   UNL     1       0.496  10.841  19.252  0.00  0.00    +0.000 N 
ATOM     19  H   UNL     1       1.117  11.600  19.001  0.00  0.00    +0.000 HD
BRANCH  16  21
ATOM     20  C   UNL     1      -0.553  13.405  18.347  0.00  0.00    +0.000 C 
ATOM     21  C   UNL     1      -1.367  12.123  18.209  0.00  0.00    +0.000 C 
BRANCH  21  22
ATOM     22  N   UNL     1      -2.745  12.319  18.648  0.00  0.00    +0.000 N 
ATOM     23  C   UNL     1      -3.798  11.849  17.904  0.00  0.00    +0.000 C 
ATOM     24  O   UNL     1      -3.656  11.323  16.805  0.00  0.00    +0.000 OA
ATOM     25  N   UNL     1      -5.025  12.069  18.496  0.00  0.00    +0.000 N 
ATOM     26  C   UNL     1      -6.230  11.722  17.747  0.00  0.00    +0.000 C 
ATOM     27  C   UNL     1      -7.414  12.561  18.232  0.00  0.00    +0.000 C 
ATOM     28  O   UNL     1      -7.603  12.418  19.649  0.00  0.00    +0.000 OA
ATOM     29  C   UNL     1      -6.437  12.843  20.362  0.00  0.00    +0.000 C 
ATOM     30  C   UNL     1      -5.207  12.036  19.952  0.00  0.00    +0.000 C 
ATOM     31  H   UNL     1      -2.930  13.230  19.048  0.00  0.00    +0.000 HD
ENDBRANCH  21  22
ENDBRANCH  16  21
ENDBRANCH   1  18
BRANCH   1  32
ATOM     32  C   UNL     1       1.446   9.826  21.228  0.00  0.00    +0.000 C 
BRANCH  32  33
ATOM     33  C   UNL     1       0.355   9.399  22.206  0.00  0.00    +0.000 C 
ATOM     34  N   UNL     1      -0.574   8.520  21.742  0.00  0.00    +0.000 N 
ATOM     35  O   UNL     1       0.238   9.904  23.321  0.00  0.00    +0.000 OA
ATOM     36  H   UNL     1      -0.540   8.166  20.790  0.00  0.00    +0.000 HD
ATOM     37  H   UNL     1      -1.370   8.297  22.322  0.00  0.00    +0.000 HD
ENDBRANCH  32  33
ENDBRANCH   1  32
TORSDOF 6
ENDMDL
MODEL 2
REMARK VINA RESULT:      -8.7      1.424      1.661
REMARK  Name = 
REMARK  7 active torsions:
REMARK  status: ('A' for Active; 'I' for Inactive)
REMARK    1  A    between atoms: C_1  and  C_2
REMARK    2  A    between atoms: C_2  and  N_3
REMARK    3  A    between atoms: C_2  and  C_12
REMARK    4  A    between atoms: N_14  and  N_15
REMARK    5  A    between atoms: N_15  and  C_16
REMARK    6  A    between atoms: C_16  and  C_17
REMARK    7  A    between atoms: N_22  and  C_23
REMARK                            x       y       z     vdW  Elec       q    Type
REMARK                         _______ _______ _______ _____ _____    ______ ____
ROOT
ATOM      1  N   UNL     1       0.964   9.531  19.876  0.00  0.00    +0.000 N 
ATOM      2  C   UNL     1       1.701   8.876  18.880  0.00  0.00    +0.000 C 
ATOM      3  O   UNL     1       1.909   9.420  17.796  0.00  0.00    +0.000 OA
ATOM      4  N   UNL     1       2.147   7.618  19.249  0.00  0.00    +0.000 N 
ATOM      5  H   UNL     1       1.697   7.224  20.058  0.00  0.00    +0.000 HD
ENDROOT
BRANCH   4   6
ATOM      6  C   UNL     1       2.903   6.705  18.460  0.00  0.00    +0.000 A 
ATOM      7  C   UNL     1       3.977   7.146  17.675  0.00  0.00    +0.000 A 
ATOM      8  C   UNL     1       4.664   6.278  16.834  0.00  0.00    +0.000 A 
ATOM      9  C   UNL     1       4.296   4.942  16.771  0.00  0.00    +0.000 A 
ATOM     10  C   UNL     1       3.257   4.448  17.569  0.00  0.00    +0.000 A 
ATOM     11  C   UNL     1       2.924   3.086  17.487  0.00  0.00    +0.000 A 
ATOM     12  C   UNL     1       1.911   2.545  18.273  0.00  0.00    +0.000 A 
ATOM     13  C   UNL     1       1.222   3.360  19.158  0.00  0.00    +0.000 A 
ATOM     14  C   UNL     1       1.533   4.721  19.245  0.00  0.00    +0.000 A 
ATOM     15  C   UNL     1       2.550   5.315  18.446  0.00  0.00    +0.000 A 
ENDBRANCH   4   6
BRANCH   1  18
ATOM     16  C   UNL     1      -0.874  10.805  18.928  0.00  0.00    +0.000 C 
ATOM     17  O   UNL     1      -1.606   9.813  18.836  0.00  0.00    +0.000 OA
ATOM     18  N   UNL     1       0.374  10.777  19.532  0.00  0.00    +0.000 N 
ATOM     19  H   UNL     1       0.959  11.601  19.584  0.00  0.00    +0.000 HD
BRANCH  16  21
ATOM     20  C   UNL     1      -0.425  13.315  18.222  0.00  0.00    +0.000 C 
ATOM     21  C   UNL     1      -1.416  12.203  18.549  0.00  0.00    +0.000 C 
BRANCH  21  22
ATOM     22  N   UNL     1      -2.363  12.622  19.577  0.00  0.00    +0.000 N 
ATOM     23  C   UNL     1      -3.704  12.357  19.454  0.00  0.00    +0.000 C 
ATOM     24  O   UNL     1      -4.193  11.840  18.455  0.00  0.00    +0.000 OA
ATOM     25  N   UNL     1      -4.444  12.770  20.543  0.00  0.00    +0.000 N 
ATOM     26  C   UNL     1      -5.899  12.652  20.480  0.00  0.00    +0.000 C 
ATOM     27  C   UNL     1      -6.552  13.671  21.417  0.00  0.00    +0.000 C 
ATOM     28  O   UNL     1      -6.060  13.529  22.760  0.00  0.00    +0.000 OA
ATOM     29  C   UNL     1      -4.644  13.731  22.805  0.00  0.00    +0.000 C 
ATOM     30  C   UNL     1      -3.909  12.735  21.910  0.00  0.00    +0.000 C 
ATOM     31  H   UNL     1      -2.184  13.542  19.960  0.00  0.00    +0.000 HD
ENDBRANCH  21  22
ENDBRANCH  16  21
ENDBRANCH   1  18
BRANCH   1  32
ATOM     32  C   UNL     1       1.149   9.346  21.317  0.00  0.00    +0.000 C 
BRANCH  32  33
ATOM     33  C   UNL     1      -0.108   8.896  22.057  0.00  0.00    +0.000 C 
ATOM     34  N   UNL     1      -0.322   9.437  23.286  0.00  0.00    +0.000 N 
ATOM     35  O   UNL     1      -0.838   8.005  21.628  0.00  0.00    +0.000 OA
ATOM     36  H   UNL     1       0.326  10.108  23.691  0.00  0.00    +0.000 HD
ATOM     37  H   UNL     1      -1.083   9.086  23.851  0.00  0.00    +0.000 HD
ENDBRANCH  32  33
ENDBRANCH   1  32
TORSDOF 6
ENDMDL
MODEL 3
REMARK VINA RESULT:      -8.4      1.162      1.548
REMARK  Name = 
REMARK  7 active torsions:
REMARK  status: ('A' for Active; 'I' for Inactive)
REMARK    1  A    between atoms: C_1  and  C_2
REMARK    2  A    between atoms: C_2  and  N_3
REMARK    3  A    between atoms: C_2  and  C_12
REMARK    4  A    between atoms: N_14  and  N_15
REMARK    5  A    between atoms: N_15  and  C_16
REMARK    6  A    between atoms: C_16  and  C_17
REMARK    7  A    between atoms: N_22  and  C_23
REMARK                            x       y       z     vdW  Elec       q    Type
REMARK                         _______ _______ _______ _____ _____    ______ ____
ROOT
ATOM      1  N   UNL     1       0.996   9.436  19.443  0.00  0.00    +0.000 N 
ATOM      2  C   UNL     1       1.790   8.767  18.501  0.00  0.00    +0.000 C 
ATOM      3  O   UNL     1       2.019   9.275  17.403  0.00  0.00    +0.000 OA
ATOM      4  N   UNL     1       2.264   7.542  18.937  0.00  0.00    +0.000 N 
ATOM      5  H   UNL     1       1.797   7.165  19.745  0.00  0.00    +0.000 HD
ENDROOT
BRANCH   4   6
ATOM      6  C   UNL     1       3.077   6.625  18.213  0.00  0.00    +0.000 A 
ATOM      7  C   UNL     1       4.201   7.063  17.500  0.00  0.00    +0.000 A 
ATOM      8  C   UNL     1       4.949   6.188  16.719  0.00  0.00    +0.000 A 
ATOM      9  C   UNL     1       4.593   4.850  16.646  0.00  0.00    +0.000 A 
ATOM     10  C   UNL     1       3.503   4.359  17.375  0.00  0.00    +0.000 A 
ATOM     11  C   UNL     1       3.184   2.995  17.287  0.00  0.00    +0.000 A 
ATOM     12  C   UNL     1       2.121   2.456  18.006  0.00  0.00    +0.000 A 
ATOM     13  C   UNL     1       1.368   3.278  18.832  0.00  0.00    +0.000 A 
ATOM     14  C   UNL     1       1.666   4.642  18.924  0.00  0.00    +0.000 A 
ATOM     15  C   UNL     1       2.732   5.233  18.191  0.00  0.00    +0.000 A 
ENDBRANCH   4   6
BRANCH   1  18
ATOM     16  C   UNL     1      -0.877  10.612  18.438  0.00  0.00    +0.000 C 
ATOM     17  O   UNL     1      -1.590   9.604  18.418  0.00  0.00    +0.000 OA
ATOM     18  N   UNL     1       0.378  10.647  19.026  0.00  0.00    +0.000 N 
ATOM     19  H   UNL     1       0.948  11.483  19.019  0.00  0.00    +0.000 HD
BRANCH  16  21
ATOM     20  C   UNL     1      -0.853  13.256  18.545  0.00  0.00    +0.000 C 
ATOM     21  C   UNL     1      -1.450  11.973  17.977  0.00  0.00    +0.000 C 
BRANCH  21  22
ATOM     22  N   UNL     1      -2.899  11.942  18.146  0.00  0.00    +0.000 N 
ATOM     23  C   UNL     1      -3.474  12.190  19.368  0.00  0.00    +0.000 C 
ATOM     24  O   UNL     1      -2.818  12.363  20.390  0.00  0.00    +0.000 OA
ATOM     25  N   UNL     1      -4.853  12.179  19.333  0.00  0.00    +0.000 N 
ATOM     26  C   UNL     1      -5.580  12.311  20.594  0.00  0.00    +0.000 C 
ATOM     27  C   UNL     1      -6.967  11.676  20.472  0.00  0.00    +0.000 C 
ATOM     28  O   UNL     1      -7.698  12.237  19.369  0.00  0.00    +0.000 OA
ATOM     29  C   UNL     1      -7.003  12.020  18.137  0.00  0.00    +0.000 C 
ATOM     30  C   UNL     1      -5.610  12.646  18.166  0.00  0.00    +0.000 C 
ATOM     31  H   UNL     1      -3.362  11.194  17.646  0.00  0.00    +0.000 HD
ENDBRANCH  21  22
ENDBRANCH  16  21
ENDBRANCH   1  18
BRANCH   1  32
ATOM     32  C   UNL     1       1.135   9.316  20.896  0.00  0.00    +0.000 C 
BRANCH  32  33
ATOM     33  C   UNL     1       0.480  10.448  21.682  0.00  0.00    +0.000 C 
ATOM     34  N   UNL     1      -0.657  10.142  22.364  0.00  0.00    +0.000 N 
ATOM     35  O   UNL     1       0.880  11.608  21.619  0.00  0.00    +0.000 OA
ATOM     36  H   UNL     1      -1.049   9.205  22.348  0.00  0.00    +0.000 HD
ATOM     37  H   UNL     1      -1.178  10.886  22.808  0.00  0.00    +0.000 HD
ENDBRANCH  32  33
ENDBRANCH   1  32
TORSDOF 6
ENDMDL
MODEL 4
REMARK VINA RESULT:      -8.4      1.723      2.194
REMARK  Name = 
REMARK  7 active torsions:
REMARK  status: ('A' for Active; 'I' for Inactive)
REMARK    1  A    between atoms: C_1  and  C_2
REMARK    2  A    between atoms: C_2  and  N_3
REMARK    3  A    between atoms: C_2  and  C_12
REMARK    4  A    between atoms: N_14  and  N_15
REMARK    5  A    between atoms: N_15  and  C_16
REMARK    6  A    between atoms: C_16  and  C_17
REMARK    7  A    between atoms: N_22  and  C_23
REMARK                            x       y       z     vdW  Elec       q    Type
REMARK                         _______ _______ _______ _____ _____    ______ ____
ROOT
ATOM      1  N   UNL     1       0.975   9.496  19.905  0.00  0.00    +0.000 N 
ATOM      2  C   UNL     1       1.680   8.768  18.937  0.00  0.00    +0.000 C 
ATOM      3  O   UNL     1       1.910   9.258  17.831  0.00  0.00    +0.000 OA
ATOM      4  N   UNL     1       2.071   7.509  19.358  0.00  0.00    +0.000 N 
ATOM      5  H   UNL     1       1.605   7.168  20.182  0.00  0.00    +0.000 HD
ENDROOT
BRANCH   4   6
ATOM      6  C   UNL     1       2.784   6.531  18.607  0.00  0.00    +0.000 A 
ATOM      7  C   UNL     1       3.849   6.896  17.773  0.00  0.00    +0.000 A 
ATOM      8  C   UNL     1       4.493   5.962  16.970  0.00  0.00    +0.000 A 
ATOM      9  C   UNL     1       4.089   4.635  16.995  0.00  0.00    +0.000 A 
ATOM     10  C   UNL     1       3.057   4.217  17.843  0.00  0.00    +0.000 A 
ATOM     11  C   UNL     1       2.688   2.862  17.849  0.00  0.00    +0.000 A 
ATOM     12  C   UNL     1       1.681   2.395  18.689  0.00  0.00    +0.000 A 
ATOM     13  C   UNL     1       1.034   3.279  19.540  0.00  0.00    +0.000 A 
ATOM     14  C   UNL     1       1.383   4.634  19.538  0.00  0.00    +0.000 A 
ATOM     15  C   UNL     1       2.394   5.153  18.683  0.00  0.00    +0.000 A 
ENDBRANCH   4   6
BRANCH   1  18
ATOM     16  C   UNL     1      -0.815  10.812  18.922  0.00  0.00    +0.000 C 
ATOM     17  O   UNL     1      -1.594   9.854  18.887  0.00  0.00    +0.000 OA
ATOM     18  N   UNL     1       0.439  10.752  19.509  0.00  0.00    +0.000 N 
ATOM     19  H   UNL     1       1.064  11.548  19.514  0.00  0.00    +0.000 HD
BRANCH  16  21
ATOM     20  C   UNL     1      -0.282  13.354  18.414  0.00  0.00    +0.000 C 
ATOM     21  C   UNL     1      -1.295  12.216  18.484  0.00  0.00    +0.000 C 
BRANCH  21  22
ATOM     22  N   UNL     1      -2.448  12.581  19.299  0.00  0.00    +0.000 N 
ATOM     23  C   UNL     1      -2.342  12.701  20.662  0.00  0.00    +0.000 C 
ATOM     24  O   UNL     1      -1.316  12.429  21.277  0.00  0.00    +0.000 OA
ATOM     25  N   UNL     1      -3.513  13.111  21.266  0.00  0.00    +0.000 N 
ATOM     26  C   UNL     1      -3.561  13.160  22.726  0.00  0.00    +0.000 C 
ATOM     27  C   UNL     1      -5.005  13.015  23.211  0.00  0.00    +0.000 C 
ATOM     28  O   UNL     1      -5.854  14.008  22.612  0.00  0.00    +0.000 OA
ATOM     29  C   UNL     1      -5.852  13.884  21.187  0.00  0.00    +0.000 C 
ATOM     30  C   UNL     1      -4.445  14.040  20.615  0.00  0.00    +0.000 C 
ATOM     31  H   UNL     1      -3.316  12.143  19.016  0.00  0.00    +0.000 HD
ENDBRANCH  21  22
ENDBRANCH  16  21
ENDBRANCH   1  18
BRANCH   1  32
ATOM     32  C   UNL     1       1.154   9.363  21.353  0.00  0.00    +0.000 C 
BRANCH  32  33
ATOM     33  C   UNL     1      -0.104   8.939  22.103  0.00  0.00    +0.000 C 
ATOM     34  N   UNL     1      -0.310   9.502  23.324  0.00  0.00    +0.000 N 
ATOM     35  O   UNL     1      -0.844   8.047  21.692  0.00  0.00    +0.000 OA
ATOM     36  H   UNL     1       0.345  10.173  23.715  0.00  0.00    +0.000 HD
ATOM     37  H   UNL     1      -1.073   9.168  23.896  0.00  0.00    +0.000 HD
ENDBRANCH  32  33
ENDBRANCH   1  32
TORSDOF 6
ENDMDL
MODEL 5
REMARK VINA RESULT:      -8.4      1.653      1.859
REMARK  Name = 
REMARK  7 active torsions:
REMARK  status: ('A' for Active; 'I' for Inactive)
REMARK    1  A    between atoms: C_1  and  C_2
REMARK    2  A    between atoms: C_2  and  N_3
REMARK    3  A    between atoms: C_2  and  C_12
REMARK    4  A    between atoms: N_14  and  N_15
REMARK    5  A    between atoms: N_15  and  C_16
REMARK    6  A    between atoms: C_16  and  C_17
REMARK    7  A    between atoms: N_22  and  C_23
REMARK                            x       y       z     vdW  Elec       q    Type
REMARK                         _______ _______ _______ _____ _____    ______ ____
ROOT
ATOM      1  N   UNL     1       0.529   9.720  20.307  0.00  0.00    +0.000 N 
ATOM      2  C   UNL     1       1.137   8.932  19.321  0.00  0.00    +0.000 C 
ATOM      3  O   UNL     1       1.040   9.233  18.132  0.00  0.00    +0.000 OA
ATOM      4  N   UNL     1       1.827   7.842  19.823  0.00  0.00    +0.000 N 
ATOM      5  H   UNL     1       1.612   7.599  20.775  0.00  0.00    +0.000 HD
ENDROOT
BRANCH   4   6
ATOM      6  C   UNL     1       2.533   6.852  19.081  0.00  0.00    +0.000 A 
ATOM      7  C   UNL     1       3.452   7.213  18.086  0.00  0.00    +0.000 A 
ATOM      8  C   UNL     1       4.079   6.255  17.297  0.00  0.00    +0.000 A 
ATOM      9  C   UNL     1       3.807   4.910  17.497  0.00  0.00    +0.000 A 
ATOM     10  C   UNL     1       2.928   4.500  18.507  0.00  0.00    +0.000 A 
ATOM     11  C   UNL     1       2.691   3.128  18.687  0.00  0.00    +0.000 A 
ATOM     12  C   UNL     1       1.839   2.671  19.689  0.00  0.00    +0.000 A 
ATOM     13  C   UNL     1       1.220   3.584  20.530  0.00  0.00    +0.000 A 
ATOM     14  C   UNL     1       1.438   4.955  20.358  0.00  0.00    +0.000 A 
ATOM     15  C   UNL     1       2.286   5.462  19.335  0.00  0.00    +0.000 A 
ENDBRANCH   4   6
BRANCH   1  18
ATOM     16  C   UNL     1       0.255  12.049  19.672  0.00  0.00    +0.000 C 
ATOM     17  O   UNL     1       1.471  12.266  19.679  0.00  0.00    +0.000 OA
ATOM     18  N   UNL     1      -0.295  10.791  19.865  0.00  0.00    +0.000 N 
ATOM     19  H   UNL     1      -1.295  10.641  19.866  0.00  0.00    +0.000 HD
BRANCH  16  21
ATOM     20  C   UNL     1      -0.186  14.566  18.983  0.00  0.00    +0.000 C 
ATOM     21  C   UNL     1      -0.726  13.161  19.233  0.00  0.00    +0.000 C 
BRANCH  21  22
ATOM     22  N   UNL     1      -1.845  13.181  20.169  0.00  0.00    +0.000 N 
ATOM     23  C   UNL     1      -3.028  12.553  19.872  0.00  0.00    +0.000 C 
ATOM     24  O   UNL     1      -3.246  12.021  18.788  0.00  0.00    +0.000 OA
ATOM     25  N   UNL     1      -3.954  12.622  20.893  0.00  0.00    +0.000 N 
ATOM     26  C   UNL     1      -5.295  12.095  20.652  0.00  0.00    +0.000 C 
ATOM     27  C   UNL     1      -6.305  12.779  21.574  0.00  0.00    +0.000 C 
ATOM     28  O   UNL     1      -5.918  12.651  22.952  0.00  0.00    +0.000 OA
ATOM     29  C   UNL     1      -4.638  13.249  23.177  0.00  0.00    +0.000 C 
ATOM     30  C   UNL     1      -3.560  12.604  22.307  0.00  0.00    +0.000 C 
ATOM     31  H   UNL     1      -1.985  14.070  20.634  0.00  0.00    +0.000 HD
ENDBRANCH  21  22
ENDBRANCH  16  21
ENDBRANCH   1  18
BRANCH   1  32
ATOM     32  C   UNL     1       1.026   9.888  21.675  0.00  0.00    +0.000 C 
BRANCH  32  33
ATOM     33  C   UNL     1      -0.066  10.128  22.713  0.00  0.00    +0.000 C 
ATOM     34  N   UNL     1      -0.745   9.034  23.152  0.00  0.00    +0.000 N 
ATOM     35  O   UNL     1      -0.406  11.258  23.058  0.00  0.00    +0.000 OA
ATOM     36  H   UNL     1      -0.533   8.103  22.804  0.00  0.00    +0.000 HD
ATOM     37  H   UNL     1      -1.544   9.164  23.757  0.00  0.00    +0.000 HD
ENDBRANCH  32  33
ENDBRANCH   1  32
TORSDOF 6
ENDMDL
MODEL 6
REMARK VINA RESULT:      -8.4      2.552      4.504
REMARK  Name = 
REMARK  7 active torsions:
REMARK  status: ('A' for Active; 'I' for Inactive)
REMARK    1  A    between atoms: C_1  and  C_2
REMARK    2  A    between atoms: C_2  and  N_3
REMARK    3  A    between atoms: C_2  and  C_12
REMARK    4  A    between atoms: N_14  and  N_15
REMARK    5  A    between atoms: N_15  and  C_16
REMARK    6  A    between atoms: C_16  and  C_17
REMARK    7  A    between atoms: N_22  and  C_23
REMARK                            x       y       z     vdW  Elec       q    Type
REMARK                         _______ _______ _______ _____ _____    ______ ____
ROOT
ATOM      1  N   UNL     1       1.272   9.094  20.004  0.00  0.00    +0.000 N 
ATOM      2  C   UNL     1       1.894   8.304  19.028  0.00  0.00    +0.000 C 
ATOM      3  O   UNL     1       2.079   8.742  17.893  0.00  0.00    +0.000 OA
ATOM      4  N   UNL     1       2.260   7.046  19.476  0.00  0.00    +0.000 N 
ATOM      5  H   UNL     1       1.829   6.755  20.338  0.00  0.00    +0.000 HD
ENDROOT
BRANCH   4   6
ATOM      6  C   UNL     1       2.893   6.014  18.726  0.00  0.00    +0.000 A 
ATOM      7  C   UNL     1       4.000   6.287  17.911  0.00  0.00    +0.000 A 
ATOM      8  C   UNL     1       4.568   5.305  17.108  0.00  0.00    +0.000 A 
ATOM      9  C   UNL     1       4.045   4.020  17.114  0.00  0.00    +0.000 A 
ATOM     10  C   UNL     1       2.966   3.691  17.943  0.00  0.00    +0.000 A 
ATOM     11  C   UNL     1       2.475   2.375  17.931  0.00  0.00    +0.000 A 
ATOM     12  C   UNL     1       1.416   1.995  18.750  0.00  0.00    +0.000 A 
ATOM     13  C   UNL     1       0.840   2.927  19.601  0.00  0.00    +0.000 A 
ATOM     14  C   UNL     1       1.310   4.245  19.618  0.00  0.00    +0.000 A 
ATOM     15  C   UNL     1       2.378   4.676  18.783  0.00  0.00    +0.000 A 
ENDBRANCH   4   6
BRANCH   1  18
ATOM     16  C   UNL     1      -0.556  10.462  19.174  0.00  0.00    +0.000 C 
ATOM     17  O   UNL     1      -1.388   9.561  19.318  0.00  0.00    +0.000 OA
ATOM     18  N   UNL     1       0.763  10.355  19.590  0.00  0.00    +0.000 N 
ATOM     19  H   UNL     1       1.429  11.104  19.450  0.00  0.00    +0.000 HD
BRANCH  16  21
ATOM     20  C   UNL     1      -1.959  11.969  17.512  0.00  0.00    +0.000 C 
ATOM     21  C   UNL     1      -1.007  11.863  18.699  0.00  0.00    +0.000 C 
BRANCH  21  22
ATOM     22  N   UNL     1       0.182  12.686  18.500  0.00  0.00    +0.000 N 
ATOM     23  C   UNL     1       0.225  13.985  18.941  0.00  0.00    +0.000 C 
ATOM     24  O   UNL     1      -0.741  14.552  19.440  0.00  0.00    +0.000 OA
ATOM     25  N   UNL     1       1.444  14.594  18.724  0.00  0.00    +0.000 N 
ATOM     26  C   UNL     1       1.577  16.014  19.040  0.00  0.00    +0.000 C 
ATOM     27  C   UNL     1       2.694  16.639  18.201  0.00  0.00    +0.000 C 
ATOM     28  O   UNL     1       3.932  15.931  18.379  0.00  0.00    +0.000 OA
ATOM     29  C   UNL     1       3.795  14.562  17.983  0.00  0.00    +0.000 C 
ATOM     30  C   UNL     1       2.710  13.854  18.792  0.00  0.00    +0.000 C 
ATOM     31  H   UNL     1       0.625  12.568  17.598  0.00  0.00    +0.000 HD
ENDBRANCH  21  22
ENDBRANCH  16  21
ENDBRANCH   1  18
BRANCH   1  32
ATOM     32  C   UNL     1       1.528   9.008  21.444  0.00  0.00    +0.000 C 
BRANCH  32  33
ATOM     33  C   UNL     1       0.385   9.521  22.314  0.00  0.00    +0.000 C 
ATOM     34  N   UNL     1      -0.679   8.689  22.482  0.00  0.00    +0.000 N 
ATOM     35  O   UNL     1       0.357  10.669  22.752  0.00  0.00    +0.000 OA
ATOM     36  H   UNL     1      -0.707   7.770  22.048  0.00  0.00    +0.000 HD
ATOM     37  H   UNL     1      -1.499   9.032  22.961  0.00  0.00    +0.000 HD
ENDBRANCH  32  33
ENDBRANCH   1  32
TORSDOF 6
ENDMDL
MODEL 7
REMARK VINA RESULT:      -8.3      1.901      2.318
REMARK  Name = 
REMARK  7 active torsions:
REMARK  status: ('A' for Active; 'I' for Inactive)
REMARK    1  A    between atoms: C_1  and  C_2
REMARK    2  A    between atoms: C_2  and  N_3
REMARK    3  A    between atoms: C_2  and  C_12
REMARK    4  A    between atoms: N_14  and  N_15
REMARK    5  A    between atoms: N_15  and  C_16
REMARK    6  A    between atoms: C_16  and  C_17
REMARK    7  A    between atoms: N_22  and  C_23
REMARK                            x       y       z     vdW  Elec       q    Type
REMARK                         _______ _______ _______ _____ _____    ______ ____
ROOT
ATOM      1  N   UNL     1       0.559   9.109  19.984  0.00  0.00    +0.000 N 
ATOM      2  C   UNL     1       1.577   8.725  19.101  0.00  0.00    +0.000 C 
ATOM      3  O   UNL     1       2.138   9.561  18.393  0.00  0.00    +0.000 OA
ATOM      4  N   UNL     1       1.862   7.371  19.130  0.00  0.00    +0.000 N 
ATOM      5  H   UNL     1       1.165   6.795  19.572  0.00  0.00    +0.000 HD
ENDROOT
BRANCH   4   6
ATOM      6  C   UNL     1       2.827   6.676  18.346  0.00  0.00    +0.000 A 
ATOM      7  C   UNL     1       3.875   7.360  17.717  0.00  0.00    +0.000 A 
ATOM      8  C   UNL     1       4.769   6.703  16.879  0.00  0.00    +0.000 A 
ATOM      9  C   UNL     1       4.638   5.339  16.663  0.00  0.00    +0.000 A 
ATOM     10  C   UNL     1       3.632   4.607  17.303  0.00  0.00    +0.000 A 
ATOM     11  C   UNL     1       3.542   3.225  17.070  0.00  0.00    +0.000 A 
ATOM     12  C   UNL     1       2.570   2.452  17.698  0.00  0.00    +0.000 A 
ATOM     13  C   UNL     1       1.678   3.051  18.575  0.00  0.00    +0.000 A 
ATOM     14  C   UNL     1       1.748   4.429  18.811  0.00  0.00    +0.000 A 
ATOM     15  C   UNL     1       2.715   5.256  18.175  0.00  0.00    +0.000 A 
ENDBRANCH   4   6
BRANCH   1  18
ATOM     16  C   UNL     1      -0.925  10.818  19.102  0.00  0.00    +0.000 C 
ATOM     17  O   UNL     1      -1.653   9.994  18.538  0.00  0.00    +0.000 OA
ATOM     18  N   UNL     1       0.129  10.463  19.929  0.00  0.00    +0.000 N 
ATOM     19  H   UNL     1       0.718  11.157  20.370  0.00  0.00    +0.000 HD
BRANCH  16  21
ATOM     20  C   UNL     1      -0.190  13.345  18.825  0.00  0.00    +0.000 C 
ATOM     21  C   UNL     1      -1.292  12.320  19.074  0.00  0.00    +0.000 C 
BRANCH  21  22
ATOM     22  N   UNL     1      -2.042  12.632  20.286  0.00  0.00    +0.000 N 
ATOM     23  C   UNL     1      -3.411  12.549  20.312  0.00  0.00    +0.000 C 
ATOM     24  O   UNL     1      -4.083  12.298  19.317  0.00  0.00    +0.000 OA
ATOM     25  N   UNL     1      -3.951  12.819  21.553  0.00  0.00    +0.000 N 
ATOM     26  C   UNL     1      -5.405  12.880  21.680  0.00  0.00    +0.000 C 
ATOM     27  C   UNL     1      -5.795  13.760  22.870  0.00  0.00    +0.000 C 
ATOM     28  O   UNL     1      -5.169  13.301  24.079  0.00  0.00    +0.000 OA
ATOM     29  C   UNL     1      -3.743  13.331  23.956  0.00  0.00    +0.000 C 
ATOM     30  C   UNL     1      -3.266  12.455  22.799  0.00  0.00    +0.000 C 
ATOM     31  H   UNL     1      -1.693  13.432  20.800  0.00  0.00    +0.000 HD
ENDBRANCH  21  22
ENDBRANCH  16  21
ENDBRANCH   1  18
BRANCH   1  32
ATOM     32  C   UNL     1       0.254   8.447  21.255  0.00  0.00    +0.000 C 
BRANCH  32  33
ATOM     33  C   UNL     1       0.640   9.255  22.490  0.00  0.00    +0.000 C 
ATOM     34  N   UNL     1      -0.350   9.517  23.385  0.00  0.00    +0.000 N 
ATOM     35  O   UNL     1       1.757   9.750  22.628  0.00  0.00    +0.000 OA
ATOM     36  H   UNL     1      -1.300   9.190  23.235  0.00  0.00    +0.000 HD
ATOM     37  H   UNL     1      -0.160  10.138  24.159  0.00  0.00    +0.000 HD
ENDBRANCH  32  33
ENDBRANCH   1  32
TORSDOF 6
ENDMDL
MODEL 8
REMARK VINA RESULT:      -7.9      2.786      4.390
REMARK  Name = 
REMARK  7 active torsions:
REMARK  status: ('A' for Active; 'I' for Inactive)
REMARK    1  A    between atoms: C_1  and  C_2
REMARK    2  A    between atoms: C_2  and  N_3
REMARK    3  A    between atoms: C_2  and  C_12
REMARK    4  A    between atoms: N_14  and  N_15
REMARK    5  A    between atoms: N_15  and  C_16
REMARK    6  A    between atoms: C_16  and  C_17
REMARK    7  A    between atoms: N_22  and  C_23
REMARK                            x       y       z     vdW  Elec       q    Type
REMARK                         _______ _______ _______ _____ _____    ______ ____
ROOT
ATOM      1  N   UNL     1       0.811   9.118  20.035  0.00  0.00    +0.000 N 
ATOM      2  C   UNL     1       1.466   8.451  18.990  0.00  0.00    +0.000 C 
ATOM      3  O   UNL     1       1.330   8.827  17.826  0.00  0.00    +0.000 OA
ATOM      4  N   UNL     1       2.245   7.386  19.408  0.00  0.00    +0.000 N 
ATOM      5  H   UNL     1       2.061   7.060  20.342  0.00  0.00    +0.000 HD
ENDROOT
BRANCH   4   6
ATOM      6  C   UNL     1       3.015   6.509  18.591  0.00  0.00    +0.000 A 
ATOM      7  C   UNL     1       4.115   6.981  17.862  0.00  0.00    +0.000 A 
ATOM      8  C   UNL     1       4.818   6.153  16.994  0.00  0.00    +0.000 A 
ATOM      9  C   UNL     1       4.441   4.826  16.849  0.00  0.00    +0.000 A 
ATOM     10  C   UNL     1       3.375   4.300  17.589  0.00  0.00    +0.000 A 
ATOM     11  C   UNL     1       3.034   2.948  17.425  0.00  0.00    +0.000 A 
ATOM     12  C   UNL     1       1.994   2.375  18.152  0.00  0.00    +0.000 A 
ATOM     13  C   UNL     1       1.287   3.148  19.060  0.00  0.00    +0.000 A 
ATOM     14  C   UNL     1       1.607   4.499  19.229  0.00  0.00    +0.000 A 
ATOM     15  C   UNL     1       2.651   5.126  18.492  0.00  0.00    +0.000 A 
ENDBRANCH   4   6
BRANCH   1  18
ATOM     16  C   UNL     1       0.380  11.415  19.372  0.00  0.00    +0.000 C 
ATOM     17  O   UNL     1       1.578  11.666  19.207  0.00  0.00    +0.000 OA
ATOM     18  N   UNL     1      -0.099  10.150  19.676  0.00  0.00    +0.000 N 
ATOM     19  H   UNL     1      -1.085   9.973  19.818  0.00  0.00    +0.000 HD
BRANCH  16  21
ATOM     20  C   UNL     1      -1.750  12.163  17.992  0.00  0.00    +0.000 C 
ATOM     21  C   UNL     1      -0.687  12.484  19.037  0.00  0.00    +0.000 C 
BRANCH  21  22
ATOM     22  N   UNL     1      -0.002  13.735  18.730  0.00  0.00    +0.000 N 
ATOM     23  C   UNL     1      -0.339  14.902  19.370  0.00  0.00    +0.000 C 
ATOM     24  O   UNL     1      -1.276  14.983  20.158  0.00  0.00    +0.000 OA
ATOM     25  N   UNL     1       0.448  15.973  19.002  0.00  0.00    +0.000 N 
ATOM     26  C   UNL     1       0.111  17.295  19.523  0.00  0.00    +0.000 C 
ATOM     27  C   UNL     1       0.635  18.383  18.583  0.00  0.00    +0.000 C 
ATOM     28  O   UNL     1       2.047  18.238  18.361  0.00  0.00    +0.000 OA
ATOM     29  C   UNL     1       2.341  16.967  17.773  0.00  0.00    +0.000 C 
ATOM     30  C   UNL     1       1.868  15.819  18.663  0.00  0.00    +0.000 C 
ATOM     31  H   UNL     1       0.192  13.876  17.746  0.00  0.00    +0.000 HD
ENDBRANCH  21  22
ENDBRANCH  16  21
ENDBRANCH   1  18
BRANCH   1  32
ATOM     32  C   UNL     1       1.312   9.227  21.407  0.00  0.00    +0.000 C 
BRANCH  32  33
ATOM     33  C   UNL     1       0.267   9.686  22.419  0.00  0.00    +0.000 C 
ATOM     34  N   UNL     1      -0.635   8.756  22.834  0.00  0.00    +0.000 N 
ATOM     35  O   UNL     1       0.159  10.861  22.764  0.00  0.00    +0.000 OA
ATOM     36  H   UNL     1      -0.611   7.802  22.485  0.00  0.00    +0.000 HD
ATOM     37  H   UNL     1      -1.405   9.047  23.420  0.00  0.00    +0.000 HD
ENDBRANCH  32  33
ENDBRANCH   1  32
TORSDOF 6
ENDMDL
MODEL 9
REMARK VINA RESULT:      -7.9      1.209      1.345
REMARK  Name = 
REMARK  7 active torsions:
REMARK  status: ('A' for Active; 'I' for Inactive)
REMARK    1  A    between atoms: C_1  and  C_2
REMARK    2  A    between atoms: C_2  and  N_3
REMARK    3  A    between atoms: C_2  and  C_12
REMARK    4  A    between atoms: N_14  and  N_15
REMARK    5  A    between atoms: N_15  and  C_16
REMARK    6  A    between atoms: C_16  and  C_17
REMARK    7  A    between atoms: N_22  and  C_23
REMARK                            x       y       z     vdW  Elec       q    Type
REMARK                         _______ _______ _______ _____ _____    ______ ____
ROOT
ATOM      1  N   UNL     1       0.706   9.765  19.907  0.00  0.00    +0.000 N 
ATOM      2  C   UNL     1       1.338   8.884  19.019  0.00  0.00    +0.000 C 
ATOM      3  O   UNL     1       1.360   9.121  17.811  0.00  0.00    +0.000 OA
ATOM      4  N   UNL     1       1.908   7.782  19.634  0.00  0.00    +0.000 N 
ATOM      5  H   UNL     1       1.598   7.609  20.576  0.00  0.00    +0.000 HD
ENDROOT
BRANCH   4   6
ATOM      6  C   UNL     1       2.602   6.708  19.008  0.00  0.00    +0.000 A 
ATOM      7  C   UNL     1       3.556   6.949  18.010  0.00  0.00    +0.000 A 
ATOM      8  C   UNL     1       4.174   5.904  17.332  0.00  0.00    +0.000 A 
ATOM      9  C   UNL     1       3.857   4.591  17.650  0.00  0.00    +0.000 A 
ATOM     10  C   UNL     1       2.941   4.303  18.668  0.00  0.00    +0.000 A 
ATOM     11  C   UNL     1       2.659   2.961  18.969  0.00  0.00    +0.000 A 
ATOM     12  C   UNL     1       1.769   2.624  19.986  0.00  0.00    +0.000 A 
ATOM     13  C   UNL     1       1.156   3.628  20.720  0.00  0.00    +0.000 A 
ATOM     14  C   UNL     1       1.419   4.971  20.426  0.00  0.00    +0.000 A 
ATOM     15  C   UNL     1       2.308   5.356  19.384  0.00  0.00    +0.000 A 
ENDBRANCH   4   6
BRANCH   1  18
ATOM     16  C   UNL     1       0.626  12.087  19.197  0.00  0.00    +0.000 C 
ATOM     17  O   UNL     1       1.840  12.252  19.360  0.00  0.00    +0.000 OA
ATOM     18  N   UNL     1      -0.002  10.859  19.340  0.00  0.00    +0.000 N 
ATOM     19  H   UNL     1      -1.000  10.754  19.212  0.00  0.00    +0.000 HD
BRANCH  16  21
ATOM     20  C   UNL     1       0.249  14.669  18.753  0.00  0.00    +0.000 C 
ATOM     21  C   UNL     1      -0.237  13.230  18.612  0.00  0.00    +0.000 C 
BRANCH  21  22
ATOM     22  N   UNL     1      -1.599  13.078  19.114  0.00  0.00    +0.000 N 
ATOM     23  C   UNL     1      -2.490  12.235  18.498  0.00  0.00    +0.000 C 
ATOM     24  O   UNL     1      -2.232  11.636  17.460  0.00  0.00    +0.000 OA
ATOM     25  N   UNL     1      -3.710  12.169  19.139  0.00  0.00    +0.000 N 
ATOM     26  C   UNL     1      -4.782  11.399  18.514  0.00  0.00    +0.000 C 
ATOM     27  C   UNL     1      -6.145  11.920  18.975  0.00  0.00    +0.000 C 
ATOM     28  O   UNL     1      -6.244  11.911  20.408  0.00  0.00    +0.000 OA
ATOM     29  C   UNL     1      -5.233  12.740  20.991  0.00  0.00    +0.000 C 
ATOM     30  C   UNL     1      -3.833  12.273  20.598  0.00  0.00    +0.000 C 
ATOM     31  H   UNL     1      -2.031  13.942  19.418  0.00  0.00    +0.000 HD
ENDBRANCH  21  22
ENDBRANCH  16  21
ENDBRANCH   1  18
BRANCH   1  32
ATOM     32  C   UNL     1       1.100   9.979  21.301  0.00  0.00    +0.000 C 
BRANCH  32  33
ATOM     33  C   UNL     1      -0.072  10.165  22.260  0.00  0.00    +0.000 C 
ATOM     34  N   UNL     1      -0.107   9.351  23.350  0.00  0.00    +0.000 N 
ATOM     35  O   UNL     1      -1.007  10.924  22.015  0.00  0.00    +0.000 OA
ATOM     36  H   UNL     1       0.615   8.655  23.515  0.00  0.00    +0.000 HD
ATOM     37  H   UNL     1      -0.920   9.370  23.951  0.00  0.00    +0.000 HD
ENDBRANCH  32  33
ENDBRANCH   1  32
TORSDOF 6
ENDMDL
