MODEL 1
REMARK VINA RESULT:      -7.2      0.000      0.000
REMARK  Name = 
REMARK  10 active torsions:
REMARK  status: ('A' for Active; 'I' for Inactive)
REMARK    1  A    between atoms: C_1  and  O_2
REMARK    2  A    between atoms: O_2  and  C_3
REMARK    3  A    between atoms: C_3  and  C_5
REMARK    4  A    between atoms: C_5  and  C_6
REMARK    5  A    between atoms: C_6  and  C_7
REMARK    6  A    between atoms: C_10  and  C_11
REMARK    7  A    between atoms: C_12  and  C_13
REMARK    8  A    between atoms: C_12  and  O_14
REMARK    9  A    between atoms: O_14  and  C_15
REMARK   10  A    between atoms: C_15  and  C_16
REMARK                            x       y       z     vdW  Elec       q    Type
REMARK                         _______ _______ _______ _____ _____    ______ ____
ROOT
ATOM      1  C   UNL     1       5.041   5.136  16.984  0.00  0.00    +0.000 C 
ATOM      2  C   UNL     1       4.488   3.696  17.105  0.00  0.00    +0.000 C 
ATOM      3  C   UNL     1       3.695   3.389  18.376  0.00  0.00    +0.000 C 
ATOM      4  C   UNL     1       4.604   3.181  19.595  0.00  0.00    +0.000 C 
ATOM      5  C   UNL     1       2.597   4.444  18.610  0.00  0.00    +0.000 C 
ATOM      6  C   UNL     1       1.468   4.447  17.559  0.00  0.00    +0.000 C 
ATOM      7  C   UNL     1       3.251   5.844  18.519  0.00  0.00    +0.000 C 
ATOM      8  O   UNL     1       3.014   6.756  19.309  0.00  0.00    +0.000 OA
ATOM      9  O   UNL     1       4.007   6.068  17.402  0.00  0.00    +0.000 OA
ENDROOT
BRANCH   1  10
ATOM     10  C   UNL     1       6.350   5.427  17.792  0.00  0.00    +0.000 C 
ATOM     11  C   UNL     1       7.546   4.534  17.464  0.00  0.00    +0.000 C 
ATOM     12 CL   UNL     1       6.888   7.149  17.638  0.00  0.00    +0.000 Cl
ENDBRANCH   1  10
BRANCH   1  13
ATOM     13  C   UNL     1       5.413   5.286  15.484  0.00  0.00    +0.000 C 
ATOM     14  O   UNL     1       5.588   6.377  14.946  0.00  0.00    +0.000 OA
BRANCH  13  16
ATOM     15  C   UNL     1       6.393   4.098  13.736  0.00  0.00    +0.000 C 
ATOM     16  O   UNL     1       5.448   4.106  14.810  0.00  0.00    +0.000 OA
ENDBRANCH  13  16
ENDBRANCH   1  13
BRANCH   5  17
ATOM     17  O   UNL     1       1.977   4.278  19.923  0.00  0.00    +0.000 OA
BRANCH  17  18
ATOM     18  C   UNL     1       1.269   3.146  20.198  0.00  0.00    +0.000 C 
ATOM     19  C   UNL     1       1.537   2.646  21.583  0.00  0.00    +0.000 C 
ATOM     20  O   UNL     1       0.485   2.595  19.434  0.00  0.00    +0.000 OA
ENDBRANCH  17  18
ENDBRANCH   5  17
TORSDOF 5
ENDMDL
MODEL 2
REMARK VINA RESULT:      -6.7      1.859      2.740
REMARK  Name = 
REMARK  10 active torsions:
REMARK  status: ('A' for Active; 'I' for Inactive)
REMARK    1  A    between atoms: C_1  and  O_2
REMARK    2  A    between atoms: O_2  and  C_3
REMARK    3  A    between atoms: C_3  and  C_5
REMARK    4  A    between atoms: C_5  and  C_6
REMARK    5  A    between atoms: C_6  and  C_7
REMARK    6  A    between atoms: C_10  and  C_11
REMARK    7  A    between atoms: C_12  and  C_13
REMARK    8  A    between atoms: C_12  and  O_14
REMARK    9  A    between atoms: O_14  and  C_15
REMARK   10  A    between atoms: C_15  and  C_16
REMARK                            x       y       z     vdW  Elec       q    Type
REMARK                         _______ _______ _______ _____ _____    ______ ____
ROOT
ATOM      1  C   UNL     1       5.214   5.192  17.417  0.00  0.00    +0.000 C 
ATOM      2  C   UNL     1       3.690   5.430  17.290  0.00  0.00    +0.000 C 
ATOM      3  C   UNL     1       2.792   4.328  17.854  0.00  0.00    +0.000 C 
ATOM      4  C   UNL     1       2.715   3.108  16.926  0.00  0.00    +0.000 C 
ATOM      5  C   UNL     1       3.196   3.969  19.296  0.00  0.00    +0.000 C 
ATOM      6  C   UNL     1       2.962   5.089  20.331  0.00  0.00    +0.000 C 
ATOM      7  C   UNL     1       4.721   3.702  19.314  0.00  0.00    +0.000 C 
ATOM      8  O   UNL     1       5.237   2.758  19.910  0.00  0.00    +0.000 OA
ATOM      9  O   UNL     1       5.495   4.675  18.746  0.00  0.00    +0.000 OA
ENDROOT
BRANCH   1  10
ATOM     10  C   UNL     1       5.838   4.231  16.351  0.00  0.00    +0.000 C 
ATOM     11  C   UNL     1       5.396   4.463  14.907  0.00  0.00    +0.000 C 
ATOM     12 CL   UNL     1       7.648   4.244  16.383  0.00  0.00    +0.000 Cl
ENDBRANCH   1  10
BRANCH   1  13
ATOM     13  C   UNL     1       5.849   6.587  17.169  0.00  0.00    +0.000 C 
ATOM     14  O   UNL     1       5.473   7.344  16.278  0.00  0.00    +0.000 OA
BRANCH  13  16
ATOM     15  C   UNL     1       7.670   7.989  17.554  0.00  0.00    +0.000 C 
ATOM     16  O   UNL     1       6.908   6.854  17.979  0.00  0.00    +0.000 OA
ENDBRANCH  13  16
ENDBRANCH   1  13
BRANCH   5  17
ATOM     17  O   UNL     1       2.485   2.781  19.763  0.00  0.00    +0.000 OA
BRANCH  17  18
ATOM     18  C   UNL     1       1.302   2.918  20.427  0.00  0.00    +0.000 C 
ATOM     19  C   UNL     1       1.433   2.556  21.874  0.00  0.00    +0.000 C 
ATOM     20  O   UNL     1       0.250   3.307  19.933  0.00  0.00    +0.000 OA
ENDBRANCH  17  18
ENDBRANCH   5  17
TORSDOF 5
ENDMDL
MODEL 3
REMARK VINA RESULT:      -6.6      1.953      2.956
REMARK  Name = 
REMARK  10 active torsions:
REMARK  status: ('A' for Active; 'I' for Inactive)
REMARK    1  A    between atoms: C_1  and  O_2
REMARK    2  A    between atoms: O_2  and  C_3
REMARK    3  A    between atoms: C_3  and  C_5
REMARK    4  A    between atoms: C_5  and  C_6
REMARK    5  A    between atoms: C_6  and  C_7
REMARK    6  A    between atoms: C_10  and  C_11
REMARK    7  A    between atoms: C_12  and  C_13
REMARK    8  A    between atoms: C_12  and  O_14
REMARK    9  A    between atoms: O_14  and  C_15
REMARK   10  A    between atoms: C_15  and  C_16
REMARK                            x       y       z     vdW  Elec       q    Type
REMARK                         _______ _______ _______ _____ _____    ______ ____
ROOT
ATOM      1  C   UNL     1       5.556   4.990  17.713  0.00  0.00    +0.000 C 
ATOM      2  C   UNL     1       5.185   5.252  19.192  0.00  0.00    +0.000 C 
ATOM      3  C   UNL     1       3.693   5.206  19.526  0.00  0.00    +0.000 C 
ATOM      4  C   UNL     1       2.957   6.476  19.078  0.00  0.00    +0.000 C 
ATOM      5  C   UNL     1       3.049   3.911  18.996  0.00  0.00    +0.000 C 
ATOM      6  C   UNL     1       3.538   2.618  19.681  0.00  0.00    +0.000 C 
ATOM      7  C   UNL     1       3.434   3.760  17.504  0.00  0.00    +0.000 C 
ATOM      8  O   UNL     1       2.636   3.428  16.629  0.00  0.00    +0.000 OA
ATOM      9  O   UNL     1       4.768   3.870  17.228  0.00  0.00    +0.000 OA
ENDROOT
BRANCH   1  10
ATOM     10  C   UNL     1       5.370   6.205  16.744  0.00  0.00    +0.000 C 
ATOM     11  C   UNL     1       6.318   7.383  16.966  0.00  0.00    +0.000 C 
ATOM     12 CL   UNL     1       5.483   5.725  15.002  0.00  0.00    +0.000 Cl
ENDBRANCH   1  10
BRANCH   1  13
ATOM     13  C   UNL     1       7.078   4.685  17.740  0.00  0.00    +0.000 C 
ATOM     14  O   UNL     1       7.714   4.371  16.737  0.00  0.00    +0.000 OA
BRANCH  13  16
ATOM     15  C   UNL     1       8.275   5.960  19.281  0.00  0.00    +0.000 C 
ATOM     16  O   UNL     1       7.619   4.722  18.987  0.00  0.00    +0.000 OA
ENDBRANCH  13  16
ENDBRANCH   1  13
BRANCH   5  17
ATOM     17  O   UNL     1       1.594   3.956  19.125  0.00  0.00    +0.000 OA
BRANCH  17  18
ATOM     18  C   UNL     1       0.926   2.880  19.629  0.00  0.00    +0.000 C 
ATOM     19  C   UNL     1       1.000   2.832  21.124  0.00  0.00    +0.000 C 
ATOM     20  O   UNL     1       0.313   2.050  18.969  0.00  0.00    +0.000 OA
ENDBRANCH  17  18
ENDBRANCH   5  17
TORSDOF 5
ENDMDL
MODEL 4
REMARK VINA RESULT:      -6.4      2.072      3.188
REMARK  Name = 
REMARK  10 active torsions:
REMARK  status: ('A' for Active; 'I' for Inactive)
REMARK    1  A    between atoms: C_1  and  O_2
REMARK    2  A    between atoms: O_2  and  C_3
REMARK    3  A    between atoms: C_3  and  C_5
REMARK    4  A    between atoms: C_5  and  C_6
REMARK    5  A    between atoms: C_6  and  C_7
REMARK    6  A    between atoms: C_10  and  C_11
REMARK    7  A    between atoms: C_12  and  C_13
REMARK    8  A    between atoms: C_12  and  O_14
REMARK    9  A    between atoms: O_14  and  C_15
REMARK   10  A    between atoms: C_15  and  C_16
REMARK                            x       y       z     vdW  Elec       q    Type
REMARK                         _______ _______ _______ _____ _____    ______ ____
ROOT
ATOM      1  C   UNL     1       5.481   4.665  17.520  0.00  0.00    +0.000 C 
ATOM      2  C   UNL     1       4.847   5.437  18.701  0.00  0.00    +0.000 C 
ATOM      3  C   UNL     1       3.426   5.023  19.084  0.00  0.00    +0.000 C 
ATOM      4  C   UNL     1       2.375   5.577  18.112  0.00  0.00    +0.000 C 
ATOM      5  C   UNL     1       3.328   3.498  19.280  0.00  0.00    +0.000 C 
ATOM      6  C   UNL     1       4.123   2.948  20.483  0.00  0.00    +0.000 C 
ATOM      7  C   UNL     1       3.939   2.815  18.033  0.00  0.00    +0.000 C 
ATOM      8  O   UNL     1       3.425   1.852  17.467  0.00  0.00    +0.000 OA
ATOM      9  O   UNL     1       5.185   3.251  17.676  0.00  0.00    +0.000 OA
ENDROOT
BRANCH   1  10
ATOM     10  C   UNL     1       5.033   5.127  16.093  0.00  0.00    +0.000 C 
ATOM     11  C   UNL     1       5.310   6.590  15.750  0.00  0.00    +0.000 C 
ATOM     12 CL   UNL     1       5.749   4.108  14.779  0.00  0.00    +0.000 Cl
ENDBRANCH   1  10
BRANCH   1  13
ATOM     13  C   UNL     1       6.999   4.975  17.620  0.00  0.00    +0.000 C 
ATOM     14  O   UNL     1       7.839   4.438  16.901  0.00  0.00    +0.000 OA
BRANCH  13  16
ATOM     15  C   UNL     1       7.912   7.048  18.164  0.00  0.00    +0.000 C 
ATOM     16  O   UNL     1       7.315   5.832  18.626  0.00  0.00    +0.000 OA
ENDBRANCH  13  16
ENDBRANCH   1  13
BRANCH   5  17
ATOM     17  O   UNL     1       1.938   3.076  19.439  0.00  0.00    +0.000 OA
BRANCH  17  18
ATOM     18  C   UNL     1       1.230   3.477  20.532  0.00  0.00    +0.000 C 
ATOM     19  C   UNL     1       1.364   2.509  21.667  0.00  0.00    +0.000 C 
ATOM     20  O   UNL     1       0.572   4.508  20.614  0.00  0.00    +0.000 OA
ENDBRANCH  17  18
ENDBRANCH   5  17
TORSDOF 5
ENDMDL
MODEL 5
REMARK VINA RESULT:      -6.3      2.504      5.477
REMARK  Name = 
REMARK  10 active torsions:
REMARK  status: ('A' for Active; 'I' for Inactive)
REMARK    1  A    between atoms: C_1  and  O_2
REMARK    2  A    between atoms: O_2  and  C_3
REMARK    3  A    between atoms: C_3  and  C_5
REMARK    4  A    between atoms: C_5  and  C_6
REMARK    5  A    between atoms: C_6  and  C_7
REMARK    6  A    between atoms: C_10  and  C_11
REMARK    7  A    between atoms: C_12  and  C_13
REMARK    8  A    between atoms: C_12  and  O_14
REMARK    9  A    between atoms: O_14  and  C_15
REMARK   10  A    between atoms: C_15  and  C_16
REMARK                            x       y       z     vdW  Elec       q    Type
REMARK                         _______ _______ _______ _____ _____    ______ ____
ROOT
ATOM      1  C   UNL     1       2.982   3.992  19.183  0.00  0.00    +0.000 C 
ATOM      2  C   UNL     1       2.634   4.749  17.879  0.00  0.00    +0.000 C 
ATOM      3  C   UNL     1       3.483   5.984  17.576  0.00  0.00    +0.000 C 
ATOM      4  C   UNL     1       3.078   7.193  18.429  0.00  0.00    +0.000 C 
ATOM      5  C   UNL     1       4.986   5.656  17.662  0.00  0.00    +0.000 C 
ATOM      6  C   UNL     1       5.498   4.680  16.581  0.00  0.00    +0.000 C 
ATOM      7  C   UNL     1       5.245   4.948  19.014  0.00  0.00    +0.000 C 
ATOM      8  O   UNL     1       6.197   5.212  19.746  0.00  0.00    +0.000 OA
ATOM      9  O   UNL     1       4.428   3.886  19.287  0.00  0.00    +0.000 OA
ENDROOT
BRANCH   1  10
ATOM     10  C   UNL     1       2.419   4.621  20.501  0.00  0.00    +0.000 C 
ATOM     11  C   UNL     1       1.062   5.315  20.378  0.00  0.00    +0.000 C 
ATOM     12 CL   UNL     1       2.302   3.417  21.848  0.00  0.00    +0.000 Cl
ENDBRANCH   1  10
BRANCH   1  13
ATOM     13  C   UNL     1       2.290   2.611  19.030  0.00  0.00    +0.000 C 
ATOM     14  O   UNL     1       1.086   2.487  18.815  0.00  0.00    +0.000 OA
BRANCH  13  16
ATOM     15  C   UNL     1       3.847   1.174  18.060  0.00  0.00    +0.000 C 
ATOM     16  O   UNL     1       3.124   1.557  19.235  0.00  0.00    +0.000 OA
ENDBRANCH  13  16
ENDBRANCH   1  13
BRANCH   5  17
ATOM     17  O   UNL     1       5.796   6.869  17.581  0.00  0.00    +0.000 OA
BRANCH  17  18
ATOM     18  C   UNL     1       7.090   6.792  17.161  0.00  0.00    +0.000 C 
ATOM     19  C   UNL     1       8.026   7.458  18.121  0.00  0.00    +0.000 C 
ATOM     20  O   UNL     1       7.474   6.236  16.138  0.00  0.00    +0.000 OA
ENDBRANCH  17  18
ENDBRANCH   5  17
TORSDOF 5
ENDMDL
MODEL 6
REMARK VINA RESULT:      -6.2      1.249      1.337
REMARK  Name = 
REMARK  10 active torsions:
REMARK  status: ('A' for Active; 'I' for Inactive)
REMARK    1  A    between atoms: C_1  and  O_2
REMARK    2  A    between atoms: O_2  and  C_3
REMARK    3  A    between atoms: C_3  and  C_5
REMARK    4  A    between atoms: C_5  and  C_6
REMARK    5  A    between atoms: C_6  and  C_7
REMARK    6  A    between atoms: C_10  and  C_11
REMARK    7  A    between atoms: C_12  and  C_13
REMARK    8  A    between atoms: C_12  and  O_14
REMARK    9  A    between atoms: O_14  and  C_15
REMARK   10  A    between atoms: C_15  and  C_16
REMARK                            x       y       z     vdW  Elec       q    Type
REMARK                         _______ _______ _______ _____ _____    ______ ____
ROOT
ATOM      1  C   UNL     1       5.820   5.210  17.297  0.00  0.00    +0.000 C 
ATOM      2  C   UNL     1       5.527   3.798  17.856  0.00  0.00    +0.000 C 
ATOM      3  C   UNL     1       4.305   3.679  18.768  0.00  0.00    +0.000 C 
ATOM      4  C   UNL     1       4.576   4.220  20.178  0.00  0.00    +0.000 C 
ATOM      5  C   UNL     1       3.060   4.302  18.107  0.00  0.00    +0.000 C 
ATOM      6  C   UNL     1       2.556   3.561  16.851  0.00  0.00    +0.000 C 
ATOM      7  C   UNL     1       3.435   5.725  17.626  0.00  0.00    +0.000 C 
ATOM      8  O   UNL     1       2.711   6.706  17.784  0.00  0.00    +0.000 OA
ATOM      9  O   UNL     1       4.568   5.809  16.866  0.00  0.00    +0.000 OA
ENDROOT
BRANCH   1  10
ATOM     10  C   UNL     1       6.542   6.190  18.282  0.00  0.00    +0.000 C 
ATOM     11  C   UNL     1       7.627   5.568  19.161  0.00  0.00    +0.000 C 
ATOM     12 CL   UNL     1       7.270   7.614  17.433  0.00  0.00    +0.000 Cl
ENDBRANCH   1  10
BRANCH   1  13
ATOM     13  C   UNL     1       6.806   4.970  16.123  0.00  0.00    +0.000 C 
ATOM     14  O   UNL     1       7.927   4.491  16.278  0.00  0.00    +0.000 OA
BRANCH  13  16
ATOM     15  C   UNL     1       6.059   4.352  14.003  0.00  0.00    +0.000 C 
ATOM     16  O   UNL     1       6.342   5.411  14.923  0.00  0.00    +0.000 OA
ENDBRANCH  13  16
ENDBRANCH   1  13
BRANCH   5  17
ATOM     17  O   UNL     1       1.947   4.380  19.050  0.00  0.00    +0.000 OA
BRANCH  17  18
ATOM     18  C   UNL     1       1.218   3.263  19.330  0.00  0.00    +0.000 C 
ATOM     19  C   UNL     1       1.227   2.947  20.794  0.00  0.00    +0.000 C 
ATOM     20  O   UNL     1       0.602   2.592  18.511  0.00  0.00    +0.000 OA
ENDBRANCH  17  18
ENDBRANCH   5  17
TORSDOF 5
ENDMDL
MODEL 7
REMARK VINA RESULT:      -6.0      2.538      5.626
REMARK  Name = 
REMARK  10 active torsions:
REMARK  status: ('A' for Active; 'I' for Inactive)
REMARK    1  A    between atoms: C_1  and  O_2
REMARK    2  A    between atoms: O_2  and  C_3
REMARK    3  A    between atoms: C_3  and  C_5
REMARK    4  A    between atoms: C_5  and  C_6
REMARK    5  A    between atoms: C_6  and  C_7
REMARK    6  A    between atoms: C_10  and  C_11
REMARK    7  A    between atoms: C_12  and  C_13
REMARK    8  A    between atoms: C_12  and  O_14
REMARK    9  A    between atoms: O_14  and  C_15
REMARK   10  A    between atoms: C_15  and  C_16
REMARK                            x       y       z     vdW  Elec       q    Type
REMARK                         _______ _______ _______ _____ _____    ______ ____
ROOT
ATOM      1  C   UNL     1       3.349   3.691  19.245  0.00  0.00    +0.000 C 
ATOM      2  C   UNL     1       2.908   4.393  17.940  0.00  0.00    +0.000 C 
ATOM      3  C   UNL     1       3.623   5.705  17.611  0.00  0.00    +0.000 C 
ATOM      4  C   UNL     1       3.108   6.877  18.458  0.00  0.00    +0.000 C 
ATOM      5  C   UNL     1       5.152   5.533  17.679  0.00  0.00    +0.000 C 
ATOM      6  C   UNL     1       5.746   4.602  16.601  0.00  0.00    +0.000 C 
ATOM      7  C   UNL     1       5.500   4.870  19.034  0.00  0.00    +0.000 C 
ATOM      8  O   UNL     1       6.430   5.239  19.749  0.00  0.00    +0.000 OA
ATOM      9  O   UNL     1       4.799   3.734  19.330  0.00  0.00    +0.000 OA
ENDROOT
BRANCH   1  10
ATOM     10  C   UNL     1       2.742   4.275  20.565  0.00  0.00    +0.000 C 
ATOM     11  C   UNL     1       1.389   4.971  20.423  0.00  0.00    +0.000 C 
ATOM     12 CL   UNL     1       2.585   3.026  21.866  0.00  0.00    +0.000 Cl
ENDBRANCH   1  10
BRANCH   1  13
ATOM     13  C   UNL     1       2.799   2.245  19.117  0.00  0.00    +0.000 C 
ATOM     14  O   UNL     1       3.425   1.338  18.572  0.00  0.00    +0.000 OA
BRANCH  13  16
ATOM     15  C   UNL     1       0.547   2.038  18.556  0.00  0.00    +0.000 C 
ATOM     16  O   UNL     1       1.534   2.099  19.592  0.00  0.00    +0.000 OA
ENDBRANCH  13  16
ENDBRANCH   1  13
BRANCH   5  17
ATOM     17  O   UNL     1       5.832   6.821  17.574  0.00  0.00    +0.000 OA
BRANCH  17  18
ATOM     18  C   UNL     1       7.116   6.874  17.118  0.00  0.00    +0.000 C 
ATOM     19  C   UNL     1       7.967   7.775  17.957  0.00  0.00    +0.000 C 
ATOM     20  O   UNL     1       7.554   6.255  16.155  0.00  0.00    +0.000 OA
ENDBRANCH  17  18
ENDBRANCH   5  17
TORSDOF 5
ENDMDL
MODEL 8
REMARK VINA RESULT:      -5.9      1.841      2.416
REMARK  Name = 
REMARK  10 active torsions:
REMARK  status: ('A' for Active; 'I' for Inactive)
REMARK    1  A    between atoms: C_1  and  O_2
REMARK    2  A    between atoms: O_2  and  C_3
REMARK    3  A    between atoms: C_3  and  C_5
REMARK    4  A    between atoms: C_5  and  C_6
REMARK    5  A    between atoms: C_6  and  C_7
REMARK    6  A    between atoms: C_10  and  C_11
REMARK    7  A    between atoms: C_12  and  C_13
REMARK    8  A    between atoms: C_12  and  O_14
REMARK    9  A    between atoms: O_14  and  C_15
REMARK   10  A    between atoms: C_15  and  C_16
REMARK                            x       y       z     vdW  Elec       q    Type
REMARK                         _______ _______ _______ _____ _____    ______ ____
ROOT
ATOM      1  C   UNL     1       5.558   5.078  17.657  0.00  0.00    +0.000 C 
ATOM      2  C   UNL     1       5.376   4.930  19.186  0.00  0.00    +0.000 C 
ATOM      3  C   UNL     1       3.932   4.879  19.686  0.00  0.00    +0.000 C 
ATOM      4  C   UNL     1       3.273   6.265  19.706  0.00  0.00    +0.000 C 
ATOM      5  C   UNL     1       3.115   3.830  18.909  0.00  0.00    +0.000 C 
ATOM      6  C   UNL     1       3.552   2.368  19.141  0.00  0.00    +0.000 C 
ATOM      7  C   UNL     1       3.320   4.087  17.396  0.00  0.00    +0.000 C 
ATOM      8  O   UNL     1       2.404   4.066  16.575  0.00  0.00    +0.000 OA
ATOM      9  O   UNL     1       4.621   4.192  16.989  0.00  0.00    +0.000 OA
ENDROOT
BRANCH   1  10
ATOM     10  C   UNL     1       5.382   6.528  17.093  0.00  0.00    +0.000 C 
ATOM     11  C   UNL     1       6.565   7.472  17.306  0.00  0.00    +0.000 C 
ATOM     12 CL   UNL     1       4.978   6.540  15.328  0.00  0.00    +0.000 Cl
ENDBRANCH   1  10
BRANCH   1  13
ATOM     13  C   UNL     1       7.039   4.689  17.400  0.00  0.00    +0.000 C 
ATOM     14  O   UNL     1       7.818   4.394  18.303  0.00  0.00    +0.000 OA
BRANCH  13  16
ATOM     15  C   UNL     1       6.808   3.781  15.266  0.00  0.00    +0.000 C 
ATOM     16  O   UNL     1       7.408   4.782  16.095  0.00  0.00    +0.000 OA
ENDBRANCH  13  16
ENDBRANCH   1  13
BRANCH   5  17
ATOM     17  O   UNL     1       1.693   3.922  19.234  0.00  0.00    +0.000 OA
BRANCH  17  18
ATOM     18  C   UNL     1       1.045   2.839  19.750  0.00  0.00    +0.000 C 
ATOM     19  C   UNL     1       1.231   2.735  21.232  0.00  0.00    +0.000 C 
ATOM     20  O   UNL     1       0.368   2.043  19.109  0.00  0.00    +0.000 OA
ENDBRANCH  17  18
ENDBRANCH   5  17
TORSDOF 5
ENDMDL
MODEL 9
REMARK VINA RESULT:      -5.9      2.517      5.727
REMARK  Name = 
REMARK  10 active torsions:
REMARK  status: ('A' for Active; 'I' for Inactive)
REMARK    1  A    between atoms: C_1  and  O_2
REMARK    2  A    between atoms: O_2  and  C_3
REMARK    3  A    between atoms: C_3  and  C_5
REMARK    4  A    between atoms: C_5  and  C_6
REMARK    5  A    between atoms: C_6  and  C_7
REMARK    6  A    between atoms: C_10  and  C_11
REMARK    7  A    between atoms: C_12  and  C_13
REMARK    8  A    between atoms: C_12  and  O_14
REMARK    9  A    between atoms: O_14  and  C_15
REMARK   10  A    between atoms: C_15  and  C_16
REMARK                            x       y       z     vdW  Elec       q    Type
REMARK                         _______ _______ _______ _____ _____    ______ ____
ROOT
ATOM      1  C   UNL     1       3.719   3.404  19.621  0.00  0.00    +0.000 C 
ATOM      2  C   UNL     1       4.896   3.067  18.676  0.00  0.00    +0.000 C 
ATOM      3  C   UNL     1       5.284   4.158  17.677  0.00  0.00    +0.000 C 
ATOM      4  C   UNL     1       4.310   4.239  16.494  0.00  0.00    +0.000 C 
ATOM      5  C   UNL     1       5.490   5.510  18.387  0.00  0.00    +0.000 C 
ATOM      6  C   UNL     1       6.696   5.557  19.349  0.00  0.00    +0.000 C 
ATOM      7  C   UNL     1       4.247   5.783  19.267  0.00  0.00    +0.000 C 
ATOM      8  O   UNL     1       3.688   6.877  19.330  0.00  0.00    +0.000 OA
ATOM      9  O   UNL     1       3.885   4.764  20.105  0.00  0.00    +0.000 OA
ENDROOT
BRANCH   1  10
ATOM     10  C   UNL     1       2.289   3.253  19.001  0.00  0.00    +0.000 C 
ATOM     11  C   UNL     1       1.852   1.824  18.680  0.00  0.00    +0.000 C 
ATOM     12 CL   UNL     1       1.005   4.004  20.032  0.00  0.00    +0.000 Cl
ENDBRANCH   1  10
BRANCH   1  13
ATOM     13  C   UNL     1       3.814   2.349  20.756  0.00  0.00    +0.000 C 
ATOM     14  O   UNL     1       3.102   2.378  21.757  0.00  0.00    +0.000 OA
BRANCH  13  16
ATOM     15  C   UNL     1       5.369   0.963  21.801  0.00  0.00    +0.000 C 
ATOM     16  O   UNL     1       4.810   1.441  20.573  0.00  0.00    +0.000 OA
ENDBRANCH  13  16
ENDBRANCH   1  13
BRANCH   5  17
ATOM     17  O   UNL     1       5.654   6.593  17.420  0.00  0.00    +0.000 OA
BRANCH  17  18
ATOM     18  C   UNL     1       6.887   6.856  16.902  0.00  0.00    +0.000 C 
ATOM     19  C   UNL     1       7.493   8.084  17.507  0.00  0.00    +0.000 C 
ATOM     20  O   UNL     1       7.464   6.179  16.059  0.00  0.00    +0.000 OA
ENDBRANCH  17  18
ENDBRANCH   5  17
TORSDOF 5
ENDMDL
