MODEL 1
REMARK VINA RESULT:      -7.4      0.000      0.000
REMARK  Name = 
REMARK  0 active torsions:
REMARK  status: ('A' for Active; 'I' for Inactive)
REMARK                            x       y       z     vdW  Elec       q    Type
REMARK                         _______ _______ _______ _____ _____    ______ ____
ROOT
ATOM      1 CL   UNL     1       7.106   4.778  13.878  0.00  0.00    +0.000 Cl
ATOM      2  C   UNL     1       6.575   4.596  15.502  0.00  0.00    +0.000 A 
ATOM      3  C   UNL     1       5.243   4.330  15.772  0.00  0.00    +0.000 A 
ATOM      4  C   UNL     1       4.907   4.197  17.127  0.00  0.00    +0.000 A 
ATOM      5  C   UNL     1       5.915   4.338  18.078  0.00  0.00    +0.000 A 
ATOM      6  C   UNL     1       7.233   4.605  17.727  0.00  0.00    +0.000 A 
ATOM      7  N   UNL     1       7.552   4.733  16.422  0.00  0.00    +0.000 NA
ATOM      8  N   UNL     1       5.335   4.164  19.312  0.00  0.00    +0.000 N 
ATOM      9  C   UNL     1       3.988   3.916  19.190  0.00  0.00    +0.000 A 
ATOM     10  C   UNL     1       3.020   3.681  20.174  0.00  0.00    +0.000 A 
ATOM     11  C   UNL     1       1.707   3.455  19.748  0.00  0.00    +0.000 A 
ATOM     12  C   UNL     1       1.378   3.462  18.396  0.00  0.00    +0.000 A 
ATOM     13  C   UNL     1       2.359   3.698  17.425  0.00  0.00    +0.000 A 
ATOM     14  C   UNL     1       3.689   3.929  17.828  0.00  0.00    +0.000 A 
ATOM     15  H   UNL     1       5.827   4.211  20.193  0.00  0.00    +0.000 HD
ENDROOT
TORSDOF 0
ENDMDL
MODEL 2
REMARK VINA RESULT:      -7.0      1.199      1.311
REMARK  Name = 
REMARK  0 active torsions:
REMARK  status: ('A' for Active; 'I' for Inactive)
REMARK                            x       y       z     vdW  Elec       q    Type
REMARK                         _______ _______ _______ _____ _____    ______ ____
ROOT
ATOM      1 CL   UNL     1       6.504   4.273  14.608  0.00  0.00    +0.000 Cl
ATOM      2  C   UNL     1       5.796   4.643  16.129  0.00  0.00    +0.000 A 
ATOM      3  C   UNL     1       4.613   4.033  16.512  0.00  0.00    +0.000 A 
ATOM      4  C   UNL     1       4.114   4.399  17.771  0.00  0.00    +0.000 A 
ATOM      5  C   UNL     1       4.830   5.327  18.525  0.00  0.00    +0.000 A 
ATOM      6  C   UNL     1       6.014   5.896  18.071  0.00  0.00    +0.000 A 
ATOM      7  N   UNL     1       6.489   5.541  16.858  0.00  0.00    +0.000 NA
ATOM      8  N   UNL     1       4.141   5.511  19.700  0.00  0.00    +0.000 N 
ATOM      9  C   UNL     1       3.006   4.735  19.731  0.00  0.00    +0.000 A 
ATOM     10  C   UNL     1       2.024   4.609  20.720  0.00  0.00    +0.000 A 
ATOM     11  C   UNL     1       0.966   3.729  20.473  0.00  0.00    +0.000 A 
ATOM     12  C   UNL     1       0.895   3.005  19.286  0.00  0.00    +0.000 A 
ATOM     13  C   UNL     1       1.886   3.144  18.307  0.00  0.00    +0.000 A 
ATOM     14  C   UNL     1       2.963   4.024  18.532  0.00  0.00    +0.000 A 
ATOM     15  H   UNL     1       4.426   6.133  20.444  0.00  0.00    +0.000 HD
ENDROOT
TORSDOF 0
ENDMDL
MODEL 3
REMARK VINA RESULT:      -7.0      1.963      2.322
REMARK  Name = 
REMARK  0 active torsions:
REMARK  status: ('A' for Active; 'I' for Inactive)
REMARK                            x       y       z     vdW  Elec       q    Type
REMARK                         _______ _______ _______ _____ _____    ______ ____
ROOT
ATOM      1 CL   UNL     1       7.611   8.253  17.412  0.00  0.00    +0.000 Cl
ATOM      2  C   UNL     1       6.804   6.751  17.195  0.00  0.00    +0.000 A 
ATOM      3  C   UNL     1       5.556   6.546  17.759  0.00  0.00    +0.000 A 
ATOM      4  C   UNL     1       4.978   5.290  17.526  0.00  0.00    +0.000 A 
ATOM      5  C   UNL     1       5.685   4.364  16.762  0.00  0.00    +0.000 A 
ATOM      6  C   UNL     1       6.937   4.646  16.227  0.00  0.00    +0.000 A 
ATOM      7  N   UNL     1       7.490   5.857  16.455  0.00  0.00    +0.000 NA
ATOM      8  N   UNL     1       4.913   3.230  16.681  0.00  0.00    +0.000 N 
ATOM      9  C   UNL     1       3.731   3.391  17.366  0.00  0.00    +0.000 A 
ATOM     10  C   UNL     1       2.663   2.505  17.546  0.00  0.00    +0.000 A 
ATOM     11  C   UNL     1       1.574   2.949  18.304  0.00  0.00    +0.000 A 
ATOM     12  C   UNL     1       1.557   4.226  18.857  0.00  0.00    +0.000 A 
ATOM     13  C   UNL     1       2.635   5.099  18.668  0.00  0.00    +0.000 A 
ATOM     14  C   UNL     1       3.743   4.676  17.908  0.00  0.00    +0.000 A 
ATOM     15  H   UNL     1       5.173   2.389  16.185  0.00  0.00    +0.000 HD
ENDROOT
TORSDOF 0
ENDMDL
MODEL 4
REMARK VINA RESULT:      -7.0      2.565      4.833
REMARK  Name = 
REMARK  0 active torsions:
REMARK  status: ('A' for Active; 'I' for Inactive)
REMARK                            x       y       z     vdW  Elec       q    Type
REMARK                         _______ _______ _______ _____ _____    ______ ____
ROOT
ATOM      1 CL   UNL     1       0.443   2.162  18.680  0.00  0.00    +0.000 Cl
ATOM      2  C   UNL     1       2.078   2.692  18.693  0.00  0.00    +0.000 A 
ATOM      3  C   UNL     1       2.682   3.112  17.520  0.00  0.00    +0.000 A 
ATOM      4  C   UNL     1       4.017   3.526  17.631  0.00  0.00    +0.000 A 
ATOM      5  C   UNL     1       4.623   3.485  18.885  0.00  0.00    +0.000 A 
ATOM      6  C   UNL     1       3.948   3.050  20.020  0.00  0.00    +0.000 A 
ATOM      7  N   UNL     1       2.663   2.651  19.907  0.00  0.00    +0.000 NA
ATOM      8  N   UNL     1       5.911   3.936  18.728  0.00  0.00    +0.000 N 
ATOM      9  C   UNL     1       6.159   4.267  17.416  0.00  0.00    +0.000 A 
ATOM     10  C   UNL     1       7.321   4.762  16.813  0.00  0.00    +0.000 A 
ATOM     11  C   UNL     1       7.280   5.011  15.437  0.00  0.00    +0.000 A 
ATOM     12  C   UNL     1       6.125   4.775  14.698  0.00  0.00    +0.000 A 
ATOM     13  C   UNL     1       4.971   4.280  15.318  0.00  0.00    +0.000 A 
ATOM     14  C   UNL     1       4.986   4.021  16.703  0.00  0.00    +0.000 A 
ATOM     15  H   UNL     1       6.590   4.016  19.473  0.00  0.00    +0.000 HD
ENDROOT
TORSDOF 0
ENDMDL
MODEL 5
REMARK VINA RESULT:      -7.0      1.647      1.753
REMARK  Name = 
REMARK  0 active torsions:
REMARK  status: ('A' for Active; 'I' for Inactive)
REMARK                            x       y       z     vdW  Elec       q    Type
REMARK                         _______ _______ _______ _____ _____    ______ ____
ROOT
ATOM      1 CL   UNL     1       6.722   4.681  14.280  0.00  0.00    +0.000 Cl
ATOM      2  C   UNL     1       5.669   5.071  15.581  0.00  0.00    +0.000 A 
ATOM      3  C   UNL     1       4.795   4.117  16.077  0.00  0.00    +0.000 A 
ATOM      4  C   UNL     1       3.977   4.529  17.139  0.00  0.00    +0.000 A 
ATOM      5  C   UNL     1       4.102   5.835  17.606  0.00  0.00    +0.000 A 
ATOM      6  C   UNL     1       5.006   6.736  17.055  0.00  0.00    +0.000 A 
ATOM      7  N   UNL     1       5.791   6.336  16.032  0.00  0.00    +0.000 NA
ATOM      8  N   UNL     1       3.204   5.985  18.636  0.00  0.00    +0.000 N 
ATOM      9  C   UNL     1       2.504   4.822  18.850  0.00  0.00    +0.000 A 
ATOM     10  C   UNL     1       1.504   4.527  19.784  0.00  0.00    +0.000 A 
ATOM     11  C   UNL     1       0.964   3.237  19.769  0.00  0.00    +0.000 A 
ATOM     12  C   UNL     1       1.407   2.283  18.858  0.00  0.00    +0.000 A 
ATOM     13  C   UNL     1       2.408   2.594  17.930  0.00  0.00    +0.000 A 
ATOM     14  C   UNL     1       2.968   3.887  17.925  0.00  0.00    +0.000 A 
ATOM     15  H   UNL     1       3.072   6.835  19.167  0.00  0.00    +0.000 HD
ENDROOT
TORSDOF 0
ENDMDL
MODEL 6
REMARK VINA RESULT:      -6.8      1.870      2.648
REMARK  Name = 
REMARK  0 active torsions:
REMARK  status: ('A' for Active; 'I' for Inactive)
REMARK                            x       y       z     vdW  Elec       q    Type
REMARK                         _______ _______ _______ _____ _____    ______ ____
ROOT
ATOM      1 CL   UNL     1       8.022   6.307  18.853  0.00  0.00    +0.000 Cl
ATOM      2  C   UNL     1       6.633   5.421  18.366  0.00  0.00    +0.000 A 
ATOM      3  C   UNL     1       5.570   5.261  19.240  0.00  0.00    +0.000 A 
ATOM      4  C   UNL     1       4.481   4.524  18.753  0.00  0.00    +0.000 A 
ATOM      5  C   UNL     1       4.548   4.020  17.456  0.00  0.00    +0.000 A 
ATOM      6  C   UNL     1       5.652   4.224  16.637  0.00  0.00    +0.000 A 
ATOM      7  N   UNL     1       6.698   4.934  17.111  0.00  0.00    +0.000 NA
ATOM      8  N   UNL     1       3.372   3.346  17.222  0.00  0.00    +0.000 N 
ATOM      9  C   UNL     1       2.550   3.397  18.323  0.00  0.00    +0.000 A 
ATOM     10  C   UNL     1       1.275   2.855  18.524  0.00  0.00    +0.000 A 
ATOM     11  C   UNL     1       0.669   3.071  19.766  0.00  0.00    +0.000 A 
ATOM     12  C   UNL     1       1.312   3.800  20.763  0.00  0.00    +0.000 A 
ATOM     13  C   UNL     1       2.587   4.335  20.544  0.00  0.00    +0.000 A 
ATOM     14  C   UNL     1       3.220   4.132  19.301  0.00  0.00    +0.000 A 
ATOM     15  H   UNL     1       3.140   2.875  16.359  0.00  0.00    +0.000 HD
ENDROOT
TORSDOF 0
ENDMDL
MODEL 7
REMARK VINA RESULT:      -6.7      2.565      5.301
REMARK  Name = 
REMARK  0 active torsions:
REMARK  status: ('A' for Active; 'I' for Inactive)
REMARK                            x       y       z     vdW  Elec       q    Type
REMARK                         _______ _______ _______ _____ _____    ______ ____
ROOT
ATOM      1 CL   UNL     1       3.329   3.792  19.105  0.00  0.00    +0.000 Cl
ATOM      2  C   UNL     1       4.553   4.329  18.025  0.00  0.00    +0.000 A 
ATOM      3  C   UNL     1       4.552   3.902  16.707  0.00  0.00    +0.000 A 
ATOM      4  C   UNL     1       5.590   4.395  15.903  0.00  0.00    +0.000 A 
ATOM      5  C   UNL     1       6.522   5.258  16.476  0.00  0.00    +0.000 A 
ATOM      6  C   UNL     1       6.454   5.642  17.810  0.00  0.00    +0.000 A 
ATOM      7  N   UNL     1       5.454   5.164  18.581  0.00  0.00    +0.000 NA
ATOM      8  N   UNL     1       7.421   5.594  15.492  0.00  0.00    +0.000 N 
ATOM      9  C   UNL     1       7.103   4.978  14.304  0.00  0.00    +0.000 A 
ATOM     10  C   UNL     1       7.737   5.036  13.058  0.00  0.00    +0.000 A 
ATOM     11  C   UNL     1       7.179   4.293  12.013  0.00  0.00    +0.000 A 
ATOM     12  C   UNL     1       6.035   3.525  12.208  0.00  0.00    +0.000 A 
ATOM     13  C   UNL     1       5.413   3.478  13.462  0.00  0.00    +0.000 A 
ATOM     14  C   UNL     1       5.955   4.218  14.531  0.00  0.00    +0.000 A 
ATOM     15  H   UNL     1       8.212   6.210  15.619  0.00  0.00    +0.000 HD
ENDROOT
TORSDOF 0
ENDMDL
MODEL 8
REMARK VINA RESULT:      -6.6      2.871      4.762
REMARK  Name = 
REMARK  0 active torsions:
REMARK  status: ('A' for Active; 'I' for Inactive)
REMARK                            x       y       z     vdW  Elec       q    Type
REMARK                         _______ _______ _______ _____ _____    ______ ____
ROOT
ATOM      1 CL   UNL     1       0.420   2.534  18.678  0.00  0.00    +0.000 Cl
ATOM      2  C   UNL     1       2.085   2.934  18.824  0.00  0.00    +0.000 A 
ATOM      3  C   UNL     1       2.584   4.069  18.207  0.00  0.00    +0.000 A 
ATOM      4  C   UNL     1       3.953   4.312  18.385  0.00  0.00    +0.000 A 
ATOM      5  C   UNL     1       4.693   3.415  19.152  0.00  0.00    +0.000 A 
ATOM      6  C   UNL     1       4.119   2.295  19.743  0.00  0.00    +0.000 A 
ATOM      7  N   UNL     1       2.800   2.065  19.568  0.00  0.00    +0.000 NA
ATOM      8  N   UNL     1       5.989   3.873  19.174  0.00  0.00    +0.000 N 
ATOM      9  C   UNL     1       6.112   5.033  18.446  0.00  0.00    +0.000 A 
ATOM     10  C   UNL     1       7.235   5.832  18.202  0.00  0.00    +0.000 A 
ATOM     11  C   UNL     1       7.058   6.974  17.414  0.00  0.00    +0.000 A 
ATOM     12  C   UNL     1       5.810   7.301  16.893  0.00  0.00    +0.000 A 
ATOM     13  C   UNL     1       4.697   6.491  17.147  0.00  0.00    +0.000 A 
ATOM     14  C   UNL     1       4.848   5.335  17.939  0.00  0.00    +0.000 A 
ATOM     15  H   UNL     1       6.753   3.420  19.657  0.00  0.00    +0.000 HD
ENDROOT
TORSDOF 0
ENDMDL
MODEL 9
REMARK VINA RESULT:      -6.6      3.277      5.246
REMARK  Name = 
REMARK  0 active torsions:
REMARK  status: ('A' for Active; 'I' for Inactive)
REMARK                            x       y       z     vdW  Elec       q    Type
REMARK                         _______ _______ _______ _____ _____    ______ ____
ROOT
ATOM      1 CL   UNL     1       1.454   2.789  21.471  0.00  0.00    +0.000 Cl
ATOM      2  C   UNL     1       2.113   3.984  20.426  0.00  0.00    +0.000 A 
ATOM      3  C   UNL     1       2.908   3.610  19.356  0.00  0.00    +0.000 A 
ATOM      4  C   UNL     1       3.398   4.656  18.561  0.00  0.00    +0.000 A 
ATOM      5  C   UNL     1       3.056   5.963  18.898  0.00  0.00    +0.000 A 
ATOM      6  C   UNL     1       2.249   6.260  19.991  0.00  0.00    +0.000 A 
ATOM      7  N   UNL     1       1.781   5.249  20.754  0.00  0.00    +0.000 NA
ATOM      8  N   UNL     1       3.652   6.789  17.976  0.00  0.00    +0.000 N 
ATOM      9  C   UNL     1       4.368   6.061  17.055  0.00  0.00    +0.000 A 
ATOM     10  C   UNL     1       5.122   6.486  15.955  0.00  0.00    +0.000 A 
ATOM     11  C   UNL     1       5.750   5.504  15.182  0.00  0.00    +0.000 A 
ATOM     12  C   UNL     1       5.628   4.154  15.498  0.00  0.00    +0.000 A 
ATOM     13  C   UNL     1       4.869   3.746  16.601  0.00  0.00    +0.000 A 
ATOM     14  C   UNL     1       4.226   4.716  17.396  0.00  0.00    +0.000 A 
ATOM     15  H   UNL     1       3.578   7.797  17.971  0.00  0.00    +0.000 HD
ENDROOT
TORSDOF 0
ENDMDL
