MODEL 1
REMARK VINA RESULT:      -7.5      0.000      0.000
REMARK  Name = 
REMARK  6 active torsions:
REMARK  status: ('A' for Active; 'I' for Inactive)
REMARK    1  A    between atoms: C_1  and  C_2
REMARK    2  A    between atoms: C_2  and  C_3
REMARK    3  A    between atoms: C_2  and  C_4
REMARK    4  A    between atoms: C_2  and  C_5
REMARK    5  A    between atoms: C_7  and  C_8
REMARK    6  A    between atoms: C_8  and  N_9
REMARK                            x       y       z     vdW  Elec       q    Type
REMARK                         _______ _______ _______ _____ _____    ______ ____
ROOT
ATOM      1  N   UNL     1       6.538   4.782  16.963  0.00  0.00    +0.000 N 
ATOM      2  C   UNL     1       7.399   5.734  16.476  0.00  0.00    +0.000 A 
ATOM      3  N   UNL     1       7.677   5.909  15.228  0.00  0.00    +0.000 NA
ATOM      4  C   UNL     1       7.097   5.030  14.303  0.00  0.00    +0.000 A 
ATOM      5  C   UNL     1       7.464   5.124  12.959  0.00  0.00    +0.000 A 
ATOM      6  C   UNL     1       6.953   4.226  12.017  0.00  0.00    +0.000 A 
ATOM      7  C   UNL     1       6.049   3.241  12.416  0.00  0.00    +0.000 A 
ATOM      8 CL   UNL     1       5.446   2.118  11.262  0.00  0.00    +0.000 Cl
ATOM      9  C   UNL     1       5.653   3.146  13.747  0.00  0.00    +0.000 A 
ATOM     10  C   UNL     1       6.194   4.033  14.682  0.00  0.00    +0.000 A 
ATOM     11  C   UNL     1       5.871   3.908  16.115  0.00  0.00    +0.000 A 
ATOM     12  O   UNL     1       5.068   3.060  16.492  0.00  0.00    +0.000 OA
ENDROOT
BRANCH   1  13
ATOM     13  C   UNL     1       6.351   4.642  18.397  0.00  0.00    +0.000 C 
BRANCH  13  16
ATOM     14  C   UNL     1       2.933   4.211  19.565  0.00  0.00    +0.000 A 
ATOM     15  N   UNL     1       4.187   3.843  19.364  0.00  0.00    +0.000 NA
ATOM     16  C   UNL     1       4.904   4.857  18.736  0.00  0.00    +0.000 A 
ATOM     17  C   UNL     1       4.167   5.995  18.468  0.00  0.00    +0.000 A 
ATOM     18  S   UNL     1       2.566   5.814  19.025  0.00  0.00    +0.000 S 
BRANCH  14  20
ATOM     19  C   UNL     1       0.580   4.157  20.456  0.00  0.00    +0.000 C 
ATOM     20  C   UNL     1       1.858   3.329  20.202  0.00  0.00    +0.000 C 
ATOM     21  C   UNL     1       2.349   2.769  21.551  0.00  0.00    +0.000 C 
ATOM     22  C   UNL     1       1.484   2.156  19.275  0.00  0.00    +0.000 C 
ENDBRANCH  14  20
ENDBRANCH  13  16
ENDBRANCH   1  13
TORSDOF 3
ENDMDL
MODEL 2
REMARK VINA RESULT:      -7.2      5.970      8.079
REMARK  Name = 
REMARK  6 active torsions:
REMARK  status: ('A' for Active; 'I' for Inactive)
REMARK    1  A    between atoms: C_1  and  C_2
REMARK    2  A    between atoms: C_2  and  C_3
REMARK    3  A    between atoms: C_2  and  C_4
REMARK    4  A    between atoms: C_2  and  C_5
REMARK    5  A    between atoms: C_7  and  C_8
REMARK    6  A    between atoms: C_8  and  N_9
REMARK                            x       y       z     vdW  Elec       q    Type
REMARK                         _______ _______ _______ _____ _____    ______ ____
ROOT
ATOM      1  N   UNL     1       1.661   9.240  19.246  0.00  0.00    +0.000 N 
ATOM      2  C   UNL     1       1.265   8.899  20.515  0.00  0.00    +0.000 A 
ATOM      3  N   UNL     1       1.307   7.706  21.005  0.00  0.00    +0.000 NA
ATOM      4  C   UNL     1       1.740   6.672  20.165  0.00  0.00    +0.000 A 
ATOM      5  C   UNL     1       1.693   5.357  20.632  0.00  0.00    +0.000 A 
ATOM      6  C   UNL     1       2.059   4.294  19.801  0.00  0.00    +0.000 A 
ATOM      7  C   UNL     1       2.500   4.547  18.502  0.00  0.00    +0.000 A 
ATOM      8 CL   UNL     1       2.921   3.236  17.472  0.00  0.00    +0.000 Cl
ATOM      9  C   UNL     1       2.577   5.853  18.026  0.00  0.00    +0.000 A 
ATOM     10  C   UNL     1       2.181   6.904  18.859  0.00  0.00    +0.000 A 
ATOM     11  C   UNL     1       2.160   8.292  18.364  0.00  0.00    +0.000 A 
ATOM     12  O   UNL     1       2.557   8.545  17.230  0.00  0.00    +0.000 OA
ENDROOT
BRANCH   1  13
ATOM     13  C   UNL     1       1.509  10.611  18.784  0.00  0.00    +0.000 C 
BRANCH  13  16
ATOM     14  C   UNL     1      -2.045  10.817  18.037  0.00  0.00    +0.000 A 
ATOM     15  N   UNL     1      -0.815  10.351  17.898  0.00  0.00    +0.000 NA
ATOM     16  C   UNL     1       0.054  10.980  18.785  0.00  0.00    +0.000 A 
ATOM     17  C   UNL     1      -0.543  11.927  19.594  0.00  0.00    +0.000 A 
ATOM     18  S   UNL     1      -2.213  12.024  19.266  0.00  0.00    +0.000 S 
BRANCH  14  20
ATOM     19  C   UNL     1      -3.964   9.197  17.892  0.00  0.00    +0.000 C 
ATOM     20  C   UNL     1      -3.244  10.373  17.199  0.00  0.00    +0.000 C 
ATOM     21  C   UNL     1      -2.784   9.905  15.804  0.00  0.00    +0.000 C 
ATOM     22  C   UNL     1      -4.261  11.519  17.036  0.00  0.00    +0.000 C 
ENDBRANCH  14  20
ENDBRANCH  13  16
ENDBRANCH   1  13
TORSDOF 3
ENDMDL
MODEL 3
REMARK VINA RESULT:      -7.1      1.249      1.619
REMARK  Name = 
REMARK  6 active torsions:
REMARK  status: ('A' for Active; 'I' for Inactive)
REMARK    1  A    between atoms: C_1  and  C_2
REMARK    2  A    between atoms: C_2  and  C_3
REMARK    3  A    between atoms: C_2  and  C_4
REMARK    4  A    between atoms: C_2  and  C_5
REMARK    5  A    between atoms: C_7  and  C_8
REMARK    6  A    between atoms: C_8  and  N_9
REMARK                            x       y       z     vdW  Elec       q    Type
REMARK                         _______ _______ _______ _____ _____    ______ ____
ROOT
ATOM      1  N   UNL     1       5.823   5.758  17.034  0.00  0.00    +0.000 N 
ATOM      2  C   UNL     1       7.106   6.132  16.722  0.00  0.00    +0.000 A 
ATOM      3  N   UNL     1       7.692   5.896  15.597  0.00  0.00    +0.000 NA
ATOM      4  C   UNL     1       6.983   5.159  14.638  0.00  0.00    +0.000 A 
ATOM      5  C   UNL     1       7.628   4.795  13.454  0.00  0.00    +0.000 A 
ATOM      6  C   UNL     1       6.974   4.008  12.501  0.00  0.00    +0.000 A 
ATOM      7  C   UNL     1       5.657   3.603  12.720  0.00  0.00    +0.000 A 
ATOM      8 CL   UNL     1       4.866   2.610  11.560  0.00  0.00    +0.000 Cl
ATOM      9  C   UNL     1       4.990   3.976  13.882  0.00  0.00    +0.000 A 
ATOM     10  C   UNL     1       5.666   4.739  14.839  0.00  0.00    +0.000 A 
ATOM     11  C   UNL     1       5.026   5.078  16.124  0.00  0.00    +0.000 A 
ATOM     12  O   UNL     1       3.864   4.747  16.337  0.00  0.00    +0.000 OA
ENDROOT
BRANCH   1  13
ATOM     13  C   UNL     1       5.293   6.027  18.361  0.00  0.00    +0.000 C 
BRANCH  13  16
ATOM     14  C   UNL     1       2.989   3.581  19.753  0.00  0.00    +0.000 A 
ATOM     15  N   UNL     1       3.337   4.761  19.270  0.00  0.00    +0.000 NA
ATOM     16  C   UNL     1       4.683   4.773  18.919  0.00  0.00    +0.000 A 
ATOM     17  C   UNL     1       5.343   3.580  19.145  0.00  0.00    +0.000 A 
ATOM     18  S   UNL     1       4.271   2.418  19.783  0.00  0.00    +0.000 S 
BRANCH  14  20
ATOM     19  C   UNL     1       0.891   2.277  19.275  0.00  0.00    +0.000 C 
ATOM     20  C   UNL     1       1.593   3.227  20.268  0.00  0.00    +0.000 C 
ATOM     21  C   UNL     1       0.733   4.499  20.413  0.00  0.00    +0.000 C 
ATOM     22  C   UNL     1       1.670   2.513  21.631  0.00  0.00    +0.000 C 
ENDBRANCH  14  20
ENDBRANCH  13  16
ENDBRANCH   1  13
TORSDOF 3
ENDMDL
MODEL 4
REMARK VINA RESULT:      -7.1      5.727      9.031
REMARK  Name = 
REMARK  6 active torsions:
REMARK  status: ('A' for Active; 'I' for Inactive)
REMARK    1  A    between atoms: C_1  and  C_2
REMARK    2  A    between atoms: C_2  and  C_3
REMARK    3  A    between atoms: C_2  and  C_4
REMARK    4  A    between atoms: C_2  and  C_5
REMARK    5  A    between atoms: C_7  and  C_8
REMARK    6  A    between atoms: C_8  and  N_9
REMARK                            x       y       z     vdW  Elec       q    Type
REMARK                         _______ _______ _______ _____ _____    ______ ____
ROOT
ATOM      1  N   UNL     1       1.742   8.491  18.980  0.00  0.00    +0.000 N 
ATOM      2  C   UNL     1       1.989   7.670  20.052  0.00  0.00    +0.000 A 
ATOM      3  N   UNL     1       1.485   7.820  21.230  0.00  0.00    +0.000 NA
ATOM      4  C   UNL     1       0.661   8.933  21.447  0.00  0.00    +0.000 A 
ATOM      5  C   UNL     1       0.189   9.183  22.737  0.00  0.00    +0.000 A 
ATOM      6  C   UNL     1      -0.584  10.317  23.004  0.00  0.00    +0.000 A 
ATOM      7  C   UNL     1      -0.910  11.196  21.970  0.00  0.00    +0.000 A 
ATOM      8 CL   UNL     1      -1.834  12.605  22.307  0.00  0.00    +0.000 Cl
ATOM      9  C   UNL     1      -0.468  10.951  20.673  0.00  0.00    +0.000 A 
ATOM     10  C   UNL     1       0.328   9.828  20.427  0.00  0.00    +0.000 A 
ATOM     11  C   UNL     1       0.891   9.583  19.087  0.00  0.00    +0.000 A 
ATOM     12  O   UNL     1       0.610  10.331  18.156  0.00  0.00    +0.000 OA
ENDROOT
BRANCH   1  13
ATOM     13  C   UNL     1       2.419   8.254  17.716  0.00  0.00    +0.000 C 
BRANCH  13  16
ATOM     14  C   UNL     1       5.322   6.076  17.956  0.00  0.00    +0.000 A 
ATOM     15  N   UNL     1       4.700   7.237  17.847  0.00  0.00    +0.000 NA
ATOM     16  C   UNL     1       3.320   7.061  17.847  0.00  0.00    +0.000 A 
ATOM     17  C   UNL     1       2.914   5.745  17.960  0.00  0.00    +0.000 A 
ATOM     18  S   UNL     1       4.264   4.713  18.090  0.00  0.00    +0.000 S 
BRANCH  14  20
ATOM     19  C   UNL     1       7.229   4.704  17.055  0.00  0.00    +0.000 C 
ATOM     20  C   UNL     1       6.841   5.898  17.954  0.00  0.00    +0.000 C 
ATOM     21  C   UNL     1       7.354   5.618  19.380  0.00  0.00    +0.000 C 
ATOM     22  C   UNL     1       7.545   7.152  17.402  0.00  0.00    +0.000 C 
ENDBRANCH  14  20
ENDBRANCH  13  16
ENDBRANCH   1  13
TORSDOF 3
ENDMDL
MODEL 5
REMARK VINA RESULT:      -7.1      5.409      8.050
REMARK  Name = 
REMARK  6 active torsions:
REMARK  status: ('A' for Active; 'I' for Inactive)
REMARK    1  A    between atoms: C_1  and  C_2
REMARK    2  A    between atoms: C_2  and  C_3
REMARK    3  A    between atoms: C_2  and  C_4
REMARK    4  A    between atoms: C_2  and  C_5
REMARK    5  A    between atoms: C_7  and  C_8
REMARK    6  A    between atoms: C_8  and  N_9
REMARK                            x       y       z     vdW  Elec       q    Type
REMARK                         _______ _______ _______ _____ _____    ______ ____
ROOT
ATOM      1  N   UNL     1       2.208   8.049  18.843  0.00  0.00    +0.000 N 
ATOM      2  C   UNL     1       2.082   7.423  20.058  0.00  0.00    +0.000 A 
ATOM      3  N   UNL     1       1.360   7.852  21.038  0.00  0.00    +0.000 NA
ATOM      4  C   UNL     1       0.694   9.074  20.869  0.00  0.00    +0.000 A 
ATOM      5  C   UNL     1      -0.006   9.617  21.948  0.00  0.00    +0.000 A 
ATOM      6  C   UNL     1      -0.631  10.862  21.836  0.00  0.00    +0.000 A 
ATOM      7  C   UNL     1      -0.579  11.560  20.629  0.00  0.00    +0.000 A 
ATOM      8 CL   UNL     1      -1.323  13.105  20.503  0.00  0.00    +0.000 Cl
ATOM      9  C   UNL     1       0.093  11.024  19.534  0.00  0.00    +0.000 A 
ATOM     10  C   UNL     1       0.738   9.790  19.671  0.00  0.00    +0.000 A 
ATOM     11  C   UNL     1       1.537   9.231  18.565  0.00  0.00    +0.000 A 
ATOM     12  O   UNL     1       1.588   9.816  17.487  0.00  0.00    +0.000 OA
ENDROOT
BRANCH   1  13
ATOM     13  C   UNL     1       3.102   7.500  17.836  0.00  0.00    +0.000 C 
BRANCH  13  16
ATOM     14  C   UNL     1       3.228   4.005  18.838  0.00  0.00    +0.000 A 
ATOM     15  N   UNL     1       2.635   5.118  18.443  0.00  0.00    +0.000 NA
ATOM     16  C   UNL     1       3.565   6.138  18.269  0.00  0.00    +0.000 A 
ATOM     17  C   UNL     1       4.870   5.773  18.538  0.00  0.00    +0.000 A 
ATOM     18  S   UNL     1       4.947   4.132  18.994  0.00  0.00    +0.000 S 
BRANCH  14  20
ATOM     19  C   UNL     1       2.374   2.526  20.686  0.00  0.00    +0.000 C 
ATOM     20  C   UNL     1       2.502   2.697  19.157  0.00  0.00    +0.000 C 
ATOM     21  C   UNL     1       3.286   1.494  18.599  0.00  0.00    +0.000 C 
ATOM     22  C   UNL     1       1.081   2.694  18.562  0.00  0.00    +0.000 C 
ENDBRANCH  14  20
ENDBRANCH  13  16
ENDBRANCH   1  13
TORSDOF 3
ENDMDL
MODEL 6
REMARK VINA RESULT:      -7.1      5.630      8.418
REMARK  Name = 
REMARK  6 active torsions:
REMARK  status: ('A' for Active; 'I' for Inactive)
REMARK    1  A    between atoms: C_1  and  C_2
REMARK    2  A    between atoms: C_2  and  C_3
REMARK    3  A    between atoms: C_2  and  C_4
REMARK    4  A    between atoms: C_2  and  C_5
REMARK    5  A    between atoms: C_7  and  C_8
REMARK    6  A    between atoms: C_8  and  N_9
REMARK                            x       y       z     vdW  Elec       q    Type
REMARK                         _______ _______ _______ _____ _____    ______ ____
ROOT
ATOM      1  N   UNL     1       1.824   8.217  19.148  0.00  0.00    +0.000 N 
ATOM      2  C   UNL     1       1.951   7.536  20.333  0.00  0.00    +0.000 A 
ATOM      3  N   UNL     1       1.359   7.854  21.435  0.00  0.00    +0.000 NA
ATOM      4  C   UNL     1       0.566   9.010  21.437  0.00  0.00    +0.000 A 
ATOM      5  C   UNL     1       0.001   9.440  22.639  0.00  0.00    +0.000 A 
ATOM      6  C   UNL     1      -0.745  10.621  22.692  0.00  0.00    +0.000 A 
ATOM      7  C   UNL     1      -0.950  11.366  21.531  0.00  0.00    +0.000 A 
ATOM      8 CL   UNL     1      -1.842  12.834  21.605  0.00  0.00    +0.000 Cl
ATOM      9  C   UNL     1      -0.415  10.941  20.318  0.00  0.00    +0.000 A 
ATOM     10  C   UNL     1       0.353   9.773  20.286  0.00  0.00    +0.000 A 
ATOM     11  C   UNL     1       1.012   9.338  19.041  0.00  0.00    +0.000 A 
ATOM     12  O   UNL     1       0.837   9.966  18.002  0.00  0.00    +0.000 OA
ENDROOT
BRANCH   1  13
ATOM     13  C   UNL     1       2.592   7.798  17.987  0.00  0.00    +0.000 C 
BRANCH  13  16
ATOM     14  C   UNL     1       3.052   4.262  18.704  0.00  0.00    +0.000 A 
ATOM     15  N   UNL     1       2.348   5.359  18.487  0.00  0.00    +0.000 NA
ATOM     16  C   UNL     1       3.186   6.443  18.244  0.00  0.00    +0.000 A 
ATOM     17  C   UNL     1       4.534   6.142  18.281  0.00  0.00    +0.000 A 
ATOM     18  S   UNL     1       4.765   4.483  18.600  0.00  0.00    +0.000 S 
BRANCH  14  20
ATOM     19  C   UNL     1       0.996   2.821  18.532  0.00  0.00    +0.000 C 
ATOM     20  C   UNL     1       2.453   2.894  19.037  0.00  0.00    +0.000 C 
ATOM     21  C   UNL     1       2.450   2.663  20.561  0.00  0.00    +0.000 C 
ATOM     22  C   UNL     1       3.246   1.762  18.357  0.00  0.00    +0.000 C 
ENDBRANCH  14  20
ENDBRANCH  13  16
ENDBRANCH   1  13
TORSDOF 3
ENDMDL
MODEL 7
REMARK VINA RESULT:      -7.0      5.488      8.241
REMARK  Name = 
REMARK  6 active torsions:
REMARK  status: ('A' for Active; 'I' for Inactive)
REMARK    1  A    between atoms: C_1  and  C_2
REMARK    2  A    between atoms: C_2  and  C_3
REMARK    3  A    between atoms: C_2  and  C_4
REMARK    4  A    between atoms: C_2  and  C_5
REMARK    5  A    between atoms: C_7  and  C_8
REMARK    6  A    between atoms: C_8  and  N_9
REMARK                            x       y       z     vdW  Elec       q    Type
REMARK                         _______ _______ _______ _____ _____    ______ ____
ROOT
ATOM      1  N   UNL     1       2.003   7.343  19.531  0.00  0.00    +0.000 N 
ATOM      2  C   UNL     1       2.249   7.889  18.296  0.00  0.00    +0.000 A 
ATOM      3  N   UNL     1       1.958   9.099  17.952  0.00  0.00    +0.000 NA
ATOM      4  C   UNL     1       1.296   9.900  18.891  0.00  0.00    +0.000 A 
ATOM      5  C   UNL     1       0.872  11.176  18.512  0.00  0.00    +0.000 A 
ATOM      6  C   UNL     1       0.155  11.981  19.403  0.00  0.00    +0.000 A 
ATOM      7  C   UNL     1      -0.118  11.519  20.690  0.00  0.00    +0.000 A 
ATOM      8 CL   UNL     1      -1.026  12.499  21.773  0.00  0.00    +0.000 Cl
ATOM      9  C   UNL     1       0.317  10.261  21.095  0.00  0.00    +0.000 A 
ATOM     10  C   UNL     1       1.008   9.456  20.184  0.00  0.00    +0.000 A 
ATOM     11  C   UNL     1       1.406   8.082  20.543  0.00  0.00    +0.000 A 
ATOM     12  O   UNL     1       1.192   7.656  21.673  0.00  0.00    +0.000 OA
ENDROOT
BRANCH   1  13
ATOM     13  C   UNL     1       2.321   5.947  19.781  0.00  0.00    +0.000 C 
BRANCH  13  16
ATOM     14  C   UNL     1       5.524   5.406  18.144  0.00  0.00    +0.000 A 
ATOM     15  N   UNL     1       4.723   5.873  19.085  0.00  0.00    +0.000 NA
ATOM     16  C   UNL     1       3.404   5.505  18.839  0.00  0.00    +0.000 A 
ATOM     17  C   UNL     1       3.227   4.750  17.695  0.00  0.00    +0.000 A 
ATOM     18  S   UNL     1       4.723   4.475  16.925  0.00  0.00    +0.000 S 
BRANCH  14  20
ATOM     19  C   UNL     1       7.717   4.527  17.277  0.00  0.00    +0.000 C 
ATOM     20  C   UNL     1       7.033   5.651  18.083  0.00  0.00    +0.000 C 
ATOM     21  C   UNL     1       7.635   5.665  19.502  0.00  0.00    +0.000 C 
ATOM     22  C   UNL     1       7.348   6.990  17.388  0.00  0.00    +0.000 C 
ENDBRANCH  14  20
ENDBRANCH  13  16
ENDBRANCH   1  13
TORSDOF 3
ENDMDL
MODEL 8
REMARK VINA RESULT:      -7.0      5.906      8.764
REMARK  Name = 
REMARK  6 active torsions:
REMARK  status: ('A' for Active; 'I' for Inactive)
REMARK    1  A    between atoms: C_1  and  C_2
REMARK    2  A    between atoms: C_2  and  C_3
REMARK    3  A    between atoms: C_2  and  C_4
REMARK    4  A    between atoms: C_2  and  C_5
REMARK    5  A    between atoms: C_7  and  C_8
REMARK    6  A    between atoms: C_8  and  N_9
REMARK                            x       y       z     vdW  Elec       q    Type
REMARK                         _______ _______ _______ _____ _____    ______ ____
ROOT
ATOM      1  N   UNL     1       1.553   8.582  19.283  0.00  0.00    +0.000 N 
ATOM      2  C   UNL     1       1.813   7.957  20.476  0.00  0.00    +0.000 A 
ATOM      3  N   UNL     1       1.280   8.274  21.608  0.00  0.00    +0.000 NA
ATOM      4  C   UNL     1       0.407   9.370  21.631  0.00  0.00    +0.000 A 
ATOM      5  C   UNL     1      -0.101   9.804  22.857  0.00  0.00    +0.000 A 
ATOM      6  C   UNL     1      -0.926  10.931  22.926  0.00  0.00    +0.000 A 
ATOM      7  C   UNL     1      -1.267  11.615  21.760  0.00  0.00    +0.000 A 
ATOM      8 CL   UNL     1      -2.256  13.018  21.851  0.00  0.00    +0.000 Cl
ATOM      9  C   UNL     1      -0.791  11.184  20.525  0.00  0.00    +0.000 A 
ATOM     10  C   UNL     1       0.056  10.072  20.475  0.00  0.00    +0.000 A 
ATOM     11  C   UNL     1       0.656   9.638  19.199  0.00  0.00    +0.000 A 
ATOM     12  O   UNL     1       0.361  10.212  18.156  0.00  0.00    +0.000 OA
ENDROOT
BRANCH   1  13
ATOM     13  C   UNL     1       2.264   8.174  18.082  0.00  0.00    +0.000 C 
BRANCH  13  16
ATOM     14  C   UNL     1       2.733   4.663  18.910  0.00  0.00    +0.000 A 
ATOM     15  N   UNL     1       2.043   5.784  18.786  0.00  0.00    +0.000 NA
ATOM     16  C   UNL     1       2.846   6.805  18.287  0.00  0.00    +0.000 A 
ATOM     17  C   UNL     1       4.153   6.433  18.037  0.00  0.00    +0.000 A 
ATOM     18  S   UNL     1       4.384   4.785  18.406  0.00  0.00    +0.000 S 
BRANCH  14  20
ATOM     19  C   UNL     1       3.324   2.456  19.964  0.00  0.00    +0.000 C 
ATOM     20  C   UNL     1       2.171   3.351  19.461  0.00  0.00    +0.000 C 
ATOM     21  C   UNL     1       1.407   2.587  18.362  0.00  0.00    +0.000 C 
ATOM     22  C   UNL     1       1.223   3.610  20.648  0.00  0.00    +0.000 C 
ENDBRANCH  14  20
ENDBRANCH  13  16
ENDBRANCH   1  13
TORSDOF 3
ENDMDL
MODEL 9
REMARK VINA RESULT:      -7.0      5.343      7.532
REMARK  Name = 
REMARK  6 active torsions:
REMARK  status: ('A' for Active; 'I' for Inactive)
REMARK    1  A    between atoms: C_1  and  C_2
REMARK    2  A    between atoms: C_2  and  C_3
REMARK    3  A    between atoms: C_2  and  C_4
REMARK    4  A    between atoms: C_2  and  C_5
REMARK    5  A    between atoms: C_7  and  C_8
REMARK    6  A    between atoms: C_8  and  N_9
REMARK                            x       y       z     vdW  Elec       q    Type
REMARK                         _______ _______ _______ _____ _____    ______ ____
ROOT
ATOM      1  N   UNL     1       2.225   7.956  18.927  0.00  0.00    +0.000 N 
ATOM      2  C   UNL     1       1.639   7.835  20.162  0.00  0.00    +0.000 A 
ATOM      3  N   UNL     1       1.561   6.739  20.838  0.00  0.00    +0.000 NA
ATOM      4  C   UNL     1       2.067   5.573  20.247  0.00  0.00    +0.000 A 
ATOM      5  C   UNL     1       1.900   4.353  20.906  0.00  0.00    +0.000 A 
ATOM      6  C   UNL     1       2.338   3.162  20.319  0.00  0.00    +0.000 A 
ATOM      7  C   UNL     1       2.970   3.191  19.076  0.00  0.00    +0.000 A 
ATOM      8 CL   UNL     1       3.479   1.722  18.343  0.00  0.00    +0.000 Cl
ATOM      9  C   UNL     1       3.167   4.399  18.414  0.00  0.00    +0.000 A 
ATOM     10  C   UNL     1       2.699   5.579  19.000  0.00  0.00    +0.000 A 
ATOM     11  C   UNL     1       2.806   6.868  18.291  0.00  0.00    +0.000 A 
ATOM     12  O   UNL     1       3.371   6.925  17.203  0.00  0.00    +0.000 OA
ENDROOT
BRANCH   1  13
ATOM     13  C   UNL     1       2.197   9.235  18.235  0.00  0.00    +0.000 C 
BRANCH  13  16
ATOM     14  C   UNL     1      -1.160  10.629  18.374  0.00  0.00    +0.000 A 
ATOM     15  N   UNL     1      -0.192   9.880  17.874  0.00  0.00    +0.000 NA
ATOM     16  C   UNL     1       0.965   9.994  18.637  0.00  0.00    +0.000 A 
ATOM     17  C   UNL     1       0.852  10.842  19.722  0.00  0.00    +0.000 A 
ATOM     18  S   UNL     1      -0.722  11.491  19.810  0.00  0.00    +0.000 S 
BRANCH  14  20
ATOM     19  C   UNL     1      -2.450  11.299  16.320  0.00  0.00    +0.000 C 
ATOM     20  C   UNL     1      -2.556  10.769  17.766  0.00  0.00    +0.000 C 
ATOM     21  C   UNL     1      -3.405  11.762  18.585  0.00  0.00    +0.000 C 
ATOM     22  C   UNL     1      -3.278   9.408  17.719  0.00  0.00    +0.000 C 
ENDBRANCH  14  20
ENDBRANCH  13  16
ENDBRANCH   1  13
TORSDOF 3
ENDMDL
