MODEL 1
REMARK VINA RESULT:      -6.3      0.000      0.000
REMARK  Name = 
REMARK  4 active torsions:
REMARK  status: ('A' for Active; 'I' for Inactive)
REMARK    1  A    between atoms: C_2  and  O_3
REMARK    2  A    between atoms: C_2  and  C_4
REMARK    3  A    between atoms: C_7  and  C_8
REMARK    4  A    between atoms: C_9  and  N_10
REMARK                            x       y       z     vdW  Elec       q    Type
REMARK                         _______ _______ _______ _____ _____    ______ ____
ROOT
ATOM      1  C   UNL     1       2.580   3.500  19.891  0.00  0.00    +0.000 A 
ATOM      2  C   UNL     1       3.877   3.013  19.707  0.00  0.00    +0.000 A 
ATOM      3  C   UNL     1       4.572   3.294  18.527  0.00  0.00    +0.000 A 
ATOM      4  C   UNL     1       3.980   4.060  17.513  0.00  0.00    +0.000 A 
ATOM      5  C   UNL     1       2.696   4.585  17.729  0.00  0.00    +0.000 A 
ATOM      6  C   UNL     1       1.998   4.309  18.910  0.00  0.00    +0.000 A 
ENDROOT
BRANCH   1   8
ATOM      7  O   UNL     1       2.434   3.137  22.236  0.00  0.00    +0.000 OA
ATOM      8  C   UNL     1       1.874   3.175  21.155  0.00  0.00    +0.000 C 
BRANCH   8   9
ATOM      9  O   UNL     1       0.569   2.877  20.983  0.00  0.00    +0.000 OA
ATOM     10  H   UNL     1       0.009   2.995  21.771  0.00  0.00    +0.000 HD
ENDBRANCH   8   9
ENDBRANCH   1   8
BRANCH   4  11
ATOM     11  C   UNL     1       4.748   4.329  16.288  0.00  0.00    +0.000 C 
ATOM     12  C   UNL     1       6.085   4.235  16.232  0.00  0.00    +0.000 C 
BRANCH  12  13
ATOM     13  N   UNL     1       6.781   4.534  15.003  0.00  0.00    +0.000 N 
ATOM     14  O   UNL     1       6.495   3.899  13.981  0.00  0.00    +0.000 OA
ATOM     15  O   UNL     1       7.631   5.430  15.075  0.00  0.00    +0.000 OA
ENDBRANCH  12  13
ENDBRANCH   4  11
TORSDOF 4
ENDMDL
MODEL 2
REMARK VINA RESULT:      -6.3      0.406      1.345
REMARK  Name = 
REMARK  4 active torsions:
REMARK  status: ('A' for Active; 'I' for Inactive)
REMARK    1  A    between atoms: C_2  and  O_3
REMARK    2  A    between atoms: C_2  and  C_4
REMARK    3  A    between atoms: C_7  and  C_8
REMARK    4  A    between atoms: C_9  and  N_10
REMARK                            x       y       z     vdW  Elec       q    Type
REMARK                         _______ _______ _______ _____ _____    ______ ____
ROOT
ATOM      1  C   UNL     1       2.699   3.696  19.800  0.00  0.00    +0.000 A 
ATOM      2  C   UNL     1       2.133   4.349  18.701  0.00  0.00    +0.000 A 
ATOM      3  C   UNL     1       2.928   4.698  17.605  0.00  0.00    +0.000 A 
ATOM      4  C   UNL     1       4.299   4.404  17.593  0.00  0.00    +0.000 A 
ATOM      5  C   UNL     1       4.847   3.706  18.680  0.00  0.00    +0.000 A 
ATOM      6  C   UNL     1       4.054   3.352  19.778  0.00  0.00    +0.000 A 
ENDROOT
BRANCH   1   8
ATOM      7  O   UNL     1       2.231   3.256  22.089  0.00  0.00    +0.000 OA
ATOM      8  C   UNL     1       1.823   3.349  20.945  0.00  0.00    +0.000 C 
BRANCH   8   9
ATOM      9  O   UNL     1       0.545   3.100  20.590  0.00  0.00    +0.000 OA
ATOM     10  H   UNL     1       0.169   2.272  20.941  0.00  0.00    +0.000 HD
ENDBRANCH   8   9
ENDBRANCH   1   8
BRANCH   4  11
ATOM     11  C   UNL     1       5.096   4.791  16.419  0.00  0.00    +0.000 C 
ATOM     12  C   UNL     1       5.912   3.940  15.782  0.00  0.00    +0.000 C 
BRANCH  12  13
ATOM     13  N   UNL     1       6.684   4.390  14.646  0.00  0.00    +0.000 N 
ATOM     14  O   UNL     1       6.478   3.880  13.539  0.00  0.00    +0.000 OA
ATOM     15  O   UNL     1       7.512   5.278  14.883  0.00  0.00    +0.000 OA
ENDBRANCH  12  13
ENDBRANCH   4  11
TORSDOF 4
ENDMDL
MODEL 3
REMARK VINA RESULT:      -6.2      0.591      1.544
REMARK  Name = 
REMARK  4 active torsions:
REMARK  status: ('A' for Active; 'I' for Inactive)
REMARK    1  A    between atoms: C_2  and  O_3
REMARK    2  A    between atoms: C_2  and  C_4
REMARK    3  A    between atoms: C_7  and  C_8
REMARK    4  A    between atoms: C_9  and  N_10
REMARK                            x       y       z     vdW  Elec       q    Type
REMARK                         _______ _______ _______ _____ _____    ______ ____
ROOT
ATOM      1  C   UNL     1       2.832   3.247  19.700  0.00  0.00    +0.000 A 
ATOM      2  C   UNL     1       2.147   3.347  18.485  0.00  0.00    +0.000 A 
ATOM      3  C   UNL     1       2.831   3.712  17.321  0.00  0.00    +0.000 A 
ATOM      4  C   UNL     1       4.205   3.987  17.355  0.00  0.00    +0.000 A 
ATOM      5  C   UNL     1       4.892   3.837  18.571  0.00  0.00    +0.000 A 
ATOM      6  C   UNL     1       4.212   3.469  19.737  0.00  0.00    +0.000 A 
ENDROOT
BRANCH   1   8
ATOM      7  O   UNL     1       0.854   2.929  20.980  0.00  0.00    +0.000 OA
ATOM      8  C   UNL     1       2.069   2.864  20.912  0.00  0.00    +0.000 C 
BRANCH   8   9
ATOM      9  O   UNL     1       2.851   2.485  21.945  0.00  0.00    +0.000 OA
ATOM     10  H   UNL     1       3.801   2.667  21.836  0.00  0.00    +0.000 HD
ENDBRANCH   8   9
ENDBRANCH   1   8
BRANCH   4  11
ATOM     11  C   UNL     1       4.883   4.368  16.106  0.00  0.00    +0.000 C 
ATOM     12  C   UNL     1       6.132   3.982  15.809  0.00  0.00    +0.000 C 
BRANCH  12  13
ATOM     13  N   UNL     1       6.747   4.409  14.574  0.00  0.00    +0.000 N 
ATOM     14  O   UNL     1       6.416   3.860  13.517  0.00  0.00    +0.000 OA
ATOM     15  O   UNL     1       7.579   5.319  14.679  0.00  0.00    +0.000 OA
ENDBRANCH  12  13
ENDBRANCH   4  11
TORSDOF 4
ENDMDL
MODEL 4
REMARK VINA RESULT:      -6.1      0.895      1.236
REMARK  Name = 
REMARK  4 active torsions:
REMARK  status: ('A' for Active; 'I' for Inactive)
REMARK    1  A    between atoms: C_2  and  O_3
REMARK    2  A    between atoms: C_2  and  C_4
REMARK    3  A    between atoms: C_7  and  C_8
REMARK    4  A    between atoms: C_9  and  N_10
REMARK                            x       y       z     vdW  Elec       q    Type
REMARK                         _______ _______ _______ _____ _____    ______ ____
ROOT
ATOM      1  C   UNL     1       2.762   3.747  19.999  0.00  0.00    +0.000 A 
ATOM      2  C   UNL     1       3.162   2.841  19.012  0.00  0.00    +0.000 A 
ATOM      3  C   UNL     1       4.019   3.253  17.986  0.00  0.00    +0.000 A 
ATOM      4  C   UNL     1       4.484   4.574  17.930  0.00  0.00    +0.000 A 
ATOM      5  C   UNL     1       4.116   5.462  18.953  0.00  0.00    +0.000 A 
ATOM      6  C   UNL     1       3.261   5.053  19.983  0.00  0.00    +0.000 A 
ENDROOT
BRANCH   1   8
ATOM      7  O   UNL     1       2.219   3.036  22.201  0.00  0.00    +0.000 OA
ATOM      8  C   UNL     1       1.848   3.273  21.066  0.00  0.00    +0.000 C 
BRANCH   8   9
ATOM      9  O   UNL     1       0.580   3.083  20.644  0.00  0.00    +0.000 OA
ATOM     10  H   UNL     1      -0.035   2.738  21.316  0.00  0.00    +0.000 HD
ENDBRANCH   8   9
ENDBRANCH   1   8
BRANCH   4  11
ATOM     11  C   UNL     1       5.383   4.962  16.832  0.00  0.00    +0.000 C 
ATOM     12  C   UNL     1       5.713   4.130  15.834  0.00  0.00    +0.000 C 
BRANCH  12  13
ATOM     13  N   UNL     1       6.619   4.567  14.797  0.00  0.00    +0.000 N 
ATOM     14  O   UNL     1       7.497   5.392  15.075  0.00  0.00    +0.000 OA
ATOM     15  O   UNL     1       6.438   4.061  13.683  0.00  0.00    +0.000 OA
ENDBRANCH  12  13
ENDBRANCH   4  11
TORSDOF 4
ENDMDL
MODEL 5
REMARK VINA RESULT:      -6.1      2.335      6.404
REMARK  Name = 
REMARK  4 active torsions:
REMARK  status: ('A' for Active; 'I' for Inactive)
REMARK    1  A    between atoms: C_2  and  O_3
REMARK    2  A    between atoms: C_2  and  C_4
REMARK    3  A    between atoms: C_7  and  C_8
REMARK    4  A    between atoms: C_9  and  N_10
REMARK                            x       y       z     vdW  Elec       q    Type
REMARK                         _______ _______ _______ _____ _____    ______ ____
ROOT
ATOM      1  C   UNL     1       5.766   4.759  15.643  0.00  0.00    +0.000 A 
ATOM      2  C   UNL     1       5.305   3.580  16.236  0.00  0.00    +0.000 A 
ATOM      3  C   UNL     1       4.401   3.636  17.302  0.00  0.00    +0.000 A 
ATOM      4  C   UNL     1       3.950   4.869  17.792  0.00  0.00    +0.000 A 
ATOM      5  C   UNL     1       4.381   6.045  17.158  0.00  0.00    +0.000 A 
ATOM      6  C   UNL     1       5.283   5.993  16.089  0.00  0.00    +0.000 A 
ENDROOT
BRANCH   1   8
ATOM      7  O   UNL     1       7.628   5.458  14.342  0.00  0.00    +0.000 OA
ATOM      8  C   UNL     1       6.729   4.656  14.520  0.00  0.00    +0.000 C 
BRANCH   8   9
ATOM      9  O   UNL     1       6.482   3.620  13.691  0.00  0.00    +0.000 OA
ATOM     10  H   UNL     1       7.145   2.907  13.708  0.00  0.00    +0.000 HD
ENDBRANCH   8   9
ENDBRANCH   1   8
BRANCH   4  11
ATOM     11  C   UNL     1       3.000   4.880  18.916  0.00  0.00    +0.000 C 
ATOM     12  C   UNL     1       2.862   3.848  19.761  0.00  0.00    +0.000 C 
BRANCH  12  13
ATOM     13  N   UNL     1       1.894   3.914  20.832  0.00  0.00    +0.000 N 
ATOM     14  O   UNL     1       0.764   4.357  20.594  0.00  0.00    +0.000 OA
ATOM     15  O   UNL     1       2.288   3.508  21.932  0.00  0.00    +0.000 OA
ENDBRANCH  12  13
ENDBRANCH   4  11
TORSDOF 4
ENDMDL
MODEL 6
REMARK VINA RESULT:      -6.0      2.008      2.575
REMARK  Name = 
REMARK  4 active torsions:
REMARK  status: ('A' for Active; 'I' for Inactive)
REMARK    1  A    between atoms: C_2  and  O_3
REMARK    2  A    between atoms: C_2  and  C_4
REMARK    3  A    between atoms: C_7  and  C_8
REMARK    4  A    between atoms: C_9  and  N_10
REMARK                            x       y       z     vdW  Elec       q    Type
REMARK                         _______ _______ _______ _____ _____    ______ ____
ROOT
ATOM      1  C   UNL     1       1.946   3.601  18.624  0.00  0.00    +0.000 A 
ATOM      2  C   UNL     1       3.160   2.971  18.340  0.00  0.00    +0.000 A 
ATOM      3  C   UNL     1       4.245   3.716  17.867  0.00  0.00    +0.000 A 
ATOM      4  C   UNL     1       4.130   5.099  17.668  0.00  0.00    +0.000 A 
ATOM      5  C   UNL     1       2.921   5.729  18.002  0.00  0.00    +0.000 A 
ATOM      6  C   UNL     1       1.834   4.987  18.479  0.00  0.00    +0.000 A 
ENDROOT
BRANCH   1   8
ATOM      7  O   UNL     1       0.226   1.973  18.415  0.00  0.00    +0.000 OA
ATOM      8  C   UNL     1       0.818   2.774  19.117  0.00  0.00    +0.000 C 
BRANCH   8   9
ATOM      9  O   UNL     1       0.481   3.030  20.399  0.00  0.00    +0.000 OA
ATOM     10  H   UNL     1       0.034   3.882  20.549  0.00  0.00    +0.000 HD
ENDBRANCH   8   9
ENDBRANCH   1   8
BRANCH   4  11
ATOM     11  C   UNL     1       5.297   5.842  17.168  0.00  0.00    +0.000 C 
ATOM     12  C   UNL     1       6.369   6.109  17.928  0.00  0.00    +0.000 C 
BRANCH  12  13
ATOM     13  N   UNL     1       7.474   6.863  17.382  0.00  0.00    +0.000 N 
ATOM     14  O   UNL     1       8.030   7.711  18.089  0.00  0.00    +0.000 OA
ATOM     15  O   UNL     1       7.783   6.587  16.216  0.00  0.00    +0.000 OA
ENDBRANCH  12  13
ENDBRANCH   4  11
TORSDOF 4
ENDMDL
MODEL 7
REMARK VINA RESULT:      -6.0      1.573      2.223
REMARK  Name = 
REMARK  4 active torsions:
REMARK  status: ('A' for Active; 'I' for Inactive)
REMARK    1  A    between atoms: C_2  and  O_3
REMARK    2  A    between atoms: C_2  and  C_4
REMARK    3  A    between atoms: C_7  and  C_8
REMARK    4  A    between atoms: C_9  and  N_10
REMARK                            x       y       z     vdW  Elec       q    Type
REMARK                         _______ _______ _______ _____ _____    ______ ____
ROOT
ATOM      1  C   UNL     1       1.880   3.477  18.574  0.00  0.00    +0.000 A 
ATOM      2  C   UNL     1       2.088   4.836  18.826  0.00  0.00    +0.000 A 
ATOM      3  C   UNL     1       3.180   5.498  18.256  0.00  0.00    +0.000 A 
ATOM      4  C   UNL     1       4.081   4.810  17.431  0.00  0.00    +0.000 A 
ATOM      5  C   UNL     1       3.836   3.458  17.145  0.00  0.00    +0.000 A 
ATOM      6  C   UNL     1       2.742   2.793  17.711  0.00  0.00    +0.000 A 
ENDROOT
BRANCH   1   8
ATOM      7  O   UNL     1       0.106   1.898  18.674  0.00  0.00    +0.000 OA
ATOM      8  C   UNL     1       0.714   2.811  19.203  0.00  0.00    +0.000 C 
BRANCH   8   9
ATOM      9  O   UNL     1       0.363   3.346  20.391  0.00  0.00    +0.000 OA
ATOM     10  H   UNL     1       0.350   4.320  20.422  0.00  0.00    +0.000 HD
ENDBRANCH   8   9
ENDBRANCH   1   8
BRANCH   4  11
ATOM     11  C   UNL     1       5.216   5.547  16.854  0.00  0.00    +0.000 C 
ATOM     12  C   UNL     1       6.182   4.952  16.139  0.00  0.00    +0.000 C 
BRANCH  12  13
ATOM     13  N   UNL     1       7.281   5.731  15.618  0.00  0.00    +0.000 N 
ATOM     14  O   UNL     1       7.728   6.666  16.293  0.00  0.00    +0.000 OA
ATOM     15  O   UNL     1       7.698   5.387  14.505  0.00  0.00    +0.000 OA
ENDBRANCH  12  13
ENDBRANCH   4  11
TORSDOF 4
ENDMDL
MODEL 8
REMARK VINA RESULT:      -6.0      2.317      6.512
REMARK  Name = 
REMARK  4 active torsions:
REMARK  status: ('A' for Active; 'I' for Inactive)
REMARK    1  A    between atoms: C_2  and  O_3
REMARK    2  A    between atoms: C_2  and  C_4
REMARK    3  A    between atoms: C_7  and  C_8
REMARK    4  A    between atoms: C_9  and  N_10
REMARK                            x       y       z     vdW  Elec       q    Type
REMARK                         _______ _______ _______ _____ _____    ______ ____
ROOT
ATOM      1  C   UNL     1       6.204   4.517  15.946  0.00  0.00    +0.000 A 
ATOM      2  C   UNL     1       4.810   4.436  15.888  0.00  0.00    +0.000 A 
ATOM      3  C   UNL     1       4.058   4.392  17.066  0.00  0.00    +0.000 A 
ATOM      4  C   UNL     1       4.689   4.422  18.318  0.00  0.00    +0.000 A 
ATOM      5  C   UNL     1       6.086   4.552  18.365  0.00  0.00    +0.000 A 
ATOM      6  C   UNL     1       6.841   4.601  17.188  0.00  0.00    +0.000 A 
ENDROOT
BRANCH   1   8
ATOM      7  O   UNL     1       7.791   5.414  14.421  0.00  0.00    +0.000 OA
ATOM      8  C   UNL     1       6.964   4.556  14.674  0.00  0.00    +0.000 C 
BRANCH   8   9
ATOM      9  O   UNL     1       6.616   3.581  13.807  0.00  0.00    +0.000 OA
ATOM     10  H   UNL     1       6.852   2.677  14.082  0.00  0.00    +0.000 HD
ENDBRANCH   8   9
ENDBRANCH   1   8
BRANCH   4  11
ATOM     11  C   UNL     1       3.858   4.372  19.531  0.00  0.00    +0.000 C 
ATOM     12  C   UNL     1       3.343   3.232  20.014  0.00  0.00    +0.000 C 
BRANCH  12  13
ATOM     13  N   UNL     1       2.517   3.255  21.198  0.00  0.00    +0.000 N 
ATOM     14  O   UNL     1       2.740   2.442  22.103  0.00  0.00    +0.000 OA
ATOM     15  O   UNL     1       1.628   4.115  21.211  0.00  0.00    +0.000 OA
ENDBRANCH  12  13
ENDBRANCH   4  11
TORSDOF 4
ENDMDL
MODEL 9
REMARK VINA RESULT:      -6.0      1.668      2.009
REMARK  Name = 
REMARK  4 active torsions:
REMARK  status: ('A' for Active; 'I' for Inactive)
REMARK    1  A    between atoms: C_2  and  O_3
REMARK    2  A    between atoms: C_2  and  C_4
REMARK    3  A    between atoms: C_7  and  C_8
REMARK    4  A    between atoms: C_9  and  N_10
REMARK                            x       y       z     vdW  Elec       q    Type
REMARK                         _______ _______ _______ _____ _____    ______ ____
ROOT
ATOM      1  C   UNL     1       2.483   3.807  20.108  0.00  0.00    +0.000 A 
ATOM      2  C   UNL     1       3.735   3.251  19.831  0.00  0.00    +0.000 A 
ATOM      3  C   UNL     1       4.622   3.911  18.973  0.00  0.00    +0.000 A 
ATOM      4  C   UNL     1       4.267   5.129  18.377  0.00  0.00    +0.000 A 
ATOM      5  C   UNL     1       3.027   5.701  18.701  0.00  0.00    +0.000 A 
ATOM      6  C   UNL     1       2.139   5.047  19.562  0.00  0.00    +0.000 A 
ENDROOT
BRANCH   1   8
ATOM      7  O   UNL     1       1.924   2.623  22.093  0.00  0.00    +0.000 OA
ATOM      8  C   UNL     1       1.569   3.073  21.018  0.00  0.00    +0.000 C 
BRANCH   8   9
ATOM      9  O   UNL     1       0.327   2.909  20.518  0.00  0.00    +0.000 OA
ATOM     10  H   UNL     1      -0.085   3.714  20.156  0.00  0.00    +0.000 HD
ENDBRANCH   8   9
ENDBRANCH   1   8
BRANCH   4  11
ATOM     11  C   UNL     1       5.231   5.786  17.481  0.00  0.00    +0.000 C 
ATOM     12  C   UNL     1       6.458   6.155  17.877  0.00  0.00    +0.000 C 
BRANCH  12  13
ATOM     13  N   UNL     1       7.349   6.816  16.952  0.00  0.00    +0.000 N 
ATOM     14  O   UNL     1       7.759   7.952  17.221  0.00  0.00    +0.000 OA
ATOM     15  O   UNL     1       7.639   6.170  15.938  0.00  0.00    +0.000 OA
ENDBRANCH  12  13
ENDBRANCH   4  11
TORSDOF 4
ENDMDL
