MODEL 1
REMARK VINA RESULT:      -7.6      0.000      0.000
REMARK  Name = 
REMARK  8 active torsions:
REMARK  status: ('A' for Active; 'I' for Inactive)
REMARK    1  A    between atoms: C_1  and  C_2
REMARK    2  A    between atoms: C_2  and  O_4
REMARK    3  A    between atoms: O_4  and  C_5
REMARK    4  A    between atoms: C_5  and  C_6
REMARK    5  A    between atoms: C_5  and  C_17
REMARK    6  A    between atoms: N_8  and  C_9
REMARK    7  A    between atoms: C_9  and  C_10
REMARK    8  A    between atoms: C_10  and  C_11
REMARK                            x       y       z     vdW  Elec       q    Type
REMARK                         _______ _______ _______ _____ _____    ______ ____
ROOT
ATOM      1  C   UNL     1       7.338   5.766  18.093  0.00  0.00    +0.000 C 
ATOM      2  O   UNL     1       7.963   5.319  19.054  0.00  0.00    +0.000 OA
ATOM      3  N   UNL     1       7.493   7.074  17.667  0.00  0.00    +0.000 N 
ATOM      4  H   UNL     1       6.825   7.434  16.994  0.00  0.00    +0.000 HD
ENDROOT
BRANCH   1   5
ATOM      5  C   UNL     1       6.369   4.908  17.242  0.00  0.00    +0.000 C 
BRANCH   5   6
ATOM      6  C   UNL     1       5.042   4.698  17.940  0.00  0.00    +0.000 A 
ATOM      7  C   UNL     1       4.109   3.767  17.470  0.00  0.00    +0.000 A 
ATOM      8  C   UNL     1       2.916   3.574  18.162  0.00  0.00    +0.000 A 
ATOM      9  C   UNL     1       2.686   4.330  19.299  0.00  0.00    +0.000 A 
ATOM     10  N   UNL     1       3.550   5.251  19.774  0.00  0.00    +0.000 NA
ATOM     11  C   UNL     1       4.708   5.407  19.091  0.00  0.00    +0.000 A 
ENDBRANCH   5   6
BRANCH   5  12
ATOM     12  O   UNL     1       6.107   5.530  15.971  0.00  0.00    +0.000 OA
BRANCH  12  14
ATOM     13  C   UNL     1       6.083   3.929  14.257  0.00  0.00    +0.000 C 
ATOM     14  C   UNL     1       6.819   5.057  14.915  0.00  0.00    +0.000 C 
ATOM     15  O   UNL     1       7.910   5.467  14.549  0.00  0.00    +0.000 OA
ENDBRANCH  12  14
ENDBRANCH   5  12
ENDBRANCH   1   5
BRANCH   3  16
ATOM     16  C   UNL     1       8.315   7.998  18.427  0.00  0.00    +0.000 C 
BRANCH  16  17
ATOM     17  C   UNL     1       8.230   9.429  17.898  0.00  0.00    +0.000 C 
BRANCH  17  18
ATOM     18  C   UNL     1       9.219  10.345  18.575  0.00  0.00    +0.000 A 
ATOM     19  C   UNL     1      10.176  11.039  17.823  0.00  0.00    +0.000 A 
ATOM     20  C   UNL     1      11.098  11.880  18.450  0.00  0.00    +0.000 A 
ATOM     21  C   UNL     1      11.077  12.029  19.836  0.00  0.00    +0.000 A 
ATOM     22  C   UNL     1      10.134  11.335  20.595  0.00  0.00    +0.000 A 
ATOM     23  C   UNL     1       9.211  10.497  19.968  0.00  0.00    +0.000 A 
ENDBRANCH  17  18
ENDBRANCH  16  17
ENDBRANCH   3  16
TORSDOF 7
ENDMDL
MODEL 2
REMARK VINA RESULT:      -7.6      3.094      7.502
REMARK  Name = 
REMARK  8 active torsions:
REMARK  status: ('A' for Active; 'I' for Inactive)
REMARK    1  A    between atoms: C_1  and  C_2
REMARK    2  A    between atoms: C_2  and  O_4
REMARK    3  A    between atoms: O_4  and  C_5
REMARK    4  A    between atoms: C_5  and  C_6
REMARK    5  A    between atoms: C_5  and  C_17
REMARK    6  A    between atoms: N_8  and  C_9
REMARK    7  A    between atoms: C_9  and  C_10
REMARK    8  A    between atoms: C_10  and  C_11
REMARK                            x       y       z     vdW  Elec       q    Type
REMARK                         _______ _______ _______ _____ _____    ______ ____
ROOT
ATOM      1  C   UNL     1       5.217   5.723  16.410  0.00  0.00    +0.000 C 
ATOM      2  O   UNL     1       5.065   6.810  15.854  0.00  0.00    +0.000 OA
ATOM      3  N   UNL     1       4.277   5.217  17.293  0.00  0.00    +0.000 N 
ATOM      4  H   UNL     1       4.540   4.413  17.852  0.00  0.00    +0.000 HD
ENDROOT
BRANCH   1   5
ATOM      5  C   UNL     1       6.431   4.799  16.142  0.00  0.00    +0.000 C 
BRANCH   5   6
ATOM      6  C   UNL     1       6.682   4.615  14.661  0.00  0.00    +0.000 A 
ATOM      7  C   UNL     1       5.955   3.687  13.907  0.00  0.00    +0.000 A 
ATOM      8  C   UNL     1       6.188   3.574  12.538  0.00  0.00    +0.000 A 
ATOM      9  C   UNL     1       7.152   4.386  11.966  0.00  0.00    +0.000 A 
ATOM     10  N   UNL     1       7.887   5.280  12.661  0.00  0.00    +0.000 NA
ATOM     11  C   UNL     1       7.630   5.380  13.985  0.00  0.00    +0.000 A 
ENDBRANCH   5   6
BRANCH   5  12
ATOM     12  O   UNL     1       7.630   5.337  16.731  0.00  0.00    +0.000 OA
BRANCH  12  14
ATOM     13  C   UNL     1       7.963   6.909  18.439  0.00  0.00    +0.000 C 
ATOM     14  C   UNL     1       7.615   5.496  18.080  0.00  0.00    +0.000 C 
ATOM     15  O   UNL     1       7.372   4.622  18.898  0.00  0.00    +0.000 OA
ENDBRANCH  12  14
ENDBRANCH   5  12
ENDBRANCH   1   5
BRANCH   3  16
ATOM     16  C   UNL     1       3.133   6.021  17.683  0.00  0.00    +0.000 C 
BRANCH  16  17
ATOM     17  C   UNL     1       1.853   5.197  17.809  0.00  0.00    +0.000 C 
BRANCH  17  18
ATOM     18  C   UNL     1       1.821   4.389  19.082  0.00  0.00    +0.000 A 
ATOM     19  C   UNL     1       2.280   4.941  20.286  0.00  0.00    +0.000 A 
ATOM     20  C   UNL     1       2.259   4.191  21.464  0.00  0.00    +0.000 A 
ATOM     21  C   UNL     1       1.785   2.879  21.448  0.00  0.00    +0.000 A 
ATOM     22  C   UNL     1       1.334   2.318  20.254  0.00  0.00    +0.000 A 
ATOM     23  C   UNL     1       1.353   3.068  19.077  0.00  0.00    +0.000 A 
ENDBRANCH  17  18
ENDBRANCH  16  17
ENDBRANCH   3  16
TORSDOF 7
ENDMDL
MODEL 3
REMARK VINA RESULT:      -7.5      3.066      7.496
REMARK  Name = 
REMARK  8 active torsions:
REMARK  status: ('A' for Active; 'I' for Inactive)
REMARK    1  A    between atoms: C_1  and  C_2
REMARK    2  A    between atoms: C_2  and  O_4
REMARK    3  A    between atoms: O_4  and  C_5
REMARK    4  A    between atoms: C_5  and  C_6
REMARK    5  A    between atoms: C_5  and  C_17
REMARK    6  A    between atoms: N_8  and  C_9
REMARK    7  A    between atoms: C_9  and  C_10
REMARK    8  A    between atoms: C_10  and  C_11
REMARK                            x       y       z     vdW  Elec       q    Type
REMARK                         _______ _______ _______ _____ _____    ______ ____
ROOT
ATOM      1  C   UNL     1       5.174   5.831  16.341  0.00  0.00    +0.000 C 
ATOM      2  O   UNL     1       5.013   6.862  15.688  0.00  0.00    +0.000 OA
ATOM      3  N   UNL     1       4.280   5.443  17.324  0.00  0.00    +0.000 N 
ATOM      4  H   UNL     1       4.558   4.690  17.944  0.00  0.00    +0.000 HD
ENDROOT
BRANCH   1   5
ATOM      5  C   UNL     1       6.348   4.850  16.095  0.00  0.00    +0.000 C 
BRANCH   5   6
ATOM      6  C   UNL     1       6.604   4.638  14.618  0.00  0.00    +0.000 A 
ATOM      7  C   UNL     1       7.614   5.334  13.944  0.00  0.00    +0.000 A 
ATOM      8  C   UNL     1       7.846   5.082  12.594  0.00  0.00    +0.000 A 
ATOM      9  C   UNL     1       7.049   4.148  11.954  0.00  0.00    +0.000 A 
ATOM     10  N   UNL     1       6.054   3.469  12.562  0.00  0.00    +0.000 NA
ATOM     11  C   UNL     1       5.861   3.722  13.877  0.00  0.00    +0.000 A 
ENDBRANCH   5   6
BRANCH   5  12
ATOM     12  O   UNL     1       7.564   5.340  16.690  0.00  0.00    +0.000 OA
BRANCH  12  14
ATOM     13  C   UNL     1       7.932   6.994  18.311  0.00  0.00    +0.000 C 
ATOM     14  C   UNL     1       7.522   5.580  18.026  0.00  0.00    +0.000 C 
ATOM     15  O   UNL     1       7.214   4.771  18.887  0.00  0.00    +0.000 OA
ENDBRANCH  12  14
ENDBRANCH   5  12
ENDBRANCH   1   5
BRANCH   3  16
ATOM     16  C   UNL     1       3.181   6.314  17.699  0.00  0.00    +0.000 C 
BRANCH  16  17
ATOM     17  C   UNL     1       2.921   6.314  19.204  0.00  0.00    +0.000 C 
BRANCH  17  18
ATOM     18  C   UNL     1       2.293   5.025  19.672  0.00  0.00    +0.000 A 
ATOM     19  C   UNL     1       2.440   4.604  21.000  0.00  0.00    +0.000 A 
ATOM     20  C   UNL     1       1.867   3.405  21.432  0.00  0.00    +0.000 A 
ATOM     21  C   UNL     1       1.147   2.614  20.538  0.00  0.00    +0.000 A 
ATOM     22  C   UNL     1       1.002   3.021  19.212  0.00  0.00    +0.000 A 
ATOM     23  C   UNL     1       1.573   4.219  18.781  0.00  0.00    +0.000 A 
ENDBRANCH  17  18
ENDBRANCH  16  17
ENDBRANCH   3  16
TORSDOF 7
ENDMDL
MODEL 4
REMARK VINA RESULT:      -7.4      1.360      1.658
REMARK  Name = 
REMARK  8 active torsions:
REMARK  status: ('A' for Active; 'I' for Inactive)
REMARK    1  A    between atoms: C_1  and  C_2
REMARK    2  A    between atoms: C_2  and  O_4
REMARK    3  A    between atoms: O_4  and  C_5
REMARK    4  A    between atoms: C_5  and  C_6
REMARK    5  A    between atoms: C_5  and  C_17
REMARK    6  A    between atoms: N_8  and  C_9
REMARK    7  A    between atoms: C_9  and  C_10
REMARK    8  A    between atoms: C_10  and  C_11
REMARK                            x       y       z     vdW  Elec       q    Type
REMARK                         _______ _______ _______ _____ _____    ______ ____
ROOT
ATOM      1  C   UNL     1       6.338   6.698  17.074  0.00  0.00    +0.000 C 
ATOM      2  O   UNL     1       5.351   7.315  17.474  0.00  0.00    +0.000 OA
ATOM      3  N   UNL     1       7.604   7.258  17.089  0.00  0.00    +0.000 N 
ATOM      4  H   UNL     1       8.339   6.775  16.584  0.00  0.00    +0.000 HD
ENDROOT
BRANCH   1   5
ATOM      5  C   UNL     1       6.272   5.234  16.573  0.00  0.00    +0.000 C 
BRANCH   5   6
ATOM      6  C   UNL     1       5.336   4.392  17.413  0.00  0.00    +0.000 A 
ATOM      7  C   UNL     1       4.181   3.819  16.869  0.00  0.00    +0.000 A 
ATOM      8  C   UNL     1       3.366   3.018  17.664  0.00  0.00    +0.000 A 
ATOM      9  C   UNL     1       3.724   2.824  18.988  0.00  0.00    +0.000 A 
ATOM     10  N   UNL     1       4.818   3.373  19.556  0.00  0.00    +0.000 NA
ATOM     11  C   UNL     1       5.601   4.135  18.757  0.00  0.00    +0.000 A 
ENDBRANCH   5   6
BRANCH   5  12
ATOM     12  O   UNL     1       5.817   5.174  15.209  0.00  0.00    +0.000 OA
BRANCH  12  14
ATOM     13  C   UNL     1       6.311   3.805  13.369  0.00  0.00    +0.000 C 
ATOM     14  C   UNL     1       6.766   4.912  14.272  0.00  0.00    +0.000 C 
ATOM     15  O   UNL     1       7.846   5.474  14.174  0.00  0.00    +0.000 OA
ENDBRANCH  12  14
ENDBRANCH   5  12
ENDBRANCH   1   5
BRANCH   3  16
ATOM     16  C   UNL     1       7.784   8.649  17.466  0.00  0.00    +0.000 C 
BRANCH  16  17
ATOM     17  C   UNL     1       8.624   8.808  18.732  0.00  0.00    +0.000 C 
BRANCH  17  18
ATOM     18  C   UNL     1       9.093  10.229  18.927  0.00  0.00    +0.000 A 
ATOM     19  C   UNL     1       9.708  10.616  20.125  0.00  0.00    +0.000 A 
ATOM     20  C   UNL     1      10.134  11.934  20.310  0.00  0.00    +0.000 A 
ATOM     21  C   UNL     1       9.944  12.877  19.301  0.00  0.00    +0.000 A 
ATOM     22  C   UNL     1       9.325  12.503  18.109  0.00  0.00    +0.000 A 
ATOM     23  C   UNL     1       8.900  11.186  17.922  0.00  0.00    +0.000 A 
ENDBRANCH  17  18
ENDBRANCH  16  17
ENDBRANCH   3  16
TORSDOF 7
ENDMDL
MODEL 5
REMARK VINA RESULT:      -7.4      3.062      7.361
REMARK  Name = 
REMARK  8 active torsions:
REMARK  status: ('A' for Active; 'I' for Inactive)
REMARK    1  A    between atoms: C_1  and  C_2
REMARK    2  A    between atoms: C_2  and  O_4
REMARK    3  A    between atoms: O_4  and  C_5
REMARK    4  A    between atoms: C_5  and  C_6
REMARK    5  A    between atoms: C_5  and  C_17
REMARK    6  A    between atoms: N_8  and  C_9
REMARK    7  A    between atoms: C_9  and  C_10
REMARK    8  A    between atoms: C_10  and  C_11
REMARK                            x       y       z     vdW  Elec       q    Type
REMARK                         _______ _______ _______ _____ _____    ______ ____
ROOT
ATOM      1  C   UNL     1       5.172   5.919  16.274  0.00  0.00    +0.000 C 
ATOM      2  O   UNL     1       5.016   6.904  15.553  0.00  0.00    +0.000 OA
ATOM      3  N   UNL     1       4.283   5.610  17.289  0.00  0.00    +0.000 N 
ATOM      4  H   UNL     1       4.559   4.898  17.958  0.00  0.00    +0.000 HD
ENDROOT
BRANCH   1   5
ATOM      5  C   UNL     1       6.332   4.910  16.086  0.00  0.00    +0.000 C 
BRANCH   5   6
ATOM      6  C   UNL     1       6.648   4.681  14.623  0.00  0.00    +0.000 A 
ATOM      7  C   UNL     1       5.979   3.707  13.874  0.00  0.00    +0.000 A 
ATOM      8  C   UNL     1       6.270   3.554  12.520  0.00  0.00    +0.000 A 
ATOM      9  C   UNL     1       7.234   4.374  11.959  0.00  0.00    +0.000 A 
ATOM     10  N   UNL     1       7.915   5.312  12.649  0.00  0.00    +0.000 NA
ATOM     11  C   UNL     1       7.602   5.450  13.959  0.00  0.00    +0.000 A 
ENDBRANCH   5   6
BRANCH   5  12
ATOM     12  O   UNL     1       7.532   5.374  16.730  0.00  0.00    +0.000 OA
BRANCH  12  14
ATOM     13  C   UNL     1       7.946   7.026  18.344  0.00  0.00    +0.000 C 
ATOM     14  C   UNL     1       7.431   5.647  18.057  0.00  0.00    +0.000 C 
ATOM     15  O   UNL     1       7.002   4.886  18.911  0.00  0.00    +0.000 OA
ENDBRANCH  12  14
ENDBRANCH   5  12
ENDBRANCH   1   5
BRANCH   3  16
ATOM     16  C   UNL     1       3.198   6.518  17.613  0.00  0.00    +0.000 C 
BRANCH  16  17
ATOM     17  C   UNL     1       2.845   6.502  19.100  0.00  0.00    +0.000 C 
BRANCH  17  18
ATOM     18  C   UNL     1       2.310   5.163  19.542  0.00  0.00    +0.000 A 
ATOM     19  C   UNL     1       1.520   4.393  18.677  0.00  0.00    +0.000 A 
ATOM     20  C   UNL     1       1.016   3.157  19.089  0.00  0.00    +0.000 A 
ATOM     21  C   UNL     1       1.292   2.682  20.371  0.00  0.00    +0.000 A 
ATOM     22  C   UNL     1       2.071   3.445  21.241  0.00  0.00    +0.000 A 
ATOM     23  C   UNL     1       2.576   4.679  20.829  0.00  0.00    +0.000 A 
ENDBRANCH  17  18
ENDBRANCH  16  17
ENDBRANCH   3  16
TORSDOF 7
ENDMDL
MODEL 6
REMARK VINA RESULT:      -7.3      3.896      5.992
REMARK  Name = 
REMARK  8 active torsions:
REMARK  status: ('A' for Active; 'I' for Inactive)
REMARK    1  A    between atoms: C_1  and  C_2
REMARK    2  A    between atoms: C_2  and  O_4
REMARK    3  A    between atoms: O_4  and  C_5
REMARK    4  A    between atoms: C_5  and  C_6
REMARK    5  A    between atoms: C_5  and  C_17
REMARK    6  A    between atoms: N_8  and  C_9
REMARK    7  A    between atoms: C_9  and  C_10
REMARK    8  A    between atoms: C_10  and  C_11
REMARK                            x       y       z     vdW  Elec       q    Type
REMARK                         _______ _______ _______ _____ _____    ______ ____
ROOT
ATOM      1  C   UNL     1       4.520   4.306  19.540  0.00  0.00    +0.000 C 
ATOM      2  O   UNL     1       5.041   3.193  19.476  0.00  0.00    +0.000 OA
ATOM      3  N   UNL     1       5.271   5.468  19.493  0.00  0.00    +0.000 N 
ATOM      4  H   UNL     1       4.809   6.339  19.730  0.00  0.00    +0.000 HD
ENDROOT
BRANCH   1   5
ATOM      5  C   UNL     1       2.988   4.517  19.623  0.00  0.00    +0.000 C 
BRANCH   5   6
ATOM      6  C   UNL     1       2.603   5.958  19.365  0.00  0.00    +0.000 A 
ATOM      7  C   UNL     1       2.723   6.531  18.094  0.00  0.00    +0.000 A 
ATOM      8  C   UNL     1       2.321   7.848  17.888  0.00  0.00    +0.000 A 
ATOM      9  C   UNL     1       1.823   8.560  18.966  0.00  0.00    +0.000 A 
ATOM     10  N   UNL     1       1.708   8.051  20.210  0.00  0.00    +0.000 NA
ATOM     11  C   UNL     1       2.091   6.764  20.379  0.00  0.00    +0.000 A 
ENDBRANCH   5   6
BRANCH   5  12
ATOM     12  O   UNL     1       2.300   3.697  18.661  0.00  0.00    +0.000 OA
BRANCH  12  14
ATOM     13  C   UNL     1       1.264   2.980  20.640  0.00  0.00    +0.000 C 
ATOM     14  C   UNL     1       1.280   2.939  19.141  0.00  0.00    +0.000 C 
ATOM     15  O   UNL     1       0.489   2.297  18.467  0.00  0.00    +0.000 OA
ENDBRANCH  12  14
ENDBRANCH   5  12
ENDBRANCH   1   5
BRANCH   3  16
ATOM     16  C   UNL     1       6.722   5.401  19.491  0.00  0.00    +0.000 C 
BRANCH  16  17
ATOM     17  C   UNL     1       7.340   6.123  18.294  0.00  0.00    +0.000 C 
BRANCH  17  18
ATOM     18  C   UNL     1       6.750   5.659  16.985  0.00  0.00    +0.000 A 
ATOM     19  C   UNL     1       5.799   6.442  16.317  0.00  0.00    +0.000 A 
ATOM     20  C   UNL     1       5.246   6.009  15.110  0.00  0.00    +0.000 A 
ATOM     21  C   UNL     1       5.634   4.786  14.562  0.00  0.00    +0.000 A 
ATOM     22  C   UNL     1       6.573   3.996  15.224  0.00  0.00    +0.000 A 
ATOM     23  C   UNL     1       7.128   4.429  16.430  0.00  0.00    +0.000 A 
ENDBRANCH  17  18
ENDBRANCH  16  17
ENDBRANCH   3  16
TORSDOF 7
ENDMDL
MODEL 7
REMARK VINA RESULT:      -7.2      0.994      1.082
REMARK  Name = 
REMARK  8 active torsions:
REMARK  status: ('A' for Active; 'I' for Inactive)
REMARK    1  A    between atoms: C_1  and  C_2
REMARK    2  A    between atoms: C_2  and  O_4
REMARK    3  A    between atoms: O_4  and  C_5
REMARK    4  A    between atoms: C_5  and  C_6
REMARK    5  A    between atoms: C_5  and  C_17
REMARK    6  A    between atoms: N_8  and  C_9
REMARK    7  A    between atoms: C_9  and  C_10
REMARK    8  A    between atoms: C_10  and  C_11
REMARK                            x       y       z     vdW  Elec       q    Type
REMARK                         _______ _______ _______ _____ _____    ______ ____
ROOT
ATOM      1  C   UNL     1       7.426   6.280  17.982  0.00  0.00    +0.000 C 
ATOM      2  O   UNL     1       8.044   5.899  18.975  0.00  0.00    +0.000 OA
ATOM      3  N   UNL     1       7.547   7.572  17.499  0.00  0.00    +0.000 N 
ATOM      4  H   UNL     1       6.883   7.877  16.796  0.00  0.00    +0.000 HD
ENDROOT
BRANCH   1   5
ATOM      5  C   UNL     1       6.505   5.352  17.152  0.00  0.00    +0.000 C 
BRANCH   5   6
ATOM      6  C   UNL     1       5.152   5.170  17.806  0.00  0.00    +0.000 A 
ATOM      7  C   UNL     1       4.061   5.979  17.466  0.00  0.00    +0.000 A 
ATOM      8  C   UNL     1       2.822   5.755  18.061  0.00  0.00    +0.000 A 
ATOM      9  C   UNL     1       2.714   4.735  18.990  0.00  0.00    +0.000 A 
ATOM     10  N   UNL     1       3.743   3.945  19.359  0.00  0.00    +0.000 NA
ATOM     11  C   UNL     1       4.932   4.174  18.755  0.00  0.00    +0.000 A 
ENDBRANCH   5   6
BRANCH   5  12
ATOM     12  O   UNL     1       6.291   5.882  15.831  0.00  0.00    +0.000 OA
BRANCH  12  14
ATOM     13  C   UNL     1       5.959   3.962  14.524  0.00  0.00    +0.000 C 
ATOM     14  C   UNL     1       6.814   5.162  14.805  0.00  0.00    +0.000 C 
ATOM     15  O   UNL     1       7.840   5.427  14.198  0.00  0.00    +0.000 OA
ENDBRANCH  12  14
ENDBRANCH   5  12
ENDBRANCH   1   5
BRANCH   3  16
ATOM     16  C   UNL     1       8.322   8.557  18.231  0.00  0.00    +0.000 C 
BRANCH  16  17
ATOM     17  C   UNL     1       8.312   9.929  17.558  0.00  0.00    +0.000 C 
BRANCH  17  18
ATOM     18  C   UNL     1       9.013  10.974  18.389  0.00  0.00    +0.000 A 
ATOM     19  C   UNL     1       8.997  12.320  18.000  0.00  0.00    +0.000 A 
ATOM     20  C   UNL     1       9.654  13.288  18.764  0.00  0.00    +0.000 A 
ATOM     21  C   UNL     1      10.338  12.918  19.921  0.00  0.00    +0.000 A 
ATOM     22  C   UNL     1      10.367  11.579  20.313  0.00  0.00    +0.000 A 
ATOM     23  C   UNL     1       9.709  10.612  19.550  0.00  0.00    +0.000 A 
ENDBRANCH  17  18
ENDBRANCH  16  17
ENDBRANCH   3  16
TORSDOF 7
ENDMDL
MODEL 8
REMARK VINA RESULT:      -7.2      2.710      7.054
REMARK  Name = 
REMARK  8 active torsions:
REMARK  status: ('A' for Active; 'I' for Inactive)
REMARK    1  A    between atoms: C_1  and  C_2
REMARK    2  A    between atoms: C_2  and  O_4
REMARK    3  A    between atoms: O_4  and  C_5
REMARK    4  A    between atoms: C_5  and  C_6
REMARK    5  A    between atoms: C_5  and  C_17
REMARK    6  A    between atoms: N_8  and  C_9
REMARK    7  A    between atoms: C_9  and  C_10
REMARK    8  A    between atoms: C_10  and  C_11
REMARK                            x       y       z     vdW  Elec       q    Type
REMARK                         _______ _______ _______ _____ _____    ______ ____
ROOT
ATOM      1  C   UNL     1       4.331   5.536  16.900  0.00  0.00    +0.000 C 
ATOM      2  O   UNL     1       3.796   4.428  16.889  0.00  0.00    +0.000 OA
ATOM      3  N   UNL     1       3.749   6.621  17.532  0.00  0.00    +0.000 N 
ATOM      4  H   UNL     1       4.143   7.538  17.353  0.00  0.00    +0.000 HD
ENDROOT
BRANCH   1   5
ATOM      5  C   UNL     1       5.716   5.811  16.263  0.00  0.00    +0.000 C 
BRANCH   5   6
ATOM      6  C   UNL     1       6.698   6.369  17.270  0.00  0.00    +0.000 A 
ATOM      7  C   UNL     1       7.170   5.596  18.337  0.00  0.00    +0.000 A 
ATOM      8  C   UNL     1       8.104   6.132  19.220  0.00  0.00    +0.000 A 
ATOM      9  C   UNL     1       8.529   7.434  19.017  0.00  0.00    +0.000 A 
ATOM     10  N   UNL     1       8.085   8.219  18.013  0.00  0.00    +0.000 NA
ATOM     11  C   UNL     1       7.190   7.668  17.161  0.00  0.00    +0.000 A 
ENDBRANCH   5   6
BRANCH   5  12
ATOM     12  O   UNL     1       6.282   4.607  15.714  0.00  0.00    +0.000 OA
BRANCH  12  14
ATOM     13  C   UNL     1       6.097   3.815  13.513  0.00  0.00    +0.000 C 
ATOM     14  C   UNL     1       6.822   4.712  14.472  0.00  0.00    +0.000 C 
ATOM     15  O   UNL     1       7.772   5.415  14.165  0.00  0.00    +0.000 OA
ENDBRANCH  12  14
ENDBRANCH   5  12
ENDBRANCH   1   5
BRANCH   3  16
ATOM     16  C   UNL     1       2.418   6.509  18.100  0.00  0.00    +0.000 C 
BRANCH  16  17
ATOM     17  C   UNL     1       2.440   6.371  19.622  0.00  0.00    +0.000 C 
BRANCH  17  18
ATOM     18  C   UNL     1       2.039   4.988  20.073  0.00  0.00    +0.000 A 
ATOM     19  C   UNL     1       2.431   4.509  21.330  0.00  0.00    +0.000 A 
ATOM     20  C   UNL     1       2.067   3.225  21.744  0.00  0.00    +0.000 A 
ATOM     21  C   UNL     1       1.315   2.407  20.903  0.00  0.00    +0.000 A 
ATOM     22  C   UNL     1       0.928   2.871  19.646  0.00  0.00    +0.000 A 
ATOM     23  C   UNL     1       1.289   4.155  19.232  0.00  0.00    +0.000 A 
ENDBRANCH  17  18
ENDBRANCH  16  17
ENDBRANCH   3  16
TORSDOF 7
ENDMDL
MODEL 9
REMARK VINA RESULT:      -7.2      3.874      6.045
REMARK  Name = 
REMARK  8 active torsions:
REMARK  status: ('A' for Active; 'I' for Inactive)
REMARK    1  A    between atoms: C_1  and  C_2
REMARK    2  A    between atoms: C_2  and  O_4
REMARK    3  A    between atoms: O_4  and  C_5
REMARK    4  A    between atoms: C_5  and  C_6
REMARK    5  A    between atoms: C_5  and  C_17
REMARK    6  A    between atoms: N_8  and  C_9
REMARK    7  A    between atoms: C_9  and  C_10
REMARK    8  A    between atoms: C_10  and  C_11
REMARK                            x       y       z     vdW  Elec       q    Type
REMARK                         _______ _______ _______ _____ _____    ______ ____
ROOT
ATOM      1  C   UNL     1       4.468   4.440  19.463  0.00  0.00    +0.000 C 
ATOM      2  O   UNL     1       4.955   3.320  19.307  0.00  0.00    +0.000 OA
ATOM      3  N   UNL     1       5.252   5.580  19.484  0.00  0.00    +0.000 N 
ATOM      4  H   UNL     1       4.821   6.444  19.795  0.00  0.00    +0.000 HD
ENDROOT
BRANCH   1   5
ATOM      5  C   UNL     1       2.944   4.687  19.594  0.00  0.00    +0.000 C 
BRANCH   5   6
ATOM      6  C   UNL     1       2.582   6.131  19.316  0.00  0.00    +0.000 A 
ATOM      7  C   UNL     1       2.761   6.698  18.049  0.00  0.00    +0.000 A 
ATOM      8  C   UNL     1       2.379   8.018  17.822  0.00  0.00    +0.000 A 
ATOM      9  C   UNL     1       1.840   8.737  18.876  0.00  0.00    +0.000 A 
ATOM     10  N   UNL     1       1.668   8.233  20.116  0.00  0.00    +0.000 NA
ATOM     11  C   UNL     1       2.033   6.944  20.305  0.00  0.00    +0.000 A 
ENDBRANCH   5   6
BRANCH   5  12
ATOM     12  O   UNL     1       2.205   3.861  18.676  0.00  0.00    +0.000 OA
BRANCH  12  14
ATOM     13  C   UNL     1       1.177   3.263  20.698  0.00  0.00    +0.000 C 
ATOM     14  C   UNL     1       1.328   2.986  19.232  0.00  0.00    +0.000 C 
ATOM     15  O   UNL     1       0.748   2.086  18.644  0.00  0.00    +0.000 OA
ENDBRANCH  12  14
ENDBRANCH   5  12
ENDBRANCH   1   5
BRANCH   3  16
ATOM     16  C   UNL     1       6.700   5.473  19.446  0.00  0.00    +0.000 C 
BRANCH  16  17
ATOM     17  C   UNL     1       7.305   6.148  18.216  0.00  0.00    +0.000 C 
BRANCH  17  18
ATOM     18  C   UNL     1       6.709   5.628  16.932  0.00  0.00    +0.000 A 
ATOM     19  C   UNL     1       7.113   4.391  16.411  0.00  0.00    +0.000 A 
ATOM     20  C   UNL     1       6.568   3.913  15.216  0.00  0.00    +0.000 A 
ATOM     21  C   UNL     1       5.619   4.669  14.530  0.00  0.00    +0.000 A 
ATOM     22  C   UNL     1       5.216   5.905  15.036  0.00  0.00    +0.000 A 
ATOM     23  C   UNL     1       5.759   6.382  16.230  0.00  0.00    +0.000 A 
ENDBRANCH  17  18
ENDBRANCH  16  17
ENDBRANCH   3  16
TORSDOF 7
ENDMDL
