MODEL 1
REMARK VINA RESULT:      -8.4      0.000      0.000
REMARK  Name = 
REMARK  5 active torsions:
REMARK  status: ('A' for Active; 'I' for Inactive)
REMARK    1  A    between atoms: C_5  and  C_6
REMARK    2  A    between atoms: C_9  and  O_10
REMARK    3  A    between atoms: C_12  and  O_13
REMARK    4  A    between atoms: C_18  and  C_19
REMARK    5  A    between atoms: C_19  and  N_20
REMARK                            x       y       z     vdW  Elec       q    Type
REMARK                         _______ _______ _______ _____ _____    ______ ____
ROOT
ATOM      1  O   UNL     1       0.694   3.884  19.657  0.00  0.00    +0.000 OA
ATOM      2  C   UNL     1       1.790   3.422  19.351  0.00  0.00    +0.000 C 
ATOM      3  C   UNL     1       2.088   1.947  19.486  0.00  0.00    +0.000 C 
ATOM      4  S   UNL     1       3.728   1.680  18.793  0.00  0.00    +0.000 S 
ATOM      5  C   UNL     1       4.156   3.443  18.931  0.00  0.00    +0.000 C 
ATOM      6  N   UNL     1       2.888   4.143  18.881  0.00  0.00    +0.000 N 
ATOM      7  C   UNL     1       2.769   5.514  18.965  0.00  0.00    +0.000 A 
ATOM      8  N   UNL     1       3.462   6.356  19.694  0.00  0.00    +0.000 NA
ATOM      9  N   UNL     1       3.034   7.664  19.503  0.00  0.00    +0.000 NA
ATOM     10  C   UNL     1       2.124   7.757  18.549  0.00  0.00    +0.000 A 
ATOM     11  S   UNL     1       1.737   6.249  17.818  0.00  0.00    +0.000 S 
ENDROOT
BRANCH   5  12
ATOM     12  C   UNL     1       5.110   3.896  17.841  0.00  0.00    +0.000 A 
ATOM     13  C   UNL     1       4.856   3.626  16.478  0.00  0.00    +0.000 A 
ATOM     14  C   UNL     1       5.642   4.197  15.473  0.00  0.00    +0.000 A 
ATOM     15  C   UNL     1       6.691   5.038  15.823  0.00  0.00    +0.000 A 
ATOM     16  C   UNL     1       7.008   5.265  17.157  0.00  0.00    +0.000 A 
ATOM     17  C   UNL     1       6.221   4.688  18.154  0.00  0.00    +0.000 A 
BRANCH  15  18
ATOM     18  O   UNL     1       7.431   5.682  14.878  0.00  0.00    +0.000 OA
ATOM     19  H   UNL     1       6.840   6.247  14.351  0.00  0.00    +0.000 HD
ENDBRANCH  15  18
BRANCH  17  20
ATOM     20  O   UNL     1       6.521   4.911  19.469  0.00  0.00    +0.000 OA
ATOM     21  H   UNL     1       7.257   5.546  19.521  0.00  0.00    +0.000 HD
ENDBRANCH  17  20
ENDBRANCH   5  12
BRANCH  10  22
ATOM     22  C   UNL     1       1.530   9.025  18.036  0.00  0.00    +0.000 C 
BRANCH  22  23
ATOM     23  N   UNL     1       1.319  10.005  19.100  0.00  0.00    +0.000 N 
ATOM     24  C   UNL     1       0.635   9.757  20.280  0.00  0.00    +0.000 A 
ATOM     25  C   UNL     1       0.068   8.582  20.805  0.00  0.00    +0.000 A 
ATOM     26  C   UNL     1      -0.558   8.642  22.057  0.00  0.00    +0.000 A 
ATOM     27  C   UNL     1      -0.635   9.839  22.757  0.00  0.00    +0.000 A 
ATOM     28  C   UNL     1      -0.074  11.003  22.229  0.00  0.00    +0.000 A 
ATOM     29  C   UNL     1       0.574  10.967  20.975  0.00  0.00    +0.000 A 
ATOM     30  C   UNL     1       1.226  11.961  20.183  0.00  0.00    +0.000 A 
ATOM     31  C   UNL     1       1.464  13.338  20.358  0.00  0.00    +0.000 A 
ATOM     32  C   UNL     1       2.137  14.057  19.367  0.00  0.00    +0.000 A 
ATOM     33  C   UNL     1       2.578  13.423  18.212  0.00  0.00    +0.000 A 
ATOM     34  C   UNL     1       2.364  12.055  18.020  0.00  0.00    +0.000 A 
ATOM     35  C   UNL     1       1.682  11.338  19.019  0.00  0.00    +0.000 A 
ENDBRANCH  22  23
ENDBRANCH  10  22
TORSDOF 5
ENDMDL
MODEL 2
REMARK VINA RESULT:      -8.3      0.144      2.789
REMARK  Name = 
REMARK  5 active torsions:
REMARK  status: ('A' for Active; 'I' for Inactive)
REMARK    1  A    between atoms: C_5  and  C_6
REMARK    2  A    between atoms: C_9  and  O_10
REMARK    3  A    between atoms: C_12  and  O_13
REMARK    4  A    between atoms: C_18  and  C_19
REMARK    5  A    between atoms: C_19  and  N_20
REMARK                            x       y       z     vdW  Elec       q    Type
REMARK                         _______ _______ _______ _____ _____    ______ ____
ROOT
ATOM      1  O   UNL     1       0.651   3.918  19.706  0.00  0.00    +0.000 OA
ATOM      2  C   UNL     1       1.762   3.467  19.440  0.00  0.00    +0.000 C 
ATOM      3  C   UNL     1       2.078   2.000  19.616  0.00  0.00    +0.000 C 
ATOM      4  S   UNL     1       3.742   1.744  18.975  0.00  0.00    +0.000 S 
ATOM      5  C   UNL     1       4.138   3.516  19.086  0.00  0.00    +0.000 C 
ATOM      6  N   UNL     1       2.862   4.195  18.985  0.00  0.00    +0.000 N 
ATOM      7  C   UNL     1       2.719   5.565  19.035  0.00  0.00    +0.000 A 
ATOM      8  N   UNL     1       3.379   6.434  19.765  0.00  0.00    +0.000 NA
ATOM      9  N   UNL     1       2.937   7.731  19.533  0.00  0.00    +0.000 NA
ATOM     10  C   UNL     1       2.053   7.788  18.553  0.00  0.00    +0.000 A 
ATOM     11  S   UNL     1       1.710   6.259  17.844  0.00  0.00    +0.000 S 
ENDROOT
BRANCH   5  12
ATOM     12  C   UNL     1       5.116   3.961  18.013  0.00  0.00    +0.000 A 
ATOM     13  C   UNL     1       4.907   3.654  16.651  0.00  0.00    +0.000 A 
ATOM     14  C   UNL     1       5.711   4.214  15.656  0.00  0.00    +0.000 A 
ATOM     15  C   UNL     1       6.735   5.083  16.015  0.00  0.00    +0.000 A 
ATOM     16  C   UNL     1       7.009   5.347  17.352  0.00  0.00    +0.000 A 
ATOM     17  C   UNL     1       6.203   4.780  18.340  0.00  0.00    +0.000 A 
BRANCH  15  18
ATOM     18  O   UNL     1       7.491   5.718  15.076  0.00  0.00    +0.000 OA
ATOM     19  H   UNL     1       6.939   5.884  14.293  0.00  0.00    +0.000 HD
ENDBRANCH  15  18
BRANCH  17  20
ATOM     20  O   UNL     1       6.460   5.040  19.656  0.00  0.00    +0.000 OA
ATOM     21  H   UNL     1       6.907   5.901  19.726  0.00  0.00    +0.000 HD
ENDBRANCH  17  20
ENDBRANCH   5  12
BRANCH  10  22
ATOM     22  C   UNL     1       1.454   9.035  17.995  0.00  0.00    +0.000 C 
BRANCH  22  23
ATOM     23  N   UNL     1       1.199  10.035  19.031  0.00  0.00    +0.000 N 
ATOM     24  C   UNL     1       1.658  11.342  18.996  0.00  0.00    +0.000 A 
ATOM     25  C   UNL     1       2.362  12.064  18.015  0.00  0.00    +0.000 A 
ATOM     26  C   UNL     1       2.678  13.405  18.269  0.00  0.00    +0.000 A 
ATOM     27  C   UNL     1       2.322  14.005  19.469  0.00  0.00    +0.000 A 
ATOM     28  C   UNL     1       1.627  13.284  20.441  0.00  0.00    +0.000 A 
ATOM     29  C   UNL     1       1.286  11.934  20.206  0.00  0.00    +0.000 A 
ATOM     30  C   UNL     1       0.600  10.951  20.982  0.00  0.00    +0.000 A 
ATOM     31  C   UNL     1       0.013  10.961  22.262  0.00  0.00    +0.000 A 
ATOM     32  C   UNL     1      -0.586   9.802  22.761  0.00  0.00    +0.000 A 
ATOM     33  C   UNL     1      -0.612   8.640  22.001  0.00  0.00    +0.000 A 
ATOM     34  C   UNL     1      -0.047   8.606  20.723  0.00  0.00    +0.000 A 
ATOM     35  C   UNL     1       0.559   9.775  20.229  0.00  0.00    +0.000 A 
ENDBRANCH  22  23
ENDBRANCH  10  22
TORSDOF 5
ENDMDL
MODEL 3
REMARK VINA RESULT:      -8.3      3.572      8.218
REMARK  Name = 
REMARK  5 active torsions:
REMARK  status: ('A' for Active; 'I' for Inactive)
REMARK    1  A    between atoms: C_5  and  C_6
REMARK    2  A    between atoms: C_9  and  O_10
REMARK    3  A    between atoms: C_12  and  O_13
REMARK    4  A    between atoms: C_18  and  C_19
REMARK    5  A    between atoms: C_19  and  N_20
REMARK                            x       y       z     vdW  Elec       q    Type
REMARK                         _______ _______ _______ _____ _____    ______ ____
ROOT
ATOM      1  O   UNL     1      -1.742   9.618  19.237  0.00  0.00    +0.000 OA
ATOM      2  C   UNL     1      -1.282  10.748  19.092  0.00  0.00    +0.000 C 
ATOM      3  C   UNL     1      -2.181  11.957  18.997  0.00  0.00    +0.000 C 
ATOM      4  S   UNL     1      -1.109  13.403  18.946  0.00  0.00    +0.000 S 
ATOM      5  C   UNL     1       0.333  12.409  18.454  0.00  0.00    +0.000 C 
ATOM      6  N   UNL     1       0.068  11.080  18.968  0.00  0.00    +0.000 N 
ATOM      7  C   UNL     1       0.921  10.011  18.801  0.00  0.00    +0.000 A 
ATOM      8  N   UNL     1       1.662   9.706  17.761  0.00  0.00    +0.000 NA
ATOM      9  N   UNL     1       2.386   8.540  17.979  0.00  0.00    +0.000 NA
ATOM     10  C   UNL     1       2.251   8.092  19.214  0.00  0.00    +0.000 A 
ATOM     11  S   UNL     1       1.233   9.073  20.195  0.00  0.00    +0.000 S 
ENDROOT
BRANCH   5  12
ATOM     12  C   UNL     1       1.639  12.980  18.977  0.00  0.00    +0.000 A 
ATOM     13  C   UNL     1       2.625  13.487  18.103  0.00  0.00    +0.000 A 
ATOM     14  C   UNL     1       3.741  14.169  18.596  0.00  0.00    +0.000 A 
ATOM     15  C   UNL     1       3.881  14.346  19.968  0.00  0.00    +0.000 A 
ATOM     16  C   UNL     1       2.963  13.796  20.854  0.00  0.00    +0.000 A 
ATOM     17  C   UNL     1       1.854  13.113  20.354  0.00  0.00    +0.000 A 
BRANCH  15  18
ATOM     18  O   UNL     1       4.907  15.075  20.489  0.00  0.00    +0.000 OA
ATOM     19  H   UNL     1       4.660  16.016  20.473  0.00  0.00    +0.000 HD
ENDBRANCH  15  18
BRANCH  17  20
ATOM     20  O   UNL     1       0.942  12.576  21.218  0.00  0.00    +0.000 OA
ATOM     21  H   UNL     1       0.662  11.707  20.882  0.00  0.00    +0.000 HD
ENDBRANCH  17  20
ENDBRANCH   5  12
BRANCH  10  22
ATOM     22  C   UNL     1       2.965   6.920  19.797  0.00  0.00    +0.000 C 
BRANCH  22  23
ATOM     23  N   UNL     1       3.033   5.796  18.864  0.00  0.00    +0.000 N 
ATOM     24  C   UNL     1       2.278   4.639  18.964  0.00  0.00    +0.000 A 
ATOM     25  C   UNL     1       1.254   4.261  19.852  0.00  0.00    +0.000 A 
ATOM     26  C   UNL     1       0.657   3.005  19.689  0.00  0.00    +0.000 A 
ATOM     27  C   UNL     1       1.078   2.141  18.687  0.00  0.00    +0.000 A 
ATOM     28  C   UNL     1       2.098   2.518  17.812  0.00  0.00    +0.000 A 
ATOM     29  C   UNL     1       2.708   3.785  17.946  0.00  0.00    +0.000 A 
ATOM     30  C   UNL     1       3.753   4.446  17.231  0.00  0.00    +0.000 A 
ATOM     31  C   UNL     1       4.557   4.085  16.133  0.00  0.00    +0.000 A 
ATOM     32  C   UNL     1       5.528   4.971  15.662  0.00  0.00    +0.000 A 
ATOM     33  C   UNL     1       5.704   6.210  16.265  0.00  0.00    +0.000 A 
ATOM     34  C   UNL     1       4.911   6.598  17.349  0.00  0.00    +0.000 A 
ATOM     35  C   UNL     1       3.939   5.699  17.821  0.00  0.00    +0.000 A 
ENDBRANCH  22  23
ENDBRANCH  10  22
TORSDOF 5
ENDMDL
MODEL 4
REMARK VINA RESULT:      -8.2      3.400      8.210
REMARK  Name = 
REMARK  5 active torsions:
REMARK  status: ('A' for Active; 'I' for Inactive)
REMARK    1  A    between atoms: C_5  and  C_6
REMARK    2  A    between atoms: C_9  and  O_10
REMARK    3  A    between atoms: C_12  and  O_13
REMARK    4  A    between atoms: C_18  and  C_19
REMARK    5  A    between atoms: C_19  and  N_20
REMARK                            x       y       z     vdW  Elec       q    Type
REMARK                         _______ _______ _______ _____ _____    ______ ____
ROOT
ATOM      1  O   UNL     1      -1.941   9.296  18.829  0.00  0.00    +0.000 OA
ATOM      2  C   UNL     1      -1.602  10.476  18.800  0.00  0.00    +0.000 C 
ATOM      3  C   UNL     1      -2.621  11.584  18.683  0.00  0.00    +0.000 C 
ATOM      4  S   UNL     1      -1.721  13.138  18.830  0.00  0.00    +0.000 S 
ATOM      5  C   UNL     1      -0.133  12.343  18.435  0.00  0.00    +0.000 C 
ATOM      6  N   UNL     1      -0.294  10.960  18.839  0.00  0.00    +0.000 N 
ATOM      7  C   UNL     1       0.689  10.004  18.699  0.00  0.00    +0.000 A 
ATOM      8  N   UNL     1       1.558   9.855  17.727  0.00  0.00    +0.000 NA
ATOM      9  N   UNL     1       2.387   8.762  17.951  0.00  0.00    +0.000 NA
ATOM     10  C   UNL     1       2.184   8.216  19.136  0.00  0.00    +0.000 A 
ATOM     11  S   UNL     1       0.969   9.010  20.060  0.00  0.00    +0.000 S 
ENDROOT
BRANCH   5  12
ATOM     12  C   UNL     1       1.040  13.014  19.125  0.00  0.00    +0.000 A 
ATOM     13  C   UNL     1       0.966  13.426  20.473  0.00  0.00    +0.000 A 
ATOM     14  C   UNL     1       2.101  13.879  21.150  0.00  0.00    +0.000 A 
ATOM     15  C   UNL     1       3.319  13.928  20.482  0.00  0.00    +0.000 A 
ATOM     16  C   UNL     1       3.408  13.596  19.136  0.00  0.00    +0.000 A 
ATOM     17  C   UNL     1       2.268  13.149  18.466  0.00  0.00    +0.000 A 
BRANCH  15  18
ATOM     18  O   UNL     1       4.468  14.283  21.124  0.00  0.00    +0.000 OA
ATOM     19  H   UNL     1       4.526  13.784  21.957  0.00  0.00    +0.000 HD
ENDBRANCH  15  18
BRANCH  17  20
ATOM     20  O   UNL     1       2.347  12.812  17.144  0.00  0.00    +0.000 OA
ATOM     21  H   UNL     1       2.264  11.846  17.060  0.00  0.00    +0.000 HD
ENDBRANCH  17  20
ENDBRANCH   5  12
BRANCH  10  22
ATOM     22  C   UNL     1       2.968   7.090  19.720  0.00  0.00    +0.000 C 
BRANCH  22  23
ATOM     23  N   UNL     1       3.035   5.940  18.820  0.00  0.00    +0.000 N 
ATOM     24  C   UNL     1       2.298   4.776  18.970  0.00  0.00    +0.000 A 
ATOM     25  C   UNL     1       1.295   4.411  19.887  0.00  0.00    +0.000 A 
ATOM     26  C   UNL     1       0.713   3.143  19.774  0.00  0.00    +0.000 A 
ATOM     27  C   UNL     1       1.128   2.255  18.790  0.00  0.00    +0.000 A 
ATOM     28  C   UNL     1       2.127   2.619  17.885  0.00  0.00    +0.000 A 
ATOM     29  C   UNL     1       2.721   3.897  17.970  0.00  0.00    +0.000 A 
ATOM     30  C   UNL     1       3.743   4.551  17.216  0.00  0.00    +0.000 A 
ATOM     31  C   UNL     1       4.533   4.167  16.115  0.00  0.00    +0.000 A 
ATOM     32  C   UNL     1       5.482   5.052  15.599  0.00  0.00    +0.000 A 
ATOM     33  C   UNL     1       5.652   6.310  16.162  0.00  0.00    +0.000 A 
ATOM     34  C   UNL     1       4.873   6.720  17.248  0.00  0.00    +0.000 A 
ATOM     35  C   UNL     1       3.922   5.823  17.765  0.00  0.00    +0.000 A 
ENDBRANCH  22  23
ENDBRANCH  10  22
TORSDOF 5
ENDMDL
MODEL 5
REMARK VINA RESULT:      -7.9      3.402      8.605
REMARK  Name = 
REMARK  5 active torsions:
REMARK  status: ('A' for Active; 'I' for Inactive)
REMARK    1  A    between atoms: C_5  and  C_6
REMARK    2  A    between atoms: C_9  and  O_10
REMARK    3  A    between atoms: C_12  and  O_13
REMARK    4  A    between atoms: C_18  and  C_19
REMARK    5  A    between atoms: C_19  and  N_20
REMARK                            x       y       z     vdW  Elec       q    Type
REMARK                         _______ _______ _______ _____ _____    ______ ____
ROOT
ATOM      1  O   UNL     1      -1.932   9.233  18.726  0.00  0.00    +0.000 OA
ATOM      2  C   UNL     1      -1.595  10.413  18.688  0.00  0.00    +0.000 C 
ATOM      3  C   UNL     1      -2.610  11.516  18.503  0.00  0.00    +0.000 C 
ATOM      4  S   UNL     1      -1.723  13.075  18.659  0.00  0.00    +0.000 S 
ATOM      5  C   UNL     1      -0.117  12.278  18.353  0.00  0.00    +0.000 C 
ATOM      6  N   UNL     1      -0.291  10.903  18.777  0.00  0.00    +0.000 N 
ATOM      7  C   UNL     1       0.700   9.949  18.702  0.00  0.00    +0.000 A 
ATOM      8  N   UNL     1       1.613   9.783  17.773  0.00  0.00    +0.000 NA
ATOM      9  N   UNL     1       2.434   8.698  18.056  0.00  0.00    +0.000 NA
ATOM     10  C   UNL     1       2.178   8.175  19.242  0.00  0.00    +0.000 A 
ATOM     11  S   UNL     1       0.920   8.983  20.094  0.00  0.00    +0.000 S 
ENDROOT
BRANCH   5  12
ATOM     12  C   UNL     1       1.022  12.967  19.083  0.00  0.00    +0.000 A 
ATOM     13  C   UNL     1       0.905  13.357  20.434  0.00  0.00    +0.000 A 
ATOM     14  C   UNL     1       2.011  13.828  21.146  0.00  0.00    +0.000 A 
ATOM     15  C   UNL     1       3.244  13.916  20.510  0.00  0.00    +0.000 A 
ATOM     16  C   UNL     1       3.374  13.607  19.162  0.00  0.00    +0.000 A 
ATOM     17  C   UNL     1       2.263  13.142  18.457  0.00  0.00    +0.000 A 
BRANCH  15  18
ATOM     18  O   UNL     1       4.367  14.289  21.186  0.00  0.00    +0.000 OA
ATOM     19  H   UNL     1       4.848  14.944  20.651  0.00  0.00    +0.000 HD
ENDBRANCH  15  18
BRANCH  17  20
ATOM     20  O   UNL     1       2.382  12.828  17.133  0.00  0.00    +0.000 OA
ATOM     21  H   UNL     1       3.220  13.192  16.797  0.00  0.00    +0.000 HD
ENDBRANCH  17  20
ENDBRANCH   5  12
BRANCH  10  22
ATOM     22  C   UNL     1       2.938   7.064  19.884  0.00  0.00    +0.000 C 
BRANCH  22  23
ATOM     23  N   UNL     1       3.080   5.910  18.997  0.00  0.00    +0.000 N 
ATOM     24  C   UNL     1       3.937   5.850  17.910  0.00  0.00    +0.000 A 
ATOM     25  C   UNL     1       4.901   6.753  17.424  0.00  0.00    +0.000 A 
ATOM     26  C   UNL     1       5.638   6.397  16.288  0.00  0.00    +0.000 A 
ATOM     27  C   UNL     1       5.412   5.190  15.641  0.00  0.00    +0.000 A 
ATOM     28  C   UNL     1       4.451   4.299  16.124  0.00  0.00    +0.000 A 
ATOM     29  C   UNL     1       3.703   4.628  17.276  0.00  0.00    +0.000 A 
ATOM     30  C   UNL     1       2.672   3.951  17.997  0.00  0.00    +0.000 A 
ATOM     31  C   UNL     1       2.024   2.712  17.829  0.00  0.00    +0.000 A 
ATOM     32  C   UNL     1       1.018   2.329  18.720  0.00  0.00    +0.000 A 
ATOM     33  C   UNL     1       0.655   3.159  19.773  0.00  0.00    +0.000 A 
ATOM     34  C   UNL     1       1.291   4.388  19.968  0.00  0.00    +0.000 A 
ATOM     35  C   UNL     1       2.299   4.770  19.066  0.00  0.00    +0.000 A 
ENDBRANCH  22  23
ENDBRANCH  10  22
TORSDOF 5
ENDMDL
MODEL 6
REMARK VINA RESULT:      -7.8      3.569      8.609
REMARK  Name = 
REMARK  5 active torsions:
REMARK  status: ('A' for Active; 'I' for Inactive)
REMARK    1  A    between atoms: C_5  and  C_6
REMARK    2  A    between atoms: C_9  and  O_10
REMARK    3  A    between atoms: C_12  and  O_13
REMARK    4  A    between atoms: C_18  and  C_19
REMARK    5  A    between atoms: C_19  and  N_20
REMARK                            x       y       z     vdW  Elec       q    Type
REMARK                         _______ _______ _______ _____ _____    ______ ____
ROOT
ATOM      1  O   UNL     1      -1.752   9.557  19.135  0.00  0.00    +0.000 OA
ATOM      2  C   UNL     1      -1.289  10.684  18.978  0.00  0.00    +0.000 C 
ATOM      3  C   UNL     1      -2.188  11.887  18.818  0.00  0.00    +0.000 C 
ATOM      4  S   UNL     1      -1.119  13.336  18.771  0.00  0.00    +0.000 S 
ATOM      5  C   UNL     1       0.344  12.335  18.362  0.00  0.00    +0.000 C 
ATOM      6  N   UNL     1       0.063  11.019  18.900  0.00  0.00    +0.000 N 
ATOM      7  C   UNL     1       0.926   9.949  18.793  0.00  0.00    +0.000 A 
ATOM      8  N   UNL     1       1.708   9.620  17.791  0.00  0.00    +0.000 NA
ATOM      9  N   UNL     1       2.427   8.464  18.067  0.00  0.00    +0.000 NA
ATOM     10  C   UNL     1       2.244   8.047  19.307  0.00  0.00    +0.000 A 
ATOM     11  S   UNL     1       1.186   9.049  20.222  0.00  0.00    +0.000 S 
ENDROOT
BRANCH   5  12
ATOM     12  C   UNL     1       1.626  12.925  18.921  0.00  0.00    +0.000 A 
ATOM     13  C   UNL     1       2.637  13.429  18.074  0.00  0.00    +0.000 A 
ATOM     14  C   UNL     1       3.730  14.128  18.596  0.00  0.00    +0.000 A 
ATOM     15  C   UNL     1       3.822  14.323  19.968  0.00  0.00    +0.000 A 
ATOM     16  C   UNL     1       2.879  13.777  20.831  0.00  0.00    +0.000 A 
ATOM     17  C   UNL     1       1.794  13.077  20.303  0.00  0.00    +0.000 A 
BRANCH  15  18
ATOM     18  O   UNL     1       4.824  15.069  20.514  0.00  0.00    +0.000 OA
ATOM     19  H   UNL     1       4.429  15.815  20.997  0.00  0.00    +0.000 HD
ENDBRANCH  15  18
BRANCH  17  20
ATOM     20  O   UNL     1       0.858  12.544  21.143  0.00  0.00    +0.000 OA
ATOM     21  H   UNL     1       0.468  11.757  20.722  0.00  0.00    +0.000 HD
ENDBRANCH  17  20
ENDBRANCH   5  12
BRANCH  10  22
ATOM     22  C   UNL     1       2.939   6.893  19.947  0.00  0.00    +0.000 C 
BRANCH  22  23
ATOM     23  N   UNL     1       3.094   5.766  19.030  0.00  0.00    +0.000 N 
ATOM     24  C   UNL     1       3.968   5.737  17.954  0.00  0.00    +0.000 A 
ATOM     25  C   UNL     1       4.939   6.653  17.509  0.00  0.00    +0.000 A 
ATOM     26  C   UNL     1       5.693   6.330  16.374  0.00  0.00    +0.000 A 
ATOM     27  C   UNL     1       5.476   5.143  15.689  0.00  0.00    +0.000 A 
ATOM     28  C   UNL     1       4.508   4.239  16.132  0.00  0.00    +0.000 A 
ATOM     29  C   UNL     1       3.742   4.534  17.281  0.00  0.00    +0.000 A 
ATOM     30  C   UNL     1       2.701   3.837  17.966  0.00  0.00    +0.000 A 
ATOM     31  C   UNL     1       2.055   2.604  17.752  0.00  0.00    +0.000 A 
ATOM     32  C   UNL     1       1.036   2.196  18.616  0.00  0.00    +0.000 A 
ATOM     33  C   UNL     1       0.657   2.994  19.687  0.00  0.00    +0.000 A 
ATOM     34  C   UNL     1       1.291   4.217  19.928  0.00  0.00    +0.000 A 
ATOM     35  C   UNL     1       2.312   4.624  19.053  0.00  0.00    +0.000 A 
ENDBRANCH  22  23
ENDBRANCH  10  22
TORSDOF 5
ENDMDL
MODEL 7
REMARK VINA RESULT:      -7.7      5.697      8.894
REMARK  Name = 
REMARK  5 active torsions:
REMARK  status: ('A' for Active; 'I' for Inactive)
REMARK    1  A    between atoms: C_5  and  C_6
REMARK    2  A    between atoms: C_9  and  O_10
REMARK    3  A    between atoms: C_12  and  O_13
REMARK    4  A    between atoms: C_18  and  C_19
REMARK    5  A    between atoms: C_19  and  N_20
REMARK                            x       y       z     vdW  Elec       q    Type
REMARK                         _______ _______ _______ _____ _____    ______ ____
ROOT
ATOM      1  O   UNL     1       0.454   9.802  23.900  0.00  0.00    +0.000 OA
ATOM      2  C   UNL     1       0.576   9.660  22.686  0.00  0.00    +0.000 C 
ATOM      3  C   UNL     1       1.339   8.494  22.103  0.00  0.00    +0.000 C 
ATOM      4  S   UNL     1       1.144   8.583  20.315  0.00  0.00    +0.000 S 
ATOM      5  C   UNL     1       0.653  10.334  20.380  0.00  0.00    +0.000 C 
ATOM      6  N   UNL     1       0.083  10.517  21.700  0.00  0.00    +0.000 N 
ATOM      7  C   UNL     1      -0.407  11.719  22.161  0.00  0.00    +0.000 A 
ATOM      8  N   UNL     1       0.049  12.931  21.944  0.00  0.00    +0.000 NA
ATOM      9  N   UNL     1      -0.724  13.887  22.590  0.00  0.00    +0.000 NA
ATOM     10  C   UNL     1      -1.794  13.363  23.160  0.00  0.00    +0.000 A 
ATOM     11  S   UNL     1      -1.929  11.662  22.936  0.00  0.00    +0.000 S 
ENDROOT
BRANCH   5  12
ATOM     12  C   UNL     1      -0.318  10.707  19.275  0.00  0.00    +0.000 A 
ATOM     13  C   UNL     1      -1.345   9.828  18.867  0.00  0.00    +0.000 A 
ATOM     14  C   UNL     1      -2.338  10.246  17.978  0.00  0.00    +0.000 A 
ATOM     15  C   UNL     1      -2.310  11.545  17.486  0.00  0.00    +0.000 A 
ATOM     16  C   UNL     1      -1.272  12.409  17.814  0.00  0.00    +0.000 A 
ATOM     17  C   UNL     1      -0.281  11.982  18.699  0.00  0.00    +0.000 A 
BRANCH  15  18
ATOM     18  O   UNL     1      -3.302  12.023  16.683  0.00  0.00    +0.000 OA
ATOM     19  H   UNL     1      -2.905  12.601  16.009  0.00  0.00    +0.000 HD
ENDBRANCH  15  18
BRANCH  17  20
ATOM     20  O   UNL     1       0.739  12.827  19.034  0.00  0.00    +0.000 OA
ATOM     21  H   UNL     1       0.637  13.091  19.965  0.00  0.00    +0.000 HD
ENDBRANCH  17  20
ENDBRANCH   5  12
BRANCH  10  22
ATOM     22  C   UNL     1      -2.872  14.126  23.852  0.00  0.00    +0.000 C 
BRANCH  22  23
ATOM     23  N   UNL     1      -4.015  14.381  22.976  0.00  0.00    +0.000 N 
ATOM     24  C   UNL     1      -4.040  15.331  21.967  0.00  0.00    +0.000 A 
ATOM     25  C   UNL     1      -3.049  16.193  21.465  0.00  0.00    +0.000 A 
ATOM     26  C   UNL     1      -3.379  17.048  20.406  0.00  0.00    +0.000 A 
ATOM     27  C   UNL     1      -4.661  17.061  19.875  0.00  0.00    +0.000 A 
ATOM     28  C   UNL     1      -5.643  16.207  20.380  0.00  0.00    +0.000 A 
ATOM     29  C   UNL     1      -5.333  15.326  21.439  0.00  0.00    +0.000 A 
ATOM     30  C   UNL     1      -6.098  14.358  22.160  0.00  0.00    +0.000 A 
ATOM     31  C   UNL     1      -7.436  13.925  22.083  0.00  0.00    +0.000 A 
ATOM     32  C   UNL     1      -7.899  12.944  22.961  0.00  0.00    +0.000 A 
ATOM     33  C   UNL     1      -7.049  12.387  23.908  0.00  0.00    +0.000 A 
ATOM     34  C   UNL     1      -5.714  12.791  23.998  0.00  0.00    +0.000 A 
ATOM     35  C   UNL     1      -5.255  13.783  23.114  0.00  0.00    +0.000 A 
ENDBRANCH  22  23
ENDBRANCH  10  22
TORSDOF 5
ENDMDL
MODEL 8
REMARK VINA RESULT:      -7.6      5.518      9.956
REMARK  Name = 
REMARK  5 active torsions:
REMARK  status: ('A' for Active; 'I' for Inactive)
REMARK    1  A    between atoms: C_5  and  C_6
REMARK    2  A    between atoms: C_9  and  O_10
REMARK    3  A    between atoms: C_12  and  O_13
REMARK    4  A    between atoms: C_18  and  C_19
REMARK    5  A    between atoms: C_19  and  N_20
REMARK                            x       y       z     vdW  Elec       q    Type
REMARK                         _______ _______ _______ _____ _____    ______ ____
ROOT
ATOM      1  O   UNL     1       3.281  14.233  22.186  0.00  0.00    +0.000 OA
ATOM      2  C   UNL     1       3.184  15.371  21.734  0.00  0.00    +0.000 C 
ATOM      3  C   UNL     1       4.047  16.498  22.251  0.00  0.00    +0.000 C 
ATOM      4  S   UNL     1       3.697  17.937  21.226  0.00  0.00    +0.000 S 
ATOM      5  C   UNL     1       2.126  17.231  20.641  0.00  0.00    +0.000 C 
ATOM      6  N   UNL     1       2.295  15.795  20.747  0.00  0.00    +0.000 N 
ATOM      7  C   UNL     1       1.318  14.884  20.407  0.00  0.00    +0.000 A 
ATOM      8  N   UNL     1       0.019  14.970  20.575  0.00  0.00    +0.000 NA
ATOM      9  N   UNL     1      -0.630  13.836  20.101  0.00  0.00    +0.000 NA
ATOM     10  C   UNL     1       0.197  13.007  19.490  0.00  0.00    +0.000 A 
ATOM     11  S   UNL     1       1.824  13.564  19.447  0.00  0.00    +0.000 S 
ENDROOT
BRANCH   5  12
ATOM     12  C   UNL     1       1.781  17.670  19.230  0.00  0.00    +0.000 A 
ATOM     13  C   UNL     1       2.630  17.382  18.139  0.00  0.00    +0.000 A 
ATOM     14  C   UNL     1       2.224  17.632  16.826  0.00  0.00    +0.000 A 
ATOM     15  C   UNL     1       0.966  18.177  16.593  0.00  0.00    +0.000 A 
ATOM     16  C   UNL     1       0.139  18.536  17.650  0.00  0.00    +0.000 A 
ATOM     17  C   UNL     1       0.554  18.287  18.959  0.00  0.00    +0.000 A 
BRANCH  15  18
ATOM     18  O   UNL     1       0.494  18.360  15.328  0.00  0.00    +0.000 OA
ATOM     19  H   UNL     1       1.221  18.684  14.769  0.00  0.00    +0.000 HD
ENDBRANCH  15  18
BRANCH  17  20
ATOM     20  O   UNL     1      -0.257  18.629  20.004  0.00  0.00    +0.000 OA
ATOM     21  H   UNL     1       0.181  19.323  20.528  0.00  0.00    +0.000 HD
ENDBRANCH  17  20
ENDBRANCH   5  12
BRANCH  10  22
ATOM     22  C   UNL     1      -0.193  11.748  18.792  0.00  0.00    +0.000 C 
BRANCH  22  23
ATOM     23  N   UNL     1       0.213  10.557  19.536  0.00  0.00    +0.000 N 
ATOM     24  C   UNL     1      -0.071  10.325  20.873  0.00  0.00    +0.000 A 
ATOM     25  C   UNL     1      -0.834  11.046  21.809  0.00  0.00    +0.000 A 
ATOM     26  C   UNL     1      -0.952  10.540  23.109  0.00  0.00    +0.000 A 
ATOM     27  C   UNL     1      -0.314   9.363  23.475  0.00  0.00    +0.000 A 
ATOM     28  C   UNL     1       0.446   8.652  22.544  0.00  0.00    +0.000 A 
ATOM     29  C   UNL     1       0.571   9.134  21.222  0.00  0.00    +0.000 A 
ATOM     30  C   UNL     1       1.262   8.654  20.069  0.00  0.00    +0.000 A 
ATOM     31  C   UNL     1       2.071   7.528  19.821  0.00  0.00    +0.000 A 
ATOM     32  C   UNL     1       2.630   7.339  18.555  0.00  0.00    +0.000 A 
ATOM     33  C   UNL     1       2.389   8.251  17.535  0.00  0.00    +0.000 A 
ATOM     34  C   UNL     1       1.580   9.371  17.752  0.00  0.00    +0.000 A 
ATOM     35  C   UNL     1       1.025   9.557  19.030  0.00  0.00    +0.000 A 
ENDBRANCH  22  23
ENDBRANCH  10  22
TORSDOF 5
ENDMDL
MODEL 9
REMARK VINA RESULT:      -7.6      5.607      8.402
REMARK  Name = 
REMARK  5 active torsions:
REMARK  status: ('A' for Active; 'I' for Inactive)
REMARK    1  A    between atoms: C_5  and  C_6
REMARK    2  A    between atoms: C_9  and  O_10
REMARK    3  A    between atoms: C_12  and  O_13
REMARK    4  A    between atoms: C_18  and  C_19
REMARK    5  A    between atoms: C_19  and  N_20
REMARK                            x       y       z     vdW  Elec       q    Type
REMARK                         _______ _______ _______ _____ _____    ______ ____
ROOT
ATOM      1  O   UNL     1       0.590   9.746  23.838  0.00  0.00    +0.000 OA
ATOM      2  C   UNL     1       0.662   9.620  22.618  0.00  0.00    +0.000 C 
ATOM      3  C   UNL     1       1.400   8.462  21.990  0.00  0.00    +0.000 C 
ATOM      4  S   UNL     1       1.131   8.574  20.213  0.00  0.00    +0.000 S 
ATOM      5  C   UNL     1       0.645  10.324  20.321  0.00  0.00    +0.000 C 
ATOM      6  N   UNL     1       0.130  10.489  21.665  0.00  0.00    +0.000 N 
ATOM      7  C   UNL     1      -0.341  11.686  22.162  0.00  0.00    +0.000 A 
ATOM      8  N   UNL     1       0.107  12.900  21.942  0.00  0.00    +0.000 NA
ATOM      9  N   UNL     1      -0.639  13.848  22.631  0.00  0.00    +0.000 NA
ATOM     10  C   UNL     1      -1.685  13.316  23.238  0.00  0.00    +0.000 A 
ATOM     11  S   UNL     1      -1.830  11.618  22.998  0.00  0.00    +0.000 S 
ENDROOT
BRANCH   5  12
ATOM     12  C   UNL     1      -0.371  10.711  19.261  0.00  0.00    +0.000 A 
ATOM     13  C   UNL     1      -1.413   9.836  18.883  0.00  0.00    +0.000 A 
ATOM     14  C   UNL     1      -2.442  10.266  18.041  0.00  0.00    +0.000 A 
ATOM     15  C   UNL     1      -2.435  11.572  17.567  0.00  0.00    +0.000 A 
ATOM     16  C   UNL     1      -1.385  12.433  17.865  0.00  0.00    +0.000 A 
ATOM     17  C   UNL     1      -0.359  11.995  18.703  0.00  0.00    +0.000 A 
BRANCH  15  18
ATOM     18  O   UNL     1      -3.459  12.060  16.812  0.00  0.00    +0.000 OA
ATOM     19  H   UNL     1      -3.396  11.680  15.919  0.00  0.00    +0.000 HD
ENDBRANCH  15  18
BRANCH  17  20
ATOM     20  O   UNL     1       0.673  12.836  19.008  0.00  0.00    +0.000 OA
ATOM     21  H   UNL     1       1.447  12.595  18.470  0.00  0.00    +0.000 HD
ENDBRANCH  17  20
ENDBRANCH   5  12
BRANCH  10  22
ATOM     22  C   UNL     1      -2.733  14.069  23.984  0.00  0.00    +0.000 C 
BRANCH  22  23
ATOM     23  N   UNL     1      -3.881  14.398  23.140  0.00  0.00    +0.000 N 
ATOM     24  C   UNL     1      -5.107  13.753  23.188  0.00  0.00    +0.000 A 
ATOM     25  C   UNL     1      -5.606  12.748  24.036  0.00  0.00    +0.000 A 
ATOM     26  C   UNL     1      -6.919  12.301  23.844  0.00  0.00    +0.000 A 
ATOM     27  C   UNL     1      -7.707  12.823  22.827  0.00  0.00    +0.000 A 
ATOM     28  C   UNL     1      -7.206  13.817  21.985  0.00  0.00    +0.000 A 
ATOM     29  C   UNL     1      -5.890  14.295  22.165  0.00  0.00    +0.000 A 
ATOM     30  C   UNL     1      -5.105  15.276  21.485  0.00  0.00    +0.000 A 
ATOM     31  C   UNL     1      -5.351  16.126  20.390  0.00  0.00    +0.000 A 
ATOM     32  C   UNL     1      -4.347  16.988  19.941  0.00  0.00    +0.000 A 
ATOM     33  C   UNL     1      -3.109  17.015  20.570  0.00  0.00    +0.000 A 
ATOM     34  C   UNL     1      -2.843  16.190  21.667  0.00  0.00    +0.000 A 
ATOM     35  C   UNL     1      -3.856  15.322  22.110  0.00  0.00    +0.000 A 
ENDBRANCH  22  23
ENDBRANCH  10  22
TORSDOF 5
ENDMDL
