MODEL 1
REMARK VINA RESULT:      -8.4      0.000      0.000
REMARK  Name = 
REMARK  7 active torsions:
REMARK  status: ('A' for Active; 'I' for Inactive)
REMARK    1  A    between atoms: O_1  and  N_2
REMARK    2  A    between atoms: C_3  and  C_4
REMARK    3  A    between atoms: N_7  and  C_8
REMARK    4  A    between atoms: C_8  and  C_9
REMARK    5  A    between atoms: C_10  and  C_11
REMARK    6  A    between atoms: C_11  and  N_12
REMARK    7  A    between atoms: C_15  and  C_16
REMARK                            x       y       z     vdW  Elec       q    Type
REMARK                         _______ _______ _______ _____ _____    ______ ____
ROOT
ATOM      1  C   UNL     1       8.694   9.547  18.052  0.00  0.00    +0.000 C 
ATOM      2  C   UNL     1       8.130   8.331  18.210  0.00  0.00    +0.000 C 
ENDROOT
BRANCH   1   3
ATOM      3  C   UNL     1       9.196  10.411  19.184  0.00  0.00    +0.000 C 
BRANCH   3   7
ATOM      4  C   UNL     1      10.872  14.153  18.140  0.00  0.00    +0.000 A 
ATOM      5  C   UNL     1       9.599  14.086  18.695  0.00  0.00    +0.000 A 
ATOM      6  C   UNL     1       9.048  12.847  18.978  0.00  0.00    +0.000 A 
ATOM      7  N   UNL     1       9.721  11.707  18.692  0.00  0.00    +0.000 N 
ATOM      8  C   UNL     1      10.921  11.759  18.061  0.00  0.00    +0.000 A 
ATOM      9  C   UNL     1      11.519  12.981  17.769  0.00  0.00    +0.000 A 
BRANCH   4  11
ATOM     10  N   UNL     1      11.577  16.194  16.882  0.00  0.00    +0.000 NA
ATOM     11  C   UNL     1      11.570  15.440  17.941  0.00  0.00    +0.000 C 
BRANCH  10  12
ATOM     12  O   UNL     1      10.751  15.730  15.855  0.00  0.00    +0.000 OA
ATOM     13  H   UNL     1      11.348  15.124  15.369  0.00  0.00    +0.000 HD
ENDBRANCH  10  12
ENDBRANCH   4  11
ENDBRANCH   3   7
ENDBRANCH   1   3
BRANCH   2  14
ATOM     14  C   UNL     1       7.633   7.423  17.105  0.00  0.00    +0.000 C 
BRANCH  14  15
ATOM     15  N   UNL     1       6.483   6.606  17.570  0.00  0.00    +0.000 N 
ATOM     16  C   UNL     1       5.317   6.617  16.886  0.00  0.00    +0.000 A 
ATOM     17  C   UNL     1       4.209   5.911  17.350  0.00  0.00    +0.000 A 
ATOM     18  C   UNL     1       4.289   5.147  18.518  0.00  0.00    +0.000 A 
ATOM     19  C   UNL     1       5.537   5.092  19.148  0.00  0.00    +0.000 A 
ATOM     20  C   UNL     1       6.615   5.827  18.666  0.00  0.00    +0.000 A 
BRANCH  18  21
ATOM     21  C   UNL     1       3.102   4.460  19.078  0.00  0.00    +0.000 A 
ATOM     22  C   UNL     1       2.258   3.661  18.285  0.00  0.00    +0.000 A 
ATOM     23  C   UNL     1       1.093   3.085  18.807  0.00  0.00    +0.000 A 
ATOM     24  C   UNL     1       0.757   3.276  20.141  0.00  0.00    +0.000 A 
ATOM     25  C   UNL     1       1.583   4.038  20.955  0.00  0.00    +0.000 A 
ATOM     26  C   UNL     1       2.739   4.627  20.430  0.00  0.00    +0.000 A 
ENDBRANCH  18  21
ENDBRANCH  14  15
ENDBRANCH   2  14
TORSDOF 7
ENDMDL
MODEL 2
REMARK VINA RESULT:      -8.1      0.830      1.758
REMARK  Name = 
REMARK  7 active torsions:
REMARK  status: ('A' for Active; 'I' for Inactive)
REMARK    1  A    between atoms: O_1  and  N_2
REMARK    2  A    between atoms: C_3  and  C_4
REMARK    3  A    between atoms: N_7  and  C_8
REMARK    4  A    between atoms: C_8  and  C_9
REMARK    5  A    between atoms: C_10  and  C_11
REMARK    6  A    between atoms: C_11  and  N_12
REMARK    7  A    between atoms: C_15  and  C_16
REMARK                            x       y       z     vdW  Elec       q    Type
REMARK                         _______ _______ _______ _____ _____    ______ ____
ROOT
ATOM      1  C   UNL     1       8.654   9.396  18.344  0.00  0.00    +0.000 C 
ATOM      2  C   UNL     1       8.246   8.110  18.369  0.00  0.00    +0.000 C 
ENDROOT
BRANCH   1   3
ATOM      3  C   UNL     1       9.372  10.086  19.480  0.00  0.00    +0.000 C 
BRANCH   3   7
ATOM      4  C   UNL     1      10.581  13.912  18.139  0.00  0.00    +0.000 A 
ATOM      5  C   UNL     1      10.726  12.803  17.312  0.00  0.00    +0.000 A 
ATOM      6  C   UNL     1      10.374  11.552  17.793  0.00  0.00    +0.000 A 
ATOM      7  N   UNL     1       9.925  11.396  19.060  0.00  0.00    +0.000 N 
ATOM      8  C   UNL     1       9.874  12.457  19.905  0.00  0.00    +0.000 A 
ATOM      9  C   UNL     1      10.204  13.734  19.464  0.00  0.00    +0.000 A 
BRANCH   4  11
ATOM     10  N   UNL     1       9.930  16.134  17.198  0.00  0.00    +0.000 NA
ATOM     11  C   UNL     1      10.808  15.287  17.645  0.00  0.00    +0.000 C 
BRANCH  10  12
ATOM     12  O   UNL     1       8.613  15.677  17.282  0.00  0.00    +0.000 OA
ATOM     13  H   UNL     1       8.422  15.429  16.353  0.00  0.00    +0.000 HD
ENDBRANCH  10  12
ENDBRANCH   4  11
ENDBRANCH   3   7
ENDBRANCH   1   3
BRANCH   2  14
ATOM     14  C   UNL     1       7.543   7.371  17.249  0.00  0.00    +0.000 C 
BRANCH  14  15
ATOM     15  N   UNL     1       6.339   6.666  17.755  0.00  0.00    +0.000 N 
ATOM     16  C   UNL     1       6.414   5.889  18.859  0.00  0.00    +0.000 A 
ATOM     17  C   UNL     1       5.308   5.167  19.302  0.00  0.00    +0.000 A 
ATOM     18  C   UNL     1       4.084   5.255  18.633  0.00  0.00    +0.000 A 
ATOM     19  C   UNL     1       4.024   6.136  17.547  0.00  0.00    +0.000 A 
ATOM     20  C   UNL     1       5.154   6.825  17.122  0.00  0.00    +0.000 A 
BRANCH  18  21
ATOM     21  C   UNL     1       2.921   4.430  19.033  0.00  0.00    +0.000 A 
ATOM     22  C   UNL     1       2.639   4.138  20.380  0.00  0.00    +0.000 A 
ATOM     23  C   UNL     1       1.585   3.288  20.739  0.00  0.00    +0.000 A 
ATOM     24  C   UNL     1       0.774   2.728  19.760  0.00  0.00    +0.000 A 
ATOM     25  C   UNL     1       1.011   3.019  18.424  0.00  0.00    +0.000 A 
ATOM     26  C   UNL     1       2.073   3.855  18.063  0.00  0.00    +0.000 A 
ENDBRANCH  18  21
ENDBRANCH  14  15
ENDBRANCH   2  14
TORSDOF 7
ENDMDL
MODEL 3
REMARK VINA RESULT:      -7.9      0.461      1.064
REMARK  Name = 
REMARK  7 active torsions:
REMARK  status: ('A' for Active; 'I' for Inactive)
REMARK    1  A    between atoms: O_1  and  N_2
REMARK    2  A    between atoms: C_3  and  C_4
REMARK    3  A    between atoms: N_7  and  C_8
REMARK    4  A    between atoms: C_8  and  C_9
REMARK    5  A    between atoms: C_10  and  C_11
REMARK    6  A    between atoms: C_11  and  N_12
REMARK    7  A    between atoms: C_15  and  C_16
REMARK                            x       y       z     vdW  Elec       q    Type
REMARK                         _______ _______ _______ _____ _____    ______ ____
ROOT
ATOM      1  C   UNL     1       9.035   9.279  18.786  0.00  0.00    +0.000 C 
ATOM      2  C   UNL     1       7.926   8.893  18.121  0.00  0.00    +0.000 C 
ENDROOT
BRANCH   1   3
ATOM      3  C   UNL     1       9.112  10.483  19.695  0.00  0.00    +0.000 C 
BRANCH   3   7
ATOM      4  C   UNL     1      11.258  13.779  18.137  0.00  0.00    +0.000 A 
ATOM      5  C   UNL     1      10.072  13.982  18.833  0.00  0.00    +0.000 A 
ATOM      6  C   UNL     1       9.358  12.885  19.286  0.00  0.00    +0.000 A 
ATOM      7  N   UNL     1       9.785  11.626  19.032  0.00  0.00    +0.000 N 
ATOM      8  C   UNL     1      10.888  11.416  18.270  0.00  0.00    +0.000 A 
ATOM      9  C   UNL     1      11.644  12.487  17.804  0.00  0.00    +0.000 A 
BRANCH   4  11
ATOM     10  N   UNL     1      11.993  15.722  16.747  0.00  0.00    +0.000 NA
ATOM     11  C   UNL     1      12.135  14.903  17.746  0.00  0.00    +0.000 C 
BRANCH  10  12
ATOM     12  O   UNL     1      10.812  15.529  16.024  0.00  0.00    +0.000 OA
ATOM     13  H   UNL     1      11.030  15.941  15.162  0.00  0.00    +0.000 HD
ENDBRANCH  10  12
ENDBRANCH   4  11
ENDBRANCH   3   7
ENDBRANCH   1   3
BRANCH   2  14
ATOM     14  C   UNL     1       7.796   7.685  17.219  0.00  0.00    +0.000 C 
BRANCH  14  15
ATOM     15  N   UNL     1       6.609   6.873  17.589  0.00  0.00    +0.000 N 
ATOM     16  C   UNL     1       5.449   7.011  16.908  0.00  0.00    +0.000 A 
ATOM     17  C   UNL     1       4.308   6.307  17.289  0.00  0.00    +0.000 A 
ATOM     18  C   UNL     1       4.347   5.417  18.367  0.00  0.00    +0.000 A 
ATOM     19  C   UNL     1       5.587   5.239  18.990  0.00  0.00    +0.000 A 
ATOM     20  C   UNL     1       6.699   5.973  18.594  0.00  0.00    +0.000 A 
BRANCH  18  21
ATOM     21  C   UNL     1       3.128   4.726  18.846  0.00  0.00    +0.000 A 
ATOM     22  C   UNL     1       2.670   4.849  20.171  0.00  0.00    +0.000 A 
ATOM     23  C   UNL     1       1.564   4.125  20.633  0.00  0.00    +0.000 A 
ATOM     24  C   UNL     1       0.876   3.276  19.775  0.00  0.00    +0.000 A 
ATOM     25  C   UNL     1       1.288   3.153  18.456  0.00  0.00    +0.000 A 
ATOM     26  C   UNL     1       2.402   3.865  17.997  0.00  0.00    +0.000 A 
ENDBRANCH  18  21
ENDBRANCH  14  15
ENDBRANCH   2  14
TORSDOF 7
ENDMDL
MODEL 4
REMARK VINA RESULT:      -7.9      0.902      1.297
REMARK  Name = 
REMARK  7 active torsions:
REMARK  status: ('A' for Active; 'I' for Inactive)
REMARK    1  A    between atoms: O_1  and  N_2
REMARK    2  A    between atoms: C_3  and  C_4
REMARK    3  A    between atoms: N_7  and  C_8
REMARK    4  A    between atoms: C_8  and  C_9
REMARK    5  A    between atoms: C_10  and  C_11
REMARK    6  A    between atoms: C_11  and  N_12
REMARK    7  A    between atoms: C_15  and  C_16
REMARK                            x       y       z     vdW  Elec       q    Type
REMARK                         _______ _______ _______ _____ _____    ______ ____
ROOT
ATOM      1  C   UNL     1       8.823   8.898  18.775  0.00  0.00    +0.000 C 
ATOM      2  C   UNL     1       7.881   8.718  17.825  0.00  0.00    +0.000 C 
ENDROOT
BRANCH   1   3
ATOM      3  C   UNL     1       9.049  10.192  19.519  0.00  0.00    +0.000 C 
BRANCH   3   7
ATOM      4  C   UNL     1      10.806  13.376  17.357  0.00  0.00    +0.000 A 
ATOM      5  C   UNL     1       9.424  13.295  17.484  0.00  0.00    +0.000 A 
ATOM      6  C   UNL     1       8.868  12.214  18.149  0.00  0.00    +0.000 A 
ATOM      7  N   UNL     1       9.651  11.227  18.645  0.00  0.00    +0.000 N 
ATOM      8  C   UNL     1      10.993  11.248  18.440  0.00  0.00    +0.000 A 
ATOM      9  C   UNL     1      11.597  12.319  17.790  0.00  0.00    +0.000 A 
BRANCH   4  11
ATOM     10  N   UNL     1      11.815  15.662  17.384  0.00  0.00    +0.000 NA
ATOM     11  C   UNL     1      11.468  14.565  16.780  0.00  0.00    +0.000 C 
BRANCH  10  12
ATOM     12  O   UNL     1      11.584  15.644  18.762  0.00  0.00    +0.000 OA
ATOM     13  H   UNL     1      11.138  14.780  18.884  0.00  0.00    +0.000 HD
ENDBRANCH  10  12
ENDBRANCH   4  11
ENDBRANCH   3   7
ENDBRANCH   1   3
BRANCH   2  14
ATOM     14  C   UNL     1       7.604   7.436  17.069  0.00  0.00    +0.000 C 
BRANCH  14  15
ATOM     15  N   UNL     1       6.421   6.736  17.631  0.00  0.00    +0.000 N 
ATOM     16  C   UNL     1       6.570   5.830  18.623  0.00  0.00    +0.000 A 
ATOM     17  C   UNL     1       5.477   5.116  19.110  0.00  0.00    +0.000 A 
ATOM     18  C   UNL     1       4.194   5.344  18.604  0.00  0.00    +0.000 A 
ATOM     19  C   UNL     1       4.069   6.351  17.640  0.00  0.00    +0.000 A 
ATOM     20  C   UNL     1       5.186   7.029  17.165  0.00  0.00    +0.000 A 
BRANCH  18  21
ATOM     21  C   UNL     1       3.033   4.537  19.043  0.00  0.00    +0.000 A 
ATOM     22  C   UNL     1       2.491   3.511  18.246  0.00  0.00    +0.000 A 
ATOM     23  C   UNL     1       1.342   2.812  18.634  0.00  0.00    +0.000 A 
ATOM     24  C   UNL     1       0.720   3.106  19.842  0.00  0.00    +0.000 A 
ATOM     25  C   UNL     1       1.245   4.094  20.662  0.00  0.00    +0.000 A 
ATOM     26  C   UNL     1       2.385   4.804  20.267  0.00  0.00    +0.000 A 
ENDBRANCH  18  21
ENDBRANCH  14  15
ENDBRANCH   2  14
TORSDOF 7
ENDMDL
MODEL 5
REMARK VINA RESULT:      -7.2      6.714      9.858
REMARK  Name = 
REMARK  7 active torsions:
REMARK  status: ('A' for Active; 'I' for Inactive)
REMARK    1  A    between atoms: O_1  and  N_2
REMARK    2  A    between atoms: C_3  and  C_4
REMARK    3  A    between atoms: N_7  and  C_8
REMARK    4  A    between atoms: C_8  and  C_9
REMARK    5  A    between atoms: C_10  and  C_11
REMARK    6  A    between atoms: C_11  and  N_12
REMARK    7  A    between atoms: C_15  and  C_16
REMARK                            x       y       z     vdW  Elec       q    Type
REMARK                         _______ _______ _______ _____ _____    ______ ____
ROOT
ATOM      1  C   UNL     1       4.531   5.085  16.434  0.00  0.00    +0.000 C 
ATOM      2  C   UNL     1       4.281   6.056  17.337  0.00  0.00    +0.000 C 
ENDROOT
BRANCH   1   3
ATOM      3  C   UNL     1       4.865   3.655  16.787  0.00  0.00    +0.000 C 
BRANCH   3   7
ATOM      4  C   UNL     1       2.177   2.496  19.841  0.00  0.00    +0.000 A 
ATOM      5  C   UNL     1       3.546   2.513  20.083  0.00  0.00    +0.000 A 
ATOM      6  C   UNL     1       4.411   2.842  19.052  0.00  0.00    +0.000 A 
ATOM      7  N   UNL     1       3.940   3.115  17.812  0.00  0.00    +0.000 N 
ATOM      8  C   UNL     1       2.615   3.006  17.542  0.00  0.00    +0.000 A 
ATOM      9  C   UNL     1       1.707   2.691  18.548  0.00  0.00    +0.000 A 
BRANCH   4  11
ATOM     10  N   UNL     1       1.277   2.667  22.167  0.00  0.00    +0.000 NA
ATOM     11  C   UNL     1       1.195   2.287  20.926  0.00  0.00    +0.000 C 
BRANCH  10  12
ATOM     12  O   UNL     1       2.414   3.429  22.448  0.00  0.00    +0.000 OA
ATOM     13  H   UNL     1       2.958   2.802  22.967  0.00  0.00    +0.000 HD
ENDBRANCH  10  12
ENDBRANCH   4  11
ENDBRANCH   3   7
ENDBRANCH   1   3
BRANCH   2  14
ATOM     14  C   UNL     1       3.922   7.495  17.029  0.00  0.00    +0.000 C 
BRANCH  14  15
ATOM     15  N   UNL     1       2.942   8.017  18.015  0.00  0.00    +0.000 N 
ATOM     16  C   UNL     1       2.265   9.160  17.765  0.00  0.00    +0.000 A 
ATOM     17  C   UNL     1       1.395   9.697  18.712  0.00  0.00    +0.000 A 
ATOM     18  C   UNL     1       1.178   9.048  19.931  0.00  0.00    +0.000 A 
ATOM     19  C   UNL     1       1.831   7.824  20.114  0.00  0.00    +0.000 A 
ATOM     20  C   UNL     1       2.707   7.329  19.155  0.00  0.00    +0.000 A 
BRANCH  18  21
ATOM     21  C   UNL     1       0.328   9.644  20.987  0.00  0.00    +0.000 A 
ATOM     22  C   UNL     1      -0.409  10.824  20.776  0.00  0.00    +0.000 A 
ATOM     23  C   UNL     1      -1.142  11.423  21.808  0.00  0.00    +0.000 A 
ATOM     24  C   UNL     1      -1.174  10.843  23.070  0.00  0.00    +0.000 A 
ATOM     25  C   UNL     1      -0.478   9.665  23.302  0.00  0.00    +0.000 A 
ATOM     26  C   UNL     1       0.267   9.075  22.275  0.00  0.00    +0.000 A 
ENDBRANCH  18  21
ENDBRANCH  14  15
ENDBRANCH   2  14
TORSDOF 7
ENDMDL
MODEL 6
REMARK VINA RESULT:      -7.2      1.090      1.255
REMARK  Name = 
REMARK  7 active torsions:
REMARK  status: ('A' for Active; 'I' for Inactive)
REMARK    1  A    between atoms: O_1  and  N_2
REMARK    2  A    between atoms: C_3  and  C_4
REMARK    3  A    between atoms: N_7  and  C_8
REMARK    4  A    between atoms: C_8  and  C_9
REMARK    5  A    between atoms: C_10  and  C_11
REMARK    6  A    between atoms: C_11  and  N_12
REMARK    7  A    between atoms: C_15  and  C_16
REMARK                            x       y       z     vdW  Elec       q    Type
REMARK                         _______ _______ _______ _____ _____    ______ ____
ROOT
ATOM      1  C   UNL     1       8.982   9.564  18.291  0.00  0.00    +0.000 C 
ATOM      2  C   UNL     1       8.013   8.625  18.260  0.00  0.00    +0.000 C 
ENDROOT
BRANCH   1   3
ATOM      3  C   UNL     1       9.326  10.396  19.504  0.00  0.00    +0.000 C 
BRANCH   3   7
ATOM      4  C   UNL     1      11.435  13.909  18.449  0.00  0.00    +0.000 A 
ATOM      5  C   UNL     1      11.095  13.668  19.776  0.00  0.00    +0.000 A 
ATOM      6  C   UNL     1      10.357  12.539  20.091  0.00  0.00    +0.000 A 
ATOM      7  N   UNL     1       9.939  11.691  19.121  0.00  0.00    +0.000 N 
ATOM      8  C   UNL     1      10.181  11.969  17.816  0.00  0.00    +0.000 A 
ATOM      9  C   UNL     1      10.929  13.084  17.452  0.00  0.00    +0.000 A 
BRANCH   4  11
ATOM     10  N   UNL     1      12.043  16.278  17.933  0.00  0.00    +0.000 NA
ATOM     11  C   UNL     1      12.333  15.018  18.063  0.00  0.00    +0.000 C 
BRANCH  10  12
ATOM     12  O   UNL     1      10.727  16.591  18.284  0.00  0.00    +0.000 OA
ATOM     13  H   UNL     1      10.779  16.630  19.262  0.00  0.00    +0.000 HD
ENDBRANCH  10  12
ENDBRANCH   4  11
ENDBRANCH   3   7
ENDBRANCH   1   3
BRANCH   2  14
ATOM     14  C   UNL     1       7.648   7.753  17.076  0.00  0.00    +0.000 C 
BRANCH  14  15
ATOM     15  N   UNL     1       6.595   6.774  17.446  0.00  0.00    +0.000 N 
ATOM     16  C   UNL     1       5.497   6.626  16.671  0.00  0.00    +0.000 A 
ATOM     17  C   UNL     1       4.470   5.762  17.043  0.00  0.00    +0.000 A 
ATOM     18  C   UNL     1       4.566   5.003  18.213  0.00  0.00    +0.000 A 
ATOM     19  C   UNL     1       5.755   5.119  18.941  0.00  0.00    +0.000 A 
ATOM     20  C   UNL     1       6.751   6.007  18.549  0.00  0.00    +0.000 A 
BRANCH  18  21
ATOM     21  C   UNL     1       3.450   4.145  18.675  0.00  0.00    +0.000 A 
ATOM     22  C   UNL     1       3.660   3.024  19.499  0.00  0.00    +0.000 A 
ATOM     23  C   UNL     1       2.608   2.174  19.860  0.00  0.00    +0.000 A 
ATOM     24  C   UNL     1       1.316   2.437  19.424  0.00  0.00    +0.000 A 
ATOM     25  C   UNL     1       1.072   3.549  18.631  0.00  0.00    +0.000 A 
ATOM     26  C   UNL     1       2.126   4.391  18.257  0.00  0.00    +0.000 A 
ENDBRANCH  18  21
ENDBRANCH  14  15
ENDBRANCH   2  14
TORSDOF 7
ENDMDL
MODEL 7
REMARK VINA RESULT:      -7.1      5.920      7.718
REMARK  Name = 
REMARK  7 active torsions:
REMARK  status: ('A' for Active; 'I' for Inactive)
REMARK    1  A    between atoms: O_1  and  N_2
REMARK    2  A    between atoms: C_3  and  C_4
REMARK    3  A    between atoms: N_7  and  C_8
REMARK    4  A    between atoms: C_8  and  C_9
REMARK    5  A    between atoms: C_10  and  C_11
REMARK    6  A    between atoms: C_11  and  N_12
REMARK    7  A    between atoms: C_15  and  C_16
REMARK                            x       y       z     vdW  Elec       q    Type
REMARK                         _______ _______ _______ _____ _____    ______ ____
ROOT
ATOM      1  C   UNL     1       2.452   8.027  18.067  0.00  0.00    +0.000 C 
ATOM      2  C   UNL     1       2.379   7.054  19.000  0.00  0.00    +0.000 C 
ENDROOT
BRANCH   1   3
ATOM      3  C   UNL     1       1.364   9.040  17.802  0.00  0.00    +0.000 C 
BRANCH   3   7
ATOM      4  C   UNL     1       1.267  12.459  20.292  0.00  0.00    +0.000 A 
ATOM      5  C   UNL     1       1.946  12.495  19.079  0.00  0.00    +0.000 A 
ATOM      6  C   UNL     1       2.011  11.348  18.306  0.00  0.00    +0.000 A 
ATOM      7  N   UNL     1       1.451  10.191  18.732  0.00  0.00    +0.000 N 
ATOM      8  C   UNL     1       0.872  10.120  19.957  0.00  0.00    +0.000 A 
ATOM      9  C   UNL     1       0.771  11.250  20.763  0.00  0.00    +0.000 A 
BRANCH   4  11
ATOM     10  N   UNL     1       1.889  14.297  21.867  0.00  0.00    +0.000 NA
ATOM     11  C   UNL     1       1.044  13.678  21.098  0.00  0.00    +0.000 C 
BRANCH  10  12
ATOM     12  O   UNL     1       3.176  13.754  21.841  0.00  0.00    +0.000 OA
ATOM     13  H   UNL     1       3.422  13.763  22.790  0.00  0.00    +0.000 HD
ENDBRANCH  10  12
ENDBRANCH   4  11
ENDBRANCH   3   7
ENDBRANCH   1   3
BRANCH   2  14
ATOM     14  C   UNL     1       3.451   6.033  19.315  0.00  0.00    +0.000 C 
BRANCH  14  15
ATOM     15  N   UNL     1       4.171   5.624  18.082  0.00  0.00    +0.000 N 
ATOM     16  C   UNL     1       5.040   6.471  17.486  0.00  0.00    +0.000 A 
ATOM     17  C   UNL     1       5.668   6.127  16.291  0.00  0.00    +0.000 A 
ATOM     18  C   UNL     1       5.438   4.883  15.697  0.00  0.00    +0.000 A 
ATOM     19  C   UNL     1       4.600   4.002  16.390  0.00  0.00    +0.000 A 
ATOM     20  C   UNL     1       3.975   4.388  17.571  0.00  0.00    +0.000 A 
BRANCH  18  21
ATOM     21  C   UNL     1       6.024   4.529  14.384  0.00  0.00    +0.000 A 
ATOM     22  C   UNL     1       7.226   5.098  13.924  0.00  0.00    +0.000 A 
ATOM     23  C   UNL     1       7.726   4.820  12.646  0.00  0.00    +0.000 A 
ATOM     24  C   UNL     1       7.047   3.947  11.805  0.00  0.00    +0.000 A 
ATOM     25  C   UNL     1       5.872   3.350  12.240  0.00  0.00    +0.000 A 
ATOM     26  C   UNL     1       5.364   3.640  13.511  0.00  0.00    +0.000 A 
ENDBRANCH  18  21
ENDBRANCH  14  15
ENDBRANCH   2  14
TORSDOF 7
ENDMDL
MODEL 8
REMARK VINA RESULT:      -7.1      8.041     11.340
REMARK  Name = 
REMARK  7 active torsions:
REMARK  status: ('A' for Active; 'I' for Inactive)
REMARK    1  A    between atoms: O_1  and  N_2
REMARK    2  A    between atoms: C_3  and  C_4
REMARK    3  A    between atoms: N_7  and  C_8
REMARK    4  A    between atoms: C_8  and  C_9
REMARK    5  A    between atoms: C_10  and  C_11
REMARK    6  A    between atoms: C_11  and  N_12
REMARK    7  A    between atoms: C_15  and  C_16
REMARK                            x       y       z     vdW  Elec       q    Type
REMARK                         _______ _______ _______ _____ _____    ______ ____
ROOT
ATOM      1  C   UNL     1       1.651   8.650  17.691  0.00  0.00    +0.000 C 
ATOM      2  C   UNL     1       1.063   9.541  18.517  0.00  0.00    +0.000 C 
ENDROOT
BRANCH   1   3
ATOM      3  C   UNL     1       2.899   7.868  18.026  0.00  0.00    +0.000 C 
BRANCH   3   7
ATOM      4  C   UNL     1       1.606   4.396  20.069  0.00  0.00    +0.000 A 
ATOM      5  C   UNL     1       1.713   5.606  20.745  0.00  0.00    +0.000 A 
ATOM      6  C   UNL     1       2.191   6.717  20.069  0.00  0.00    +0.000 A 
ATOM      7  N   UNL     1       2.581   6.629  18.776  0.00  0.00    +0.000 N 
ATOM      8  C   UNL     1       2.574   5.431  18.138  0.00  0.00    +0.000 A 
ATOM      9  C   UNL     1       2.090   4.291  18.771  0.00  0.00    +0.000 A 
BRANCH   4  11
ATOM     10  N   UNL     1       1.498   2.383  21.547  0.00  0.00    +0.000 NA
ATOM     11  C   UNL     1       0.978   3.209  20.689  0.00  0.00    +0.000 C 
BRANCH  10  12
ATOM     12  O   UNL     1       2.783   2.739  21.965  0.00  0.00    +0.000 OA
ATOM     13  H   UNL     1       2.622   3.057  22.877  0.00  0.00    +0.000 HD
ENDBRANCH  10  12
ENDBRANCH   4  11
ENDBRANCH   3   7
ENDBRANCH   1   3
BRANCH   2  14
ATOM     14  C   UNL     1      -0.197  10.331  18.232  0.00  0.00    +0.000 C 
BRANCH  14  15
ATOM     15  N   UNL     1      -0.607  11.118  19.422  0.00  0.00    +0.000 N 
ATOM     16  C   UNL     1       0.087  11.021  20.578  0.00  0.00    +0.000 A 
ATOM     17  C   UNL     1      -0.329  11.701  21.721  0.00  0.00    +0.000 A 
ATOM     18  C   UNL     1      -1.457  12.526  21.689  0.00  0.00    +0.000 A 
ATOM     19  C   UNL     1      -2.096  12.668  20.452  0.00  0.00    +0.000 A 
ATOM     20  C   UNL     1      -1.664  11.958  19.338  0.00  0.00    +0.000 A 
BRANCH  18  21
ATOM     21  C   UNL     1      -1.969  13.188  22.911  0.00  0.00    +0.000 A 
ATOM     22  C   UNL     1      -3.217  12.859  23.473  0.00  0.00    +0.000 A 
ATOM     23  C   UNL     1      -3.727  13.551  24.579  0.00  0.00    +0.000 A 
ATOM     24  C   UNL     1      -2.990  14.573  25.164  0.00  0.00    +0.000 A 
ATOM     25  C   UNL     1      -1.744  14.903  24.649  0.00  0.00    +0.000 A 
ATOM     26  C   UNL     1      -1.241  14.223  23.534  0.00  0.00    +0.000 A 
ENDBRANCH  18  21
ENDBRANCH  14  15
ENDBRANCH   2  14
TORSDOF 7
ENDMDL
MODEL 9
REMARK VINA RESULT:      -7.0      1.024      1.091
REMARK  Name = 
REMARK  7 active torsions:
REMARK  status: ('A' for Active; 'I' for Inactive)
REMARK    1  A    between atoms: O_1  and  N_2
REMARK    2  A    between atoms: C_3  and  C_4
REMARK    3  A    between atoms: N_7  and  C_8
REMARK    4  A    between atoms: C_8  and  C_9
REMARK    5  A    between atoms: C_10  and  C_11
REMARK    6  A    between atoms: C_11  and  N_12
REMARK    7  A    between atoms: C_15  and  C_16
REMARK                            x       y       z     vdW  Elec       q    Type
REMARK                         _______ _______ _______ _____ _____    ______ ____
ROOT
ATOM      1  C   UNL     1       8.562   8.489  18.768  0.00  0.00    +0.000 C 
ATOM      2  C   UNL     1       7.750   8.483  17.689  0.00  0.00    +0.000 C 
ENDROOT
BRANCH   1   3
ATOM      3  C   UNL     1       8.778   9.683  19.668  0.00  0.00    +0.000 C 
BRANCH   3   7
ATOM      4  C   UNL     1      10.632  13.068  17.934  0.00  0.00    +0.000 A 
ATOM      5  C   UNL     1       9.356  12.686  17.533  0.00  0.00    +0.000 A 
ATOM      6  C   UNL     1       8.791  11.543  18.074  0.00  0.00    +0.000 A 
ATOM      7  N   UNL     1       9.477  10.782  18.959  0.00  0.00    +0.000 N 
ATOM      8  C   UNL     1      10.758  11.091  19.281  0.00  0.00    +0.000 A 
ATOM      9  C   UNL     1      11.363  12.236  18.773  0.00  0.00    +0.000 A 
BRANCH   4  11
ATOM     10  N   UNL     1      12.065  14.548  16.519  0.00  0.00    +0.000 NA
ATOM     11  C   UNL     1      11.236  14.345  17.499  0.00  0.00    +0.000 C 
BRANCH  10  12
ATOM     12  O   UNL     1      12.332  13.405  15.761  0.00  0.00    +0.000 OA
ATOM     13  H   UNL     1      12.057  12.687  16.368  0.00  0.00    +0.000 HD
ENDBRANCH  10  12
ENDBRANCH   4  11
ENDBRANCH   3   7
ENDBRANCH   1   3
BRANCH   2  14
ATOM     14  C   UNL     1       7.487   7.307  16.773  0.00  0.00    +0.000 C 
BRANCH  14  15
ATOM     15  N   UNL     1       6.345   6.496  17.269  0.00  0.00    +0.000 N 
ATOM     16  C   UNL     1       5.074   6.880  17.016  0.00  0.00    +0.000 A 
ATOM     17  C   UNL     1       3.995   6.167  17.534  0.00  0.00    +0.000 A 
ATOM     18  C   UNL     1       4.203   5.018  18.303  0.00  0.00    +0.000 A 
ATOM     19  C   UNL     1       5.530   4.605  18.469  0.00  0.00    +0.000 A 
ATOM     20  C   UNL     1       6.582   5.354  17.952  0.00  0.00    +0.000 A 
BRANCH  18  21
ATOM     21  C   UNL     1       3.077   4.295  18.937  0.00  0.00    +0.000 A 
ATOM     22  C   UNL     1       2.303   3.353  18.235  0.00  0.00    +0.000 A 
ATOM     23  C   UNL     1       1.189   2.738  18.821  0.00  0.00    +0.000 A 
ATOM     24  C   UNL     1       0.837   3.034  20.132  0.00  0.00    +0.000 A 
ATOM     25  C   UNL     1       1.596   3.940  20.859  0.00  0.00    +0.000 A 
ATOM     26  C   UNL     1       2.700   4.567  20.269  0.00  0.00    +0.000 A 
ENDBRANCH  18  21
ENDBRANCH  14  15
ENDBRANCH   2  14
TORSDOF 7
ENDMDL
