MODEL 1
REMARK VINA RESULT:      -7.7      0.000      0.000
REMARK  Name = 
REMARK  10 active torsions:
REMARK  status: ('A' for Active; 'I' for Inactive)
REMARK    1  A    between atoms: C_1  and  C_2
REMARK    2  A    between atoms: C_2  and  C_3
REMARK    3  A    between atoms: C_2  and  C_4
REMARK    4  A    between atoms: C_2  and  N_5
REMARK    5  A    between atoms: C_6  and  C_8
REMARK    6  A    between atoms: C_8  and  S_9
REMARK    7  A    between atoms: S_9  and  C_10
REMARK    8  A    between atoms: N_14  and  N_15
REMARK    9  A    between atoms: N_15  and  C_16
REMARK   10  A    between atoms: C_16  and  C_17
REMARK                            x       y       z     vdW  Elec       q    Type
REMARK                         _______ _______ _______ _____ _____    ______ ____
ROOT
ATOM      1  C   UNL     1       7.445   6.019  17.236  0.00  0.00    +0.000 A 
ATOM      2  N   UNL     1       7.602   6.279  15.957  0.00  0.00    +0.000 NA
ATOM      3  N   UNL     1       7.120   5.207  15.244  0.00  0.00    +0.000 NA
ATOM      4  C   UNL     1       6.661   4.332  16.111  0.00  0.00    +0.000 A 
ATOM      5  N   UNL     1       6.809   4.803  17.388  0.00  0.00    +0.000 N 
ENDROOT
BRANCH   5   6
ATOM      6  N   UNL     1       6.399   4.051  18.550  0.00  0.00    +0.000 N 
ATOM      7  H   UNL     1       7.179   3.831  19.170  0.00  0.00    +0.000 HD
BRANCH   6   8
ATOM      8  C   UNL     1       5.322   4.678  19.319  0.00  0.00    +0.000 C 
BRANCH   8   9
ATOM      9  C   UNL     1       3.941   4.212  18.931  0.00  0.00    +0.000 A 
ATOM     10  C   UNL     1       3.385   3.026  19.451  0.00  0.00    +0.000 A 
ATOM     11 CL   UNL     1       4.239   2.011  20.566  0.00  0.00    +0.000 Cl
ATOM     12  C   UNL     1       2.079   2.634  19.121  0.00  0.00    +0.000 A 
ATOM     13  C   UNL     1       1.296   3.429  18.294  0.00  0.00    +0.000 A 
ATOM     14  C   UNL     1       1.809   4.625  17.804  0.00  0.00    +0.000 A 
ATOM     15  C   UNL     1       3.114   5.017  18.122  0.00  0.00    +0.000 A 
ATOM     16 CL   UNL     1       3.614   6.559  17.510  0.00  0.00    +0.000 Cl
ENDBRANCH   8   9
ENDBRANCH   6   8
ENDBRANCH   5   6
BRANCH   1  17
ATOM     17  S   UNL     1       7.908   7.103  18.499  0.00  0.00    +0.000 S 
BRANCH  17  18
ATOM     18  C   UNL     1       7.810   8.705  17.648  0.00  0.00    +0.000 C 
BRANCH  18  20
ATOM     19  N   UNL     1       8.615  10.981  17.828  0.00  0.00    +0.000 N 
ATOM     20  C   UNL     1       8.657   9.723  18.392  0.00  0.00    +0.000 C 
ATOM     21  O   UNL     1       9.331   9.412  19.372  0.00  0.00    +0.000 OA
ATOM     22  H   UNL     1       7.888  11.136  17.134  0.00  0.00    +0.000 HD
BRANCH  19  24
ATOM     23  C   UNL     1       9.355  12.181  19.834  0.00  0.00    +0.000 C 
ATOM     24  C   UNL     1       9.359  12.147  18.300  0.00  0.00    +0.000 C 
ATOM     25  C   UNL     1       8.782  13.452  17.731  0.00  0.00    +0.000 C 
ATOM     26  C   UNL     1      10.812  12.003  17.814  0.00  0.00    +0.000 C 
ENDBRANCH  19  24
ENDBRANCH  18  20
ENDBRANCH  17  18
ENDBRANCH   1  17
TORSDOF 7
ENDMDL
MODEL 2
REMARK VINA RESULT:      -7.5      1.396      2.199
REMARK  Name = 
REMARK  10 active torsions:
REMARK  status: ('A' for Active; 'I' for Inactive)
REMARK    1  A    between atoms: C_1  and  C_2
REMARK    2  A    between atoms: C_2  and  C_3
REMARK    3  A    between atoms: C_2  and  C_4
REMARK    4  A    between atoms: C_2  and  N_5
REMARK    5  A    between atoms: C_6  and  C_8
REMARK    6  A    between atoms: C_8  and  S_9
REMARK    7  A    between atoms: S_9  and  C_10
REMARK    8  A    between atoms: N_14  and  N_15
REMARK    9  A    between atoms: N_15  and  C_16
REMARK   10  A    between atoms: C_16  and  C_17
REMARK                            x       y       z     vdW  Elec       q    Type
REMARK                         _______ _______ _______ _____ _____    ______ ____
ROOT
ATOM      1  C   UNL     1       7.052   6.186  16.971  0.00  0.00    +0.000 A 
ATOM      2  N   UNL     1       7.536   6.015  15.760  0.00  0.00    +0.000 NA
ATOM      3  N   UNL     1       6.624   5.280  15.039  0.00  0.00    +0.000 NA
ATOM      4  C   UNL     1       5.599   5.043  15.826  0.00  0.00    +0.000 A 
ATOM      5  N   UNL     1       5.795   5.619  17.052  0.00  0.00    +0.000 N 
ENDROOT
BRANCH   5   6
ATOM      6  N   UNL     1       4.834   5.519  18.125  0.00  0.00    +0.000 N 
ATOM      7  H   UNL     1       4.802   6.360  18.700  0.00  0.00    +0.000 HD
BRANCH   6   8
ATOM      8  C   UNL     1       3.482   5.170  17.686  0.00  0.00    +0.000 C 
BRANCH   8   9
ATOM      9  C   UNL     1       2.649   4.497  18.748  0.00  0.00    +0.000 A 
ATOM     10  C   UNL     1       2.028   5.229  19.779  0.00  0.00    +0.000 A 
ATOM     11 CL   UNL     1       2.176   6.951  19.915  0.00  0.00    +0.000 Cl
ATOM     12  C   UNL     1       1.213   4.595  20.728  0.00  0.00    +0.000 A 
ATOM     13  C   UNL     1       0.978   3.228  20.648  0.00  0.00    +0.000 A 
ATOM     14  C   UNL     1       1.546   2.492  19.614  0.00  0.00    +0.000 A 
ATOM     15  C   UNL     1       2.367   3.118  18.670  0.00  0.00    +0.000 A 
ATOM     16 CL   UNL     1       2.957   2.110  17.391  0.00  0.00    +0.000 Cl
ENDBRANCH   8   9
ENDBRANCH   6   8
ENDBRANCH   5   6
BRANCH   1  17
ATOM     17  S   UNL     1       7.867   7.064  18.214  0.00  0.00    +0.000 S 
BRANCH  17  18
ATOM     18  C   UNL     1       7.710   8.769  17.609  0.00  0.00    +0.000 C 
BRANCH  18  20
ATOM     19  N   UNL     1       8.764  10.934  17.858  0.00  0.00    +0.000 N 
ATOM     20  C   UNL     1       8.636   9.674  18.404  0.00  0.00    +0.000 C 
ATOM     21  O   UNL     1       9.225   9.276  19.407  0.00  0.00    +0.000 OA
ATOM     22  H   UNL     1       8.091  11.181  17.137  0.00  0.00    +0.000 HD
BRANCH  19  24
ATOM     23  C   UNL     1      11.086  11.697  18.053  0.00  0.00    +0.000 C 
ATOM     24  C   UNL     1       9.617  12.000  18.379  0.00  0.00    +0.000 C 
ATOM     25  C   UNL     1       9.429  12.183  19.893  0.00  0.00    +0.000 C 
ATOM     26  C   UNL     1       9.216  13.309  17.675  0.00  0.00    +0.000 C 
ENDBRANCH  19  24
ENDBRANCH  18  20
ENDBRANCH  17  18
ENDBRANCH   1  17
TORSDOF 7
ENDMDL
MODEL 3
REMARK VINA RESULT:      -7.5      1.094      2.395
REMARK  Name = 
REMARK  10 active torsions:
REMARK  status: ('A' for Active; 'I' for Inactive)
REMARK    1  A    between atoms: C_1  and  C_2
REMARK    2  A    between atoms: C_2  and  C_3
REMARK    3  A    between atoms: C_2  and  C_4
REMARK    4  A    between atoms: C_2  and  N_5
REMARK    5  A    between atoms: C_6  and  C_8
REMARK    6  A    between atoms: C_8  and  S_9
REMARK    7  A    between atoms: S_9  and  C_10
REMARK    8  A    between atoms: N_14  and  N_15
REMARK    9  A    between atoms: N_15  and  C_16
REMARK   10  A    between atoms: C_16  and  C_17
REMARK                            x       y       z     vdW  Elec       q    Type
REMARK                         _______ _______ _______ _____ _____    ______ ____
ROOT
ATOM      1  C   UNL     1       7.307   5.821  17.065  0.00  0.00    +0.000 A 
ATOM      2  N   UNL     1       7.638   6.052  15.813  0.00  0.00    +0.000 NA
ATOM      3  N   UNL     1       7.118   5.038  15.044  0.00  0.00    +0.000 NA
ATOM      4  C   UNL     1       6.465   4.229  15.848  0.00  0.00    +0.000 A 
ATOM      5  N   UNL     1       6.521   4.688  17.136  0.00  0.00    +0.000 N 
ENDROOT
BRANCH   5   6
ATOM      6  N   UNL     1       5.895   3.998  18.239  0.00  0.00    +0.000 N 
ATOM      7  H   UNL     1       6.064   4.457  19.134  0.00  0.00    +0.000 HD
BRANCH   6   8
ATOM      8  C   UNL     1       4.459   3.771  18.066  0.00  0.00    +0.000 C 
BRANCH   8   9
ATOM      9  C   UNL     1       3.594   4.613  18.970  0.00  0.00    +0.000 A 
ATOM     10  C   UNL     1       3.301   5.959  18.674  0.00  0.00    +0.000 A 
ATOM     11 CL   UNL     1       3.912   6.754  17.260  0.00  0.00    +0.000 Cl
ATOM     12  C   UNL     1       2.451   6.712  19.497  0.00  0.00    +0.000 A 
ATOM     13  C   UNL     1       1.855   6.131  20.609  0.00  0.00    +0.000 A 
ATOM     14  C   UNL     1       2.096   4.792  20.896  0.00  0.00    +0.000 A 
ATOM     15  C   UNL     1       2.950   4.038  20.084  0.00  0.00    +0.000 A 
ATOM     16 CL   UNL     1       3.115   2.365  20.504  0.00  0.00    +0.000 Cl
ENDBRANCH   8   9
ENDBRANCH   6   8
ENDBRANCH   5   6
BRANCH   1  17
ATOM     17  S   UNL     1       7.747   6.853  18.379  0.00  0.00    +0.000 S 
BRANCH  17  18
ATOM     18  C   UNL     1       7.627   8.490  17.603  0.00  0.00    +0.000 C 
BRANCH  18  20
ATOM     19  N   UNL     1       8.557  10.719  17.765  0.00  0.00    +0.000 N 
ATOM     20  C   UNL     1       8.540   9.461  18.331  0.00  0.00    +0.000 C 
ATOM     21  O   UNL     1       9.212   9.114  19.301  0.00  0.00    +0.000 OA
ATOM     22  H   UNL     1       7.828  10.913  17.083  0.00  0.00    +0.000 HD
BRANCH  19  24
ATOM     23  C   UNL     1       8.760  13.163  17.732  0.00  0.00    +0.000 C 
ATOM     24  C   UNL     1       9.371  11.843  18.223  0.00  0.00    +0.000 C 
ATOM     25  C   UNL     1      10.826  11.714  17.748  0.00  0.00    +0.000 C 
ATOM     26  C   UNL     1       9.357  11.836  19.762  0.00  0.00    +0.000 C 
ENDBRANCH  19  24
ENDBRANCH  18  20
ENDBRANCH  17  18
ENDBRANCH   1  17
TORSDOF 7
ENDMDL
MODEL 4
REMARK VINA RESULT:      -7.3      1.188      2.266
REMARK  Name = 
REMARK  10 active torsions:
REMARK  status: ('A' for Active; 'I' for Inactive)
REMARK    1  A    between atoms: C_1  and  C_2
REMARK    2  A    between atoms: C_2  and  C_3
REMARK    3  A    between atoms: C_2  and  C_4
REMARK    4  A    between atoms: C_2  and  N_5
REMARK    5  A    between atoms: C_6  and  C_8
REMARK    6  A    between atoms: C_8  and  S_9
REMARK    7  A    between atoms: S_9  and  C_10
REMARK    8  A    between atoms: N_14  and  N_15
REMARK    9  A    between atoms: N_15  and  C_16
REMARK   10  A    between atoms: C_16  and  C_17
REMARK                            x       y       z     vdW  Elec       q    Type
REMARK                         _______ _______ _______ _____ _____    ______ ____
ROOT
ATOM      1  C   UNL     1       7.401   6.450  17.488  0.00  0.00    +0.000 A 
ATOM      2  N   UNL     1       7.769   6.462  16.225  0.00  0.00    +0.000 NA
ATOM      3  N   UNL     1       7.012   5.532  15.553  0.00  0.00    +0.000 NA
ATOM      4  C   UNL     1       6.186   4.994  16.423  0.00  0.00    +0.000 A 
ATOM      5  N   UNL     1       6.361   5.557  17.659  0.00  0.00    +0.000 N 
ENDROOT
BRANCH   5   6
ATOM      6  N   UNL     1       5.594   5.158  18.814  0.00  0.00    +0.000 N 
ATOM      7  H   UNL     1       4.967   5.893  19.141  0.00  0.00    +0.000 HD
BRANCH   6   8
ATOM      8  C   UNL     1       4.841   3.915  18.633  0.00  0.00    +0.000 C 
BRANCH   8   9
ATOM      9  C   UNL     1       3.630   3.798  19.524  0.00  0.00    +0.000 A 
ATOM     10  C   UNL     1       2.482   4.590  19.324  0.00  0.00    +0.000 A 
ATOM     11 CL   UNL     1       2.371   5.760  18.051  0.00  0.00    +0.000 Cl
ATOM     12  C   UNL     1       1.344   4.431  20.129  0.00  0.00    +0.000 A 
ATOM     13  C   UNL     1       1.319   3.462  21.124  0.00  0.00    +0.000 A 
ATOM     14  C   UNL     1       2.425   2.641  21.311  0.00  0.00    +0.000 A 
ATOM     15  C   UNL     1       3.566   2.800  20.518  0.00  0.00    +0.000 A 
ATOM     16 CL   UNL     1       4.850   1.672  20.799  0.00  0.00    +0.000 Cl
ENDBRANCH   8   9
ENDBRANCH   6   8
ENDBRANCH   5   6
BRANCH   1  17
ATOM     17  S   UNL     1       8.088   7.473  18.697  0.00  0.00    +0.000 S 
BRANCH  17  18
ATOM     18  C   UNL     1       8.129   9.070  17.834  0.00  0.00    +0.000 C 
BRANCH  18  20
ATOM     19  N   UNL     1       9.522  11.049  17.876  0.00  0.00    +0.000 N 
ATOM     20  C   UNL     1       8.943  10.062  18.646  0.00  0.00    +0.000 C 
ATOM     21  O   UNL     1       9.082   9.943  19.862  0.00  0.00    +0.000 OA
ATOM     22  H   UNL     1       9.184  11.128  16.921  0.00  0.00    +0.000 HD
BRANCH  19  24
ATOM     23  C   UNL     1      11.573  11.501  19.142  0.00  0.00    +0.000 C 
ATOM     24  C   UNL     1      10.392  12.112  18.375  0.00  0.00    +0.000 C 
ATOM     25  C   UNL     1       9.622  13.097  19.269  0.00  0.00    +0.000 C 
ATOM     26  C   UNL     1      10.938  12.881  17.159  0.00  0.00    +0.000 C 
ENDBRANCH  19  24
ENDBRANCH  18  20
ENDBRANCH  17  18
ENDBRANCH   1  17
TORSDOF 7
ENDMDL
MODEL 5
REMARK VINA RESULT:      -7.2      3.507      6.425
REMARK  Name = 
REMARK  10 active torsions:
REMARK  status: ('A' for Active; 'I' for Inactive)
REMARK    1  A    between atoms: C_1  and  C_2
REMARK    2  A    between atoms: C_2  and  C_3
REMARK    3  A    between atoms: C_2  and  C_4
REMARK    4  A    between atoms: C_2  and  N_5
REMARK    5  A    between atoms: C_6  and  C_8
REMARK    6  A    between atoms: C_8  and  S_9
REMARK    7  A    between atoms: S_9  and  C_10
REMARK    8  A    between atoms: N_14  and  N_15
REMARK    9  A    between atoms: N_15  and  C_16
REMARK   10  A    between atoms: C_16  and  C_17
REMARK                            x       y       z     vdW  Elec       q    Type
REMARK                         _______ _______ _______ _____ _____    ______ ____
ROOT
ATOM      1  C   UNL     1       6.562   6.308  17.199  0.00  0.00    +0.000 A 
ATOM      2  N   UNL     1       7.436   7.286  17.096  0.00  0.00    +0.000 NA
ATOM      3  N   UNL     1       8.170   7.323  18.257  0.00  0.00    +0.000 NA
ATOM      4  C   UNL     1       7.738   6.350  19.028  0.00  0.00    +0.000 A 
ATOM      5  N   UNL     1       6.742   5.651  18.400  0.00  0.00    +0.000 N 
ENDROOT
BRANCH   5   6
ATOM      6  N   UNL     1       6.073   4.527  19.011  0.00  0.00    +0.000 N 
ATOM      7  H   UNL     1       6.692   3.983  19.612  0.00  0.00    +0.000 HD
BRANCH   6   8
ATOM      8  C   UNL     1       4.859   4.883  19.749  0.00  0.00    +0.000 C 
BRANCH   8   9
ATOM      9  C   UNL     1       3.627   4.143  19.291  0.00  0.00    +0.000 A 
ATOM     10  C   UNL     1       2.624   4.773  18.527  0.00  0.00    +0.000 A 
ATOM     11 CL   UNL     1       2.721   6.439  18.060  0.00  0.00    +0.000 Cl
ATOM     12  C   UNL     1       1.510   4.057  18.065  0.00  0.00    +0.000 A 
ATOM     13  C   UNL     1       1.391   2.698  18.328  0.00  0.00    +0.000 A 
ATOM     14  C   UNL     1       2.389   2.047  19.044  0.00  0.00    +0.000 A 
ATOM     15  C   UNL     1       3.499   2.758  19.516  0.00  0.00    +0.000 A 
ATOM     16 CL   UNL     1       4.707   1.823  20.331  0.00  0.00    +0.000 Cl
ENDBRANCH   8   9
ENDBRANCH   6   8
ENDBRANCH   5   6
BRANCH   1  17
ATOM     17  S   UNL     1       5.434   5.895  15.959  0.00  0.00    +0.000 S 
BRANCH  17  18
ATOM     18  C   UNL     1       6.034   4.255  15.461  0.00  0.00    +0.000 C 
BRANCH  18  20
ATOM     19  N   UNL     1       5.699   3.223  13.297  0.00  0.00    +0.000 N 
ATOM     20  C   UNL     1       6.321   4.255  13.969  0.00  0.00    +0.000 C 
ATOM     21  O   UNL     1       7.068   5.084  13.454  0.00  0.00    +0.000 OA
ATOM     22  H   UNL     1       4.979   2.723  13.811  0.00  0.00    +0.000 HD
BRANCH  19  24
ATOM     23  C   UNL     1       4.565   3.423  11.132  0.00  0.00    +0.000 C 
ATOM     24  C   UNL     1       5.825   2.946  11.868  0.00  0.00    +0.000 C 
ATOM     25  C   UNL     1       6.070   1.453  11.602  0.00  0.00    +0.000 C 
ATOM     26  C   UNL     1       7.034   3.741  11.341  0.00  0.00    +0.000 C 
ENDBRANCH  19  24
ENDBRANCH  18  20
ENDBRANCH  17  18
ENDBRANCH   1  17
TORSDOF 7
ENDMDL
MODEL 6
REMARK VINA RESULT:      -7.2      3.496      6.058
REMARK  Name = 
REMARK  10 active torsions:
REMARK  status: ('A' for Active; 'I' for Inactive)
REMARK    1  A    between atoms: C_1  and  C_2
REMARK    2  A    between atoms: C_2  and  C_3
REMARK    3  A    between atoms: C_2  and  C_4
REMARK    4  A    between atoms: C_2  and  N_5
REMARK    5  A    between atoms: C_6  and  C_8
REMARK    6  A    between atoms: C_8  and  S_9
REMARK    7  A    between atoms: S_9  and  C_10
REMARK    8  A    between atoms: N_14  and  N_15
REMARK    9  A    between atoms: N_15  and  C_16
REMARK   10  A    between atoms: C_16  and  C_17
REMARK                            x       y       z     vdW  Elec       q    Type
REMARK                         _______ _______ _______ _____ _____    ______ ____
ROOT
ATOM      1  C   UNL     1       6.470   6.445  17.154  0.00  0.00    +0.000 A 
ATOM      2  N   UNL     1       7.366   7.402  17.041  0.00  0.00    +0.000 NA
ATOM      3  N   UNL     1       8.170   7.362  18.156  0.00  0.00    +0.000 NA
ATOM      4  C   UNL     1       7.755   6.366  18.906  0.00  0.00    +0.000 A 
ATOM      5  N   UNL     1       6.702   5.726  18.310  0.00  0.00    +0.000 N 
ENDROOT
BRANCH   5   6
ATOM      6  N   UNL     1       6.035   4.594  18.908  0.00  0.00    +0.000 N 
ATOM      7  H   UNL     1       6.643   4.073  19.541  0.00  0.00    +0.000 HD
BRANCH   6   8
ATOM      8  C   UNL     1       4.785   4.928  19.592  0.00  0.00    +0.000 C 
BRANCH   8   9
ATOM      9  C   UNL     1       3.602   4.109  19.138  0.00  0.00    +0.000 A 
ATOM     10  C   UNL     1       3.487   2.739  19.444  0.00  0.00    +0.000 A 
ATOM     11 CL   UNL     1       4.691   1.886  20.355  0.00  0.00    +0.000 Cl
ATOM     12  C   UNL     1       2.356   2.004  19.061  0.00  0.00    +0.000 A 
ATOM     13  C   UNL     1       1.308   2.627  18.395  0.00  0.00    +0.000 A 
ATOM     14  C   UNL     1       1.381   3.988  18.120  0.00  0.00    +0.000 A 
ATOM     15  C   UNL     1       2.511   4.724  18.492  0.00  0.00    +0.000 A 
ATOM     16 CL   UNL     1       2.453   6.423  18.159  0.00  0.00    +0.000 Cl
ENDBRANCH   8   9
ENDBRANCH   6   8
ENDBRANCH   5   6
BRANCH   1  17
ATOM     17  S   UNL     1       5.257   6.123  15.967  0.00  0.00    +0.000 S 
BRANCH  17  18
ATOM     18  C   UNL     1       5.514   4.352  15.663  0.00  0.00    +0.000 C 
BRANCH  18  20
ATOM     19  N   UNL     1       5.243   3.626  13.370  0.00  0.00    +0.000 N 
ATOM     20  C   UNL     1       6.126   4.160  14.286  0.00  0.00    +0.000 C 
ATOM     21  O   UNL     1       7.303   4.429  14.058  0.00  0.00    +0.000 OA
ATOM     22  H   UNL     1       4.264   3.618  13.643  0.00  0.00    +0.000 HD
BRANCH  19  24
ATOM     23  C   UNL     1       4.314   3.472  11.106  0.00  0.00    +0.000 C 
ATOM     24  C   UNL     1       5.561   3.294  11.983  0.00  0.00    +0.000 C 
ATOM     25  C   UNL     1       6.107   1.864  11.857  0.00  0.00    +0.000 C 
ATOM     26  C   UNL     1       6.645   4.275  11.502  0.00  0.00    +0.000 C 
ENDBRANCH  19  24
ENDBRANCH  18  20
ENDBRANCH  17  18
ENDBRANCH   1  17
TORSDOF 7
ENDMDL
MODEL 7
REMARK VINA RESULT:      -7.1      4.431      5.218
REMARK  Name = 
REMARK  10 active torsions:
REMARK  status: ('A' for Active; 'I' for Inactive)
REMARK    1  A    between atoms: C_1  and  C_2
REMARK    2  A    between atoms: C_2  and  C_3
REMARK    3  A    between atoms: C_2  and  C_4
REMARK    4  A    between atoms: C_2  and  N_5
REMARK    5  A    between atoms: C_6  and  C_8
REMARK    6  A    between atoms: C_8  and  S_9
REMARK    7  A    between atoms: S_9  and  C_10
REMARK    8  A    between atoms: N_14  and  N_15
REMARK    9  A    between atoms: N_15  and  C_16
REMARK   10  A    between atoms: C_16  and  C_17
REMARK                            x       y       z     vdW  Elec       q    Type
REMARK                         _______ _______ _______ _____ _____    ______ ____
ROOT
ATOM      1  C   UNL     1       4.481   6.185  17.144  0.00  0.00    +0.000 A 
ATOM      2  N   UNL     1       4.751   6.867  16.052  0.00  0.00    +0.000 NA
ATOM      3  N   UNL     1       5.595   6.107  15.276  0.00  0.00    +0.000 NA
ATOM      4  C   UNL     1       5.797   4.973  15.908  0.00  0.00    +0.000 A 
ATOM      5  N   UNL     1       5.093   4.948  17.083  0.00  0.00    +0.000 N 
ENDROOT
BRANCH   5   6
ATOM      6  N   UNL     1       5.128   3.827  17.991  0.00  0.00    +0.000 N 
ATOM      7  H   UNL     1       5.230   4.115  18.964  0.00  0.00    +0.000 HD
BRANCH   6   8
ATOM      8  C   UNL     1       3.988   2.917  17.863  0.00  0.00    +0.000 C 
BRANCH   8   9
ATOM      9  C   UNL     1       3.033   2.966  19.028  0.00  0.00    +0.000 A 
ATOM     10  C   UNL     1       3.400   2.509  20.309  0.00  0.00    +0.000 A 
ATOM     11 CL   UNL     1       4.967   1.850  20.646  0.00  0.00    +0.000 Cl
ATOM     12  C   UNL     1       2.518   2.611  21.395  0.00  0.00    +0.000 A 
ATOM     13  C   UNL     1       1.269   3.196  21.231  0.00  0.00    +0.000 A 
ATOM     14  C   UNL     1       0.902   3.693  19.985  0.00  0.00    +0.000 A 
ATOM     15  C   UNL     1       1.774   3.587  18.896  0.00  0.00    +0.000 A 
ATOM     16 CL   UNL     1       1.232   4.306  17.417  0.00  0.00    +0.000 Cl
ENDBRANCH   8   9
ENDBRANCH   6   8
ENDBRANCH   5   6
BRANCH   1  17
ATOM     17  S   UNL     1       3.446   6.759  18.402  0.00  0.00    +0.000 S 
BRANCH  17  18
ATOM     18  C   UNL     1       2.839   8.313  17.684  0.00  0.00    +0.000 C 
BRANCH  18  20
ATOM     19  N   UNL     1       1.453  10.217  18.243  0.00  0.00    +0.000 N 
ATOM     20  C   UNL     1       1.848   8.956  18.639  0.00  0.00    +0.000 C 
ATOM     21  O   UNL     1       1.487   8.395  19.671  0.00  0.00    +0.000 OA
ATOM     22  H   UNL     1       1.690  10.483  17.291  0.00  0.00    +0.000 HD
BRANCH  19  24
ATOM     23  C   UNL     1       0.702  12.538  18.495  0.00  0.00    +0.000 C 
ATOM     24  C   UNL     1       0.543  11.090  18.982  0.00  0.00    +0.000 C 
ATOM     25  C   UNL     1       0.784  11.002  20.496  0.00  0.00    +0.000 C 
ATOM     26  C   UNL     1      -0.895  10.626  18.688  0.00  0.00    +0.000 C 
ENDBRANCH  19  24
ENDBRANCH  18  20
ENDBRANCH  17  18
ENDBRANCH   1  17
TORSDOF 7
ENDMDL
MODEL 8
REMARK VINA RESULT:      -7.1      1.508      1.650
REMARK  Name = 
REMARK  10 active torsions:
REMARK  status: ('A' for Active; 'I' for Inactive)
REMARK    1  A    between atoms: C_1  and  C_2
REMARK    2  A    between atoms: C_2  and  C_3
REMARK    3  A    between atoms: C_2  and  C_4
REMARK    4  A    between atoms: C_2  and  N_5
REMARK    5  A    between atoms: C_6  and  C_8
REMARK    6  A    between atoms: C_8  and  S_9
REMARK    7  A    between atoms: S_9  and  C_10
REMARK    8  A    between atoms: N_14  and  N_15
REMARK    9  A    between atoms: N_15  and  C_16
REMARK   10  A    between atoms: C_16  and  C_17
REMARK                            x       y       z     vdW  Elec       q    Type
REMARK                         _______ _______ _______ _____ _____    ______ ____
ROOT
ATOM      1  C   UNL     1       6.721   5.804  16.727  0.00  0.00    +0.000 A 
ATOM      2  N   UNL     1       7.489   5.940  15.669  0.00  0.00    +0.000 NA
ATOM      3  N   UNL     1       7.440   4.766  14.956  0.00  0.00    +0.000 NA
ATOM      4  C   UNL     1       6.624   3.954  15.589  0.00  0.00    +0.000 A 
ATOM      5  N   UNL     1       6.110   4.566  16.702  0.00  0.00    +0.000 N 
ENDROOT
BRANCH   5   6
ATOM      6  N   UNL     1       5.187   3.911  17.597  0.00  0.00    +0.000 N 
ATOM      7  H   UNL     1       5.442   4.029  18.577  0.00  0.00    +0.000 HD
BRANCH   6   8
ATOM      8  C   UNL     1       3.788   4.299  17.403  0.00  0.00    +0.000 C 
BRANCH   8   9
ATOM      9  C   UNL     1       2.912   4.051  18.605  0.00  0.00    +0.000 A 
ATOM     10  C   UNL     1       2.687   2.753  19.105  0.00  0.00    +0.000 A 
ATOM     11 CL   UNL     1       3.388   1.344  18.380  0.00  0.00    +0.000 Cl
ATOM     12  C   UNL     1       1.913   2.546  20.256  0.00  0.00    +0.000 A 
ATOM     13  C   UNL     1       1.377   3.626  20.945  0.00  0.00    +0.000 A 
ATOM     14  C   UNL     1       1.622   4.918  20.494  0.00  0.00    +0.000 A 
ATOM     15  C   UNL     1       2.386   5.131  19.342  0.00  0.00    +0.000 A 
ATOM     16 CL   UNL     1       2.680   6.786  18.922  0.00  0.00    +0.000 Cl
ENDBRANCH   8   9
ENDBRANCH   6   8
ENDBRANCH   5   6
BRANCH   1  17
ATOM     17  S   UNL     1       6.479   7.047  17.903  0.00  0.00    +0.000 S 
BRANCH  17  18
ATOM     18  C   UNL     1       8.191   7.511  18.290  0.00  0.00    +0.000 C 
BRANCH  18  20
ATOM     19  N   UNL     1       9.287   9.512  19.100  0.00  0.00    +0.000 N 
ATOM     20  C   UNL     1       8.328   9.023  18.237  0.00  0.00    +0.000 C 
ATOM     21  O   UNL     1       7.611   9.712  17.515  0.00  0.00    +0.000 OA
ATOM     22  H   UNL     1       9.918   8.825  19.504  0.00  0.00    +0.000 HD
BRANCH  19  24
ATOM     23  C   UNL     1       9.254  11.344  20.729  0.00  0.00    +0.000 C 
ATOM     24  C   UNL     1       9.608  10.924  19.296  0.00  0.00    +0.000 C 
ATOM     25  C   UNL     1       8.880  11.814  18.279  0.00  0.00    +0.000 C 
ATOM     26  C   UNL     1      11.125  11.092  19.095  0.00  0.00    +0.000 C 
ENDBRANCH  19  24
ENDBRANCH  18  20
ENDBRANCH  17  18
ENDBRANCH   1  17
TORSDOF 7
ENDMDL
MODEL 9
REMARK VINA RESULT:      -7.1      4.311      5.122
REMARK  Name = 
REMARK  10 active torsions:
REMARK  status: ('A' for Active; 'I' for Inactive)
REMARK    1  A    between atoms: C_1  and  C_2
REMARK    2  A    between atoms: C_2  and  C_3
REMARK    3  A    between atoms: C_2  and  C_4
REMARK    4  A    between atoms: C_2  and  N_5
REMARK    5  A    between atoms: C_6  and  C_8
REMARK    6  A    between atoms: C_8  and  S_9
REMARK    7  A    between atoms: S_9  and  C_10
REMARK    8  A    between atoms: N_14  and  N_15
REMARK    9  A    between atoms: N_15  and  C_16
REMARK   10  A    between atoms: C_16  and  C_17
REMARK                            x       y       z     vdW  Elec       q    Type
REMARK                         _______ _______ _______ _____ _____    ______ ____
ROOT
ATOM      1  C   UNL     1       5.158   6.045  16.583  0.00  0.00    +0.000 A 
ATOM      2  N   UNL     1       5.316   6.294  15.301  0.00  0.00    +0.000 NA
ATOM      3  N   UNL     1       5.511   5.095  14.657  0.00  0.00    +0.000 NA
ATOM      4  C   UNL     1       5.444   4.146  15.563  0.00  0.00    +0.000 A 
ATOM      5  N   UNL     1       5.190   4.681  16.798  0.00  0.00    +0.000 N 
ENDROOT
BRANCH   5   6
ATOM      6  N   UNL     1       5.069   3.874  17.989  0.00  0.00    +0.000 N 
ATOM      7  H   UNL     1       4.971   4.437  18.834  0.00  0.00    +0.000 HD
BRANCH   6   8
ATOM      8  C   UNL     1       3.995   2.881  17.932  0.00  0.00    +0.000 C 
BRANCH   8   9
ATOM      9  C   UNL     1       3.038   2.947  19.096  0.00  0.00    +0.000 A 
ATOM     10  C   UNL     1       3.398   2.490  20.379  0.00  0.00    +0.000 A 
ATOM     11 CL   UNL     1       4.956   1.812  20.721  0.00  0.00    +0.000 Cl
ATOM     12  C   UNL     1       2.515   2.607  21.463  0.00  0.00    +0.000 A 
ATOM     13  C   UNL     1       1.275   3.208  21.294  0.00  0.00    +0.000 A 
ATOM     14  C   UNL     1       0.915   3.705  20.046  0.00  0.00    +0.000 A 
ATOM     15  C   UNL     1       1.788   3.583  18.959  0.00  0.00    +0.000 A 
ATOM     16 CL   UNL     1       1.257   4.303  17.476  0.00  0.00    +0.000 Cl
ENDBRANCH   8   9
ENDBRANCH   6   8
ENDBRANCH   5   6
BRANCH   1  17
ATOM     17  S   UNL     1       4.875   7.267  17.770  0.00  0.00    +0.000 S 
BRANCH  17  18
ATOM     18  C   UNL     1       3.114   7.012  18.133  0.00  0.00    +0.000 C 
BRANCH  18  20
ATOM     19  N   UNL     1       1.566   8.608  19.092  0.00  0.00    +0.000 N 
ATOM     20  C   UNL     1       2.377   8.335  18.009  0.00  0.00    +0.000 C 
ATOM     21  O   UNL     1       2.487   9.045  17.012  0.00  0.00    +0.000 OA
ATOM     22  H   UNL     1       1.706   8.026  19.914  0.00  0.00    +0.000 HD
BRANCH  19  24
ATOM     23  C   UNL     1      -0.326   9.810  18.098  0.00  0.00    +0.000 C 
ATOM     24  C   UNL     1       0.708   9.782  19.232  0.00  0.00    +0.000 C 
ATOM     25  C   UNL     1       1.528  11.081  19.243  0.00  0.00    +0.000 C 
ATOM     26  C   UNL     1      -0.035   9.663  20.574  0.00  0.00    +0.000 C 
ENDBRANCH  19  24
ENDBRANCH  18  20
ENDBRANCH  17  18
ENDBRANCH   1  17
TORSDOF 7
ENDMDL
