MODEL 1
REMARK VINA RESULT:      -7.0      0.000      0.000
REMARK  Name = 
REMARK  8 active torsions:
REMARK  status: ('A' for Active; 'I' for Inactive)
REMARK    1  A    between atoms: C_1  and  C_2
REMARK    2  A    between atoms: C_2  and  O_3
REMARK    3  A    between atoms: O_3  and  C_4
REMARK    4  A    between atoms: C_4  and  C_5
REMARK    5  A    between atoms: C_11  and  C_12
REMARK    6  A    between atoms: C_12  and  C_13
REMARK    7  A    between atoms: C_14  and  S_15
REMARK    8  A    between atoms: S_15  and  C_16
REMARK                            x       y       z     vdW  Elec       q    Type
REMARK                         _______ _______ _______ _____ _____    ______ ____
ROOT
ATOM      1  C   UNL     1       6.623   5.225  18.290  0.00  0.00    +0.000 C 
ATOM      2  C   UNL     1       7.074   4.916  16.872  0.00  0.00    +0.000 C 
ATOM      3  O   UNL     1       8.012   4.156  16.632  0.00  0.00    +0.000 OA
ATOM      4  N   UNL     1       6.469   5.610  15.861  0.00  0.00    +0.000 N 
ATOM      5  C   UNL     1       5.331   6.363  15.942  0.00  0.00    +0.000 C 
ATOM      6  O   UNL     1       4.932   7.006  14.981  0.00  0.00    +0.000 OA
ATOM      7  C   UNL     1       4.565   6.269  17.221  0.00  0.00    +0.000 C 
ATOM      8  C   UNL     1       5.162   5.676  18.283  0.00  0.00    +0.000 C 
ATOM      9  H   UNL     1       6.873   5.521  14.940  0.00  0.00    +0.000 HD
ENDROOT
BRANCH   7  10
ATOM     10  C   UNL     1       3.173   6.878  17.170  0.00  0.00    +0.000 C 
ATOM     11  C   UNL     1       3.016   8.188  17.936  0.00  0.00    +0.000 C 
ENDBRANCH   7  10
BRANCH   1  12
ATOM     12  C   UNL     1       7.673   6.229  18.823  0.00  0.00    +0.000 C 
BRANCH  12  13
ATOM     13  O   UNL     1       8.219   7.167  17.902  0.00  0.00    +0.000 OA
BRANCH  13  15
ATOM     14  C   UNL     1       8.579   9.598  18.327  0.00  0.00    +0.000 C 
ATOM     15  C   UNL     1       7.663   8.477  17.863  0.00  0.00    +0.000 C 
ENDBRANCH  13  15
ENDBRANCH  12  13
ENDBRANCH   1  12
BRANCH   8  16
ATOM     16  S   UNL     1       4.242   5.336  19.737  0.00  0.00    +0.000 S 
BRANCH  16  17
ATOM     17  C   UNL     1       3.016   4.133  19.212  0.00  0.00    +0.000 A 
ATOM     18  C   UNL     1       3.183   3.195  18.187  0.00  0.00    +0.000 A 
ATOM     19  C   UNL     1       2.193   2.234  17.923  0.00  0.00    +0.000 A 
ATOM     20  C   UNL     1       1.021   2.208  18.673  0.00  0.00    +0.000 A 
ATOM     21  C   UNL     1       0.827   3.153  19.677  0.00  0.00    +0.000 A 
ATOM     22  C   UNL     1       1.814   4.106  19.941  0.00  0.00    +0.000 A 
ENDBRANCH  16  17
ENDBRANCH   8  16
TORSDOF 6
ENDMDL
MODEL 2
REMARK VINA RESULT:      -7.0      2.305      3.921
REMARK  Name = 
REMARK  8 active torsions:
REMARK  status: ('A' for Active; 'I' for Inactive)
REMARK    1  A    between atoms: C_1  and  C_2
REMARK    2  A    between atoms: C_2  and  O_3
REMARK    3  A    between atoms: O_3  and  C_4
REMARK    4  A    between atoms: C_4  and  C_5
REMARK    5  A    between atoms: C_11  and  C_12
REMARK    6  A    between atoms: C_12  and  C_13
REMARK    7  A    between atoms: C_14  and  S_15
REMARK    8  A    between atoms: S_15  and  C_16
REMARK                            x       y       z     vdW  Elec       q    Type
REMARK                         _______ _______ _______ _____ _____    ______ ____
ROOT
ATOM      1  C   UNL     1       5.733   6.061  18.118  0.00  0.00    +0.000 C 
ATOM      2  C   UNL     1       6.180   5.104  19.211  0.00  0.00    +0.000 C 
ATOM      3  O   UNL     1       7.106   5.369  19.977  0.00  0.00    +0.000 OA
ATOM      4  N   UNL     1       5.588   3.872  19.241  0.00  0.00    +0.000 N 
ATOM      5  C   UNL     1       4.463   3.479  18.571  0.00  0.00    +0.000 C 
ATOM      6  O   UNL     1       4.076   2.320  18.615  0.00  0.00    +0.000 OA
ATOM      7  C   UNL     1       3.694   4.559  17.882  0.00  0.00    +0.000 C 
ATOM      8  C   UNL     1       4.280   5.772  17.740  0.00  0.00    +0.000 C 
ATOM      9  H   UNL     1       5.992   3.186  19.861  0.00  0.00    +0.000 HD
ENDROOT
BRANCH   7  10
ATOM     10  C   UNL     1       2.312   4.143  17.403  0.00  0.00    +0.000 C 
ATOM     11  C   UNL     1       1.288   3.921  18.512  0.00  0.00    +0.000 C 
ENDBRANCH   7  10
BRANCH   1  12
ATOM     12  C   UNL     1       6.798   5.910  17.006  0.00  0.00    +0.000 C 
BRANCH  12  13
ATOM     13  O   UNL     1       7.761   6.948  16.868  0.00  0.00    +0.000 OA
BRANCH  13  15
ATOM     14  C   UNL     1       8.492   8.867  18.283  0.00  0.00    +0.000 C 
ATOM     15  C   UNL     1       7.444   8.238  17.381  0.00  0.00    +0.000 C 
ENDBRANCH  13  15
ENDBRANCH  12  13
ENDBRANCH   1  12
BRANCH   8  16
ATOM     16  S   UNL     1       3.352   7.136  17.144  0.00  0.00    +0.000 S 
BRANCH  16  17
ATOM     17  C   UNL     1       2.404   7.682  18.569  0.00  0.00    +0.000 A 
ATOM     18  C   UNL     1       2.341   7.027  19.803  0.00  0.00    +0.000 A 
ATOM     19  C   UNL     1       1.645   7.594  20.884  0.00  0.00    +0.000 A 
ATOM     20  C   UNL     1       0.995   8.817  20.737  0.00  0.00    +0.000 A 
ATOM     21  C   UNL     1       1.023   9.466  19.506  0.00  0.00    +0.000 A 
ATOM     22  C   UNL     1       1.718   8.902  18.434  0.00  0.00    +0.000 A 
ENDBRANCH  16  17
ENDBRANCH   8  16
TORSDOF 6
ENDMDL
MODEL 3
REMARK VINA RESULT:      -6.9      2.070      3.481
REMARK  Name = 
REMARK  8 active torsions:
REMARK  status: ('A' for Active; 'I' for Inactive)
REMARK    1  A    between atoms: C_1  and  C_2
REMARK    2  A    between atoms: C_2  and  O_3
REMARK    3  A    between atoms: O_3  and  C_4
REMARK    4  A    between atoms: C_4  and  C_5
REMARK    5  A    between atoms: C_11  and  C_12
REMARK    6  A    between atoms: C_12  and  C_13
REMARK    7  A    between atoms: C_14  and  S_15
REMARK    8  A    between atoms: S_15  and  C_16
REMARK                            x       y       z     vdW  Elec       q    Type
REMARK                         _______ _______ _______ _____ _____    ______ ____
ROOT
ATOM      1  C   UNL     1       5.092   4.922  18.826  0.00  0.00    +0.000 C 
ATOM      2  C   UNL     1       6.559   5.273  19.011  0.00  0.00    +0.000 C 
ATOM      3  O   UNL     1       7.106   5.250  20.112  0.00  0.00    +0.000 OA
ATOM      4  N   UNL     1       7.232   5.733  17.913  0.00  0.00    +0.000 N 
ATOM      5  C   UNL     1       6.822   5.679  16.610  0.00  0.00    +0.000 C 
ATOM      6  O   UNL     1       7.479   6.202  15.720  0.00  0.00    +0.000 OA
ATOM      7  C   UNL     1       5.599   4.866  16.335  0.00  0.00    +0.000 C 
ATOM      8  C   UNL     1       4.844   4.469  17.388  0.00  0.00    +0.000 C 
ATOM      9  H   UNL     1       8.154   6.112  18.068  0.00  0.00    +0.000 HD
ENDROOT
BRANCH   7  10
ATOM     10  C   UNL     1       5.343   4.587  14.862  0.00  0.00    +0.000 C 
ATOM     11  C   UNL     1       6.323   3.616  14.213  0.00  0.00    +0.000 C 
ENDBRANCH   7  10
BRANCH   1  12
ATOM     12  C   UNL     1       4.327   6.174  19.318  0.00  0.00    +0.000 C 
BRANCH  12  13
ATOM     13  O   UNL     1       3.648   6.959  18.344  0.00  0.00    +0.000 OA
BRANCH  13  15
ATOM     14  C   UNL     1       1.997   7.442  20.150  0.00  0.00    +0.000 C 
ATOM     15  C   UNL     1       2.375   7.502  18.679  0.00  0.00    +0.000 C 
ENDBRANCH  13  15
ENDBRANCH  12  13
ENDBRANCH   1  12
BRANCH   8  16
ATOM     16  S   UNL     1       3.528   3.333  17.151  0.00  0.00    +0.000 S 
BRANCH  16  17
ATOM     17  C   UNL     1       2.761   3.204  18.770  0.00  0.00    +0.000 A 
ATOM     18  C   UNL     1       3.312   2.559  19.882  0.00  0.00    +0.000 A 
ATOM     19  C   UNL     1       2.669   2.601  21.131  0.00  0.00    +0.000 A 
ATOM     20  C   UNL     1       1.462   3.279  21.277  0.00  0.00    +0.000 A 
ATOM     21  C   UNL     1       0.886   3.900  20.172  0.00  0.00    +0.000 A 
ATOM     22  C   UNL     1       1.528   3.860  18.933  0.00  0.00    +0.000 A 
ENDBRANCH  16  17
ENDBRANCH   8  16
TORSDOF 6
ENDMDL
MODEL 4
REMARK VINA RESULT:      -6.9      2.445      4.423
REMARK  Name = 
REMARK  8 active torsions:
REMARK  status: ('A' for Active; 'I' for Inactive)
REMARK    1  A    between atoms: C_1  and  C_2
REMARK    2  A    between atoms: C_2  and  O_3
REMARK    3  A    between atoms: O_3  and  C_4
REMARK    4  A    between atoms: C_4  and  C_5
REMARK    5  A    between atoms: C_11  and  C_12
REMARK    6  A    between atoms: C_12  and  C_13
REMARK    7  A    between atoms: C_14  and  S_15
REMARK    8  A    between atoms: S_15  and  C_16
REMARK                            x       y       z     vdW  Elec       q    Type
REMARK                         _______ _______ _______ _____ _____    ______ ____
ROOT
ATOM      1  C   UNL     1       5.776   6.017  18.110  0.00  0.00    +0.000 C 
ATOM      2  C   UNL     1       6.208   5.052  19.201  0.00  0.00    +0.000 C 
ATOM      3  O   UNL     1       7.138   5.301  19.967  0.00  0.00    +0.000 OA
ATOM      4  N   UNL     1       5.597   3.829  19.228  0.00  0.00    +0.000 N 
ATOM      5  C   UNL     1       4.466   3.455  18.557  0.00  0.00    +0.000 C 
ATOM      6  O   UNL     1       4.061   2.302  18.599  0.00  0.00    +0.000 OA
ATOM      7  C   UNL     1       3.714   4.548  17.870  0.00  0.00    +0.000 C 
ATOM      8  C   UNL     1       4.319   5.752  17.731  0.00  0.00    +0.000 C 
ATOM      9  H   UNL     1       5.990   3.135  19.847  0.00  0.00    +0.000 HD
ENDROOT
BRANCH   7  10
ATOM     10  C   UNL     1       2.325   4.155  17.391  0.00  0.00    +0.000 C 
ATOM     11  C   UNL     1       1.313   3.893  18.501  0.00  0.00    +0.000 C 
ENDBRANCH   7  10
BRANCH   1  12
ATOM     12  C   UNL     1       6.839   5.852  16.998  0.00  0.00    +0.000 C 
BRANCH  12  13
ATOM     13  O   UNL     1       6.789   4.670  16.206  0.00  0.00    +0.000 OA
BRANCH  13  15
ATOM     14  C   UNL     1       6.111   3.885  13.937  0.00  0.00    +0.000 C 
ATOM     15  C   UNL     1       6.975   4.791  14.799  0.00  0.00    +0.000 C 
ENDBRANCH  13  15
ENDBRANCH  12  13
ENDBRANCH   1  12
BRANCH   8  16
ATOM     16  S   UNL     1       3.412   7.132  17.138  0.00  0.00    +0.000 S 
BRANCH  16  17
ATOM     17  C   UNL     1       2.443   7.665  18.553  0.00  0.00    +0.000 A 
ATOM     18  C   UNL     1       2.386   7.016  19.791  0.00  0.00    +0.000 A 
ATOM     19  C   UNL     1       1.669   7.574  20.863  0.00  0.00    +0.000 A 
ATOM     20  C   UNL     1       0.994   8.781  20.705  0.00  0.00    +0.000 A 
ATOM     21  C   UNL     1       1.017   9.424  19.470  0.00  0.00    +0.000 A 
ATOM     22  C   UNL     1       1.732   8.869  18.406  0.00  0.00    +0.000 A 
ENDBRANCH  16  17
ENDBRANCH   8  16
TORSDOF 6
ENDMDL
MODEL 5
REMARK VINA RESULT:      -6.8      2.141      3.501
REMARK  Name = 
REMARK  8 active torsions:
REMARK  status: ('A' for Active; 'I' for Inactive)
REMARK    1  A    between atoms: C_1  and  C_2
REMARK    2  A    between atoms: C_2  and  O_3
REMARK    3  A    between atoms: O_3  and  C_4
REMARK    4  A    between atoms: C_4  and  C_5
REMARK    5  A    between atoms: C_11  and  C_12
REMARK    6  A    between atoms: C_12  and  C_13
REMARK    7  A    between atoms: C_14  and  S_15
REMARK    8  A    between atoms: S_15  and  C_16
REMARK                            x       y       z     vdW  Elec       q    Type
REMARK                         _______ _______ _______ _____ _____    ______ ____
ROOT
ATOM      1  C   UNL     1       5.316   4.759  18.929  0.00  0.00    +0.000 C 
ATOM      2  C   UNL     1       6.734   5.290  19.062  0.00  0.00    +0.000 C 
ATOM      3  O   UNL     1       7.240   5.545  20.153  0.00  0.00    +0.000 OA
ATOM      4  N   UNL     1       7.397   5.589  17.904  0.00  0.00    +0.000 N 
ATOM      5  C   UNL     1       7.042   5.234  16.633  0.00  0.00    +0.000 C 
ATOM      6  O   UNL     1       7.676   5.634  15.666  0.00  0.00    +0.000 OA
ATOM      7  C   UNL     1       5.916   4.260  16.509  0.00  0.00    +0.000 C 
ATOM      8  C   UNL     1       5.166   4.005  17.608  0.00  0.00    +0.000 C 
ATOM      9  H   UNL     1       8.272   6.085  17.993  0.00  0.00    +0.000 HD
ENDROOT
BRANCH   7  10
ATOM     10  C   UNL     1       5.743   3.667  15.119  0.00  0.00    +0.000 C 
ATOM     11  C   UNL     1       5.070   4.589  14.108  0.00  0.00    +0.000 C 
ENDBRANCH   7  10
BRANCH   1  12
ATOM     12  C   UNL     1       4.414   5.998  19.145  0.00  0.00    +0.000 C 
BRANCH  12  13
ATOM     13  O   UNL     1       3.631   6.446  18.044  0.00  0.00    +0.000 OA
BRANCH  13  15
ATOM     14  C   UNL     1       2.098   7.459  19.731  0.00  0.00    +0.000 C 
ATOM     15  C   UNL     1       2.584   7.378  18.293  0.00  0.00    +0.000 C 
ENDBRANCH  13  15
ENDBRANCH  12  13
ENDBRANCH   1  12
BRANCH   8  16
ATOM     16  S   UNL     1       3.978   2.714  17.586  0.00  0.00    +0.000 S 
BRANCH  16  17
ATOM     17  C   UNL     1       2.935   3.050  19.009  0.00  0.00    +0.000 A 
ATOM     18  C   UNL     1       1.700   3.705  18.976  0.00  0.00    +0.000 A 
ATOM     19  C   UNL     1       0.920   3.830  20.138  0.00  0.00    +0.000 A 
ATOM     20  C   UNL     1       1.373   3.311  21.347  0.00  0.00    +0.000 A 
ATOM     21  C   UNL     1       2.614   2.683  21.403  0.00  0.00    +0.000 A 
ATOM     22  C   UNL     1       3.387   2.557  20.246  0.00  0.00    +0.000 A 
ENDBRANCH  16  17
ENDBRANCH   8  16
TORSDOF 6
ENDMDL
MODEL 6
REMARK VINA RESULT:      -6.8      0.257      1.063
REMARK  Name = 
REMARK  8 active torsions:
REMARK  status: ('A' for Active; 'I' for Inactive)
REMARK    1  A    between atoms: C_1  and  C_2
REMARK    2  A    between atoms: C_2  and  O_3
REMARK    3  A    between atoms: O_3  and  C_4
REMARK    4  A    between atoms: C_4  and  C_5
REMARK    5  A    between atoms: C_11  and  C_12
REMARK    6  A    between atoms: C_12  and  C_13
REMARK    7  A    between atoms: C_14  and  S_15
REMARK    8  A    between atoms: S_15  and  C_16
REMARK                            x       y       z     vdW  Elec       q    Type
REMARK                         _______ _______ _______ _____ _____    ______ ____
ROOT
ATOM      1  C   UNL     1       6.616   5.278  18.338  0.00  0.00    +0.000 C 
ATOM      2  C   UNL     1       7.062   4.954  16.922  0.00  0.00    +0.000 C 
ATOM      3  O   UNL     1       8.005   4.199  16.688  0.00  0.00    +0.000 OA
ATOM      4  N   UNL     1       6.445   5.628  15.905  0.00  0.00    +0.000 N 
ATOM      5  C   UNL     1       5.302   6.373  15.982  0.00  0.00    +0.000 C 
ATOM      6  O   UNL     1       4.891   6.999  15.015  0.00  0.00    +0.000 OA
ATOM      7  C   UNL     1       4.544   6.289  17.267  0.00  0.00    +0.000 C 
ATOM      8  C   UNL     1       5.152   5.717  18.333  0.00  0.00    +0.000 C 
ATOM      9  H   UNL     1       6.845   5.530  14.983  0.00  0.00    +0.000 HD
ENDROOT
BRANCH   7  10
ATOM     10  C   UNL     1       3.145   6.886  17.216  0.00  0.00    +0.000 C 
ATOM     11  C   UNL     1       3.012   8.266  17.851  0.00  0.00    +0.000 C 
ENDBRANCH   7  10
BRANCH   1  12
ATOM     12  C   UNL     1       7.660   6.299  18.852  0.00  0.00    +0.000 C 
BRANCH  12  13
ATOM     13  O   UNL     1       8.238   7.188  17.903  0.00  0.00    +0.000 OA
BRANCH  13  15
ATOM     14  C   UNL     1       8.605   9.614  18.349  0.00  0.00    +0.000 C 
ATOM     15  C   UNL     1       7.715   8.509  17.807  0.00  0.00    +0.000 C 
ENDBRANCH  13  15
ENDBRANCH  12  13
ENDBRANCH   1  12
BRANCH   8  16
ATOM     16  S   UNL     1       4.243   5.389  19.797  0.00  0.00    +0.000 S 
BRANCH  16  17
ATOM     17  C   UNL     1       3.117   4.069  19.331  0.00  0.00    +0.000 A 
ATOM     18  C   UNL     1       1.790   3.944  19.755  0.00  0.00    +0.000 A 
ATOM     19  C   UNL     1       0.968   2.922  19.251  0.00  0.00    +0.000 A 
ATOM     20  C   UNL     1       1.467   2.009  18.328  0.00  0.00    +0.000 A 
ATOM     21  C   UNL     1       2.794   2.102  17.919  0.00  0.00    +0.000 A 
ATOM     22  C   UNL     1       3.611   3.120  18.418  0.00  0.00    +0.000 A 
ENDBRANCH  16  17
ENDBRANCH   8  16
TORSDOF 6
ENDMDL
MODEL 7
REMARK VINA RESULT:      -6.8      2.425      4.359
REMARK  Name = 
REMARK  8 active torsions:
REMARK  status: ('A' for Active; 'I' for Inactive)
REMARK    1  A    between atoms: C_1  and  C_2
REMARK    2  A    between atoms: C_2  and  O_3
REMARK    3  A    between atoms: O_3  and  C_4
REMARK    4  A    between atoms: C_4  and  C_5
REMARK    5  A    between atoms: C_11  and  C_12
REMARK    6  A    between atoms: C_12  and  C_13
REMARK    7  A    between atoms: C_14  and  S_15
REMARK    8  A    between atoms: S_15  and  C_16
REMARK                            x       y       z     vdW  Elec       q    Type
REMARK                         _______ _______ _______ _____ _____    ______ ____
ROOT
ATOM      1  C   UNL     1       5.671   6.045  18.121  0.00  0.00    +0.000 C 
ATOM      2  C   UNL     1       6.121   5.085  19.210  0.00  0.00    +0.000 C 
ATOM      3  O   UNL     1       7.052   5.346  19.971  0.00  0.00    +0.000 OA
ATOM      4  N   UNL     1       5.524   3.855  19.242  0.00  0.00    +0.000 N 
ATOM      5  C   UNL     1       4.394   3.468  18.578  0.00  0.00    +0.000 C 
ATOM      6  O   UNL     1       4.003   2.310  18.622  0.00  0.00    +0.000 OA
ATOM      7  C   UNL     1       3.625   4.551  17.894  0.00  0.00    +0.000 C 
ATOM      8  C   UNL     1       4.215   5.762  17.751  0.00  0.00    +0.000 C 
ATOM      9  H   UNL     1       5.929   3.167  19.859  0.00  0.00    +0.000 HD
ENDROOT
BRANCH   7  10
ATOM     10  C   UNL     1       2.238   4.141  17.423  0.00  0.00    +0.000 C 
ATOM     11  C   UNL     1       1.255   3.805  18.539  0.00  0.00    +0.000 C 
ENDBRANCH   7  10
BRANCH   1  12
ATOM     12  C   UNL     1       6.729   5.891  17.003  0.00  0.00    +0.000 C 
BRANCH  12  13
ATOM     13  O   UNL     1       7.115   4.572  16.634  0.00  0.00    +0.000 OA
BRANCH  13  15
ATOM     14  C   UNL     1       6.652   4.566  14.184  0.00  0.00    +0.000 C 
ATOM     15  C   UNL     1       6.433   3.944  15.553  0.00  0.00    +0.000 C 
ENDBRANCH  13  15
ENDBRANCH  12  13
ENDBRANCH   1  12
BRANCH   8  16
ATOM     16  S   UNL     1       3.288   7.131  17.161  0.00  0.00    +0.000 S 
BRANCH  16  17
ATOM     17  C   UNL     1       2.430   7.742  18.616  0.00  0.00    +0.000 A 
ATOM     18  C   UNL     1       1.721   8.945  18.697  0.00  0.00    +0.000 A 
ATOM     19  C   UNL     1       1.004   9.280  19.858  0.00  0.00    +0.000 A 
ATOM     20  C   UNL     1       0.998   8.422  20.953  0.00  0.00    +0.000 A 
ATOM     21  C   UNL     1       1.723   7.235  20.899  0.00  0.00    +0.000 A 
ATOM     22  C   UNL     1       2.433   6.901  19.743  0.00  0.00    +0.000 A 
ENDBRANCH  16  17
ENDBRANCH   8  16
TORSDOF 6
ENDMDL
MODEL 8
REMARK VINA RESULT:      -6.8      3.295      6.060
REMARK  Name = 
REMARK  8 active torsions:
REMARK  status: ('A' for Active; 'I' for Inactive)
REMARK    1  A    between atoms: C_1  and  C_2
REMARK    2  A    between atoms: C_2  and  O_3
REMARK    3  A    between atoms: O_3  and  C_4
REMARK    4  A    between atoms: C_4  and  C_5
REMARK    5  A    between atoms: C_11  and  C_12
REMARK    6  A    between atoms: C_12  and  C_13
REMARK    7  A    between atoms: C_14  and  S_15
REMARK    8  A    between atoms: S_15  and  C_16
REMARK                            x       y       z     vdW  Elec       q    Type
REMARK                         _______ _______ _______ _____ _____    ______ ____
ROOT
ATOM      1  C   UNL     1       2.552   4.475  19.311  0.00  0.00    +0.000 C 
ATOM      2  C   UNL     1       2.333   4.835  20.771  0.00  0.00    +0.000 C 
ATOM      3  O   UNL     1       2.414   4.002  21.672  0.00  0.00    +0.000 OA
ATOM      4  N   UNL     1       1.924   6.111  21.043  0.00  0.00    +0.000 N 
ATOM      5  C   UNL     1       1.930   7.180  20.191  0.00  0.00    +0.000 C 
ATOM      6  O   UNL     1       1.460   8.258  20.528  0.00  0.00    +0.000 OA
ATOM      7  C   UNL     1       2.630   6.981  18.886  0.00  0.00    +0.000 C 
ATOM      8  C   UNL     1       2.969   5.719  18.527  0.00  0.00    +0.000 C 
ATOM      9  H   UNL     1       1.629   6.305  21.989  0.00  0.00    +0.000 HD
ENDROOT
BRANCH   7  10
ATOM     10  C   UNL     1       2.873   8.259  18.098  0.00  0.00    +0.000 C 
ATOM     11  C   UNL     1       1.610   8.957  17.602  0.00  0.00    +0.000 C 
ENDBRANCH   7  10
BRANCH   1  12
ATOM     12  C   UNL     1       1.242   3.772  18.882  0.00  0.00    +0.000 C 
BRANCH  12  13
ATOM     13  O   UNL     1       1.353   2.529  18.198  0.00  0.00    +0.000 OA
BRANCH  13  15
ATOM     14  C   UNL     1       3.533   1.363  18.528  0.00  0.00    +0.000 C 
ATOM     15  C   UNL     1       2.613   2.176  17.634  0.00  0.00    +0.000 C 
ENDBRANCH  13  15
ENDBRANCH  12  13
ENDBRANCH   1  12
BRANCH   8  16
ATOM     16  S   UNL     1       3.983   5.444  17.123  0.00  0.00    +0.000 S 
BRANCH  16  17
ATOM     17  C   UNL     1       5.617   5.975  17.647  0.00  0.00    +0.000 A 
ATOM     18  C   UNL     1       6.333   7.050  17.112  0.00  0.00    +0.000 A 
ATOM     19  C   UNL     1       7.566   7.439  17.664  0.00  0.00    +0.000 A 
ATOM     20  C   UNL     1       8.098   6.751  18.750  0.00  0.00    +0.000 A 
ATOM     21  C   UNL     1       7.411   5.660  19.275  0.00  0.00    +0.000 A 
ATOM     22  C   UNL     1       6.185   5.276  18.727  0.00  0.00    +0.000 A 
ENDBRANCH  16  17
ENDBRANCH   8  16
TORSDOF 6
ENDMDL
MODEL 9
REMARK VINA RESULT:      -6.7      2.307      3.891
REMARK  Name = 
REMARK  8 active torsions:
REMARK  status: ('A' for Active; 'I' for Inactive)
REMARK    1  A    between atoms: C_1  and  C_2
REMARK    2  A    between atoms: C_2  and  O_3
REMARK    3  A    between atoms: O_3  and  C_4
REMARK    4  A    between atoms: C_4  and  C_5
REMARK    5  A    between atoms: C_11  and  C_12
REMARK    6  A    between atoms: C_12  and  C_13
REMARK    7  A    between atoms: C_14  and  S_15
REMARK    8  A    between atoms: S_15  and  C_16
REMARK                            x       y       z     vdW  Elec       q    Type
REMARK                         _______ _______ _______ _____ _____    ______ ____
ROOT
ATOM      1  C   UNL     1       5.763   5.975  18.121  0.00  0.00    +0.000 C 
ATOM      2  C   UNL     1       6.175   5.037  19.243  0.00  0.00    +0.000 C 
ATOM      3  O   UNL     1       7.086   5.309  20.024  0.00  0.00    +0.000 OA
ATOM      4  N   UNL     1       5.568   3.813  19.285  0.00  0.00    +0.000 N 
ATOM      5  C   UNL     1       4.455   3.418  18.599  0.00  0.00    +0.000 C 
ATOM      6  O   UNL     1       4.053   2.264  18.658  0.00  0.00    +0.000 OA
ATOM      7  C   UNL     1       3.713   4.491  17.870  0.00  0.00    +0.000 C 
ATOM      8  C   UNL     1       4.316   5.695  17.716  0.00  0.00    +0.000 C 
ATOM      9  H   UNL     1       5.950   3.135  19.929  0.00  0.00    +0.000 HD
ENDROOT
BRANCH   7  10
ATOM     10  C   UNL     1       2.337   4.080  17.368  0.00  0.00    +0.000 C 
ATOM     11  C   UNL     1       1.304   3.830  18.462  0.00  0.00    +0.000 C 
ENDBRANCH   7  10
BRANCH   1  12
ATOM     12  C   UNL     1       6.851   5.789  17.037  0.00  0.00    +0.000 C 
BRANCH  12  13
ATOM     13  O   UNL     1       7.654   6.917  16.705  0.00  0.00    +0.000 OA
BRANCH  13  15
ATOM     14  C   UNL     1       8.481   8.556  18.392  0.00  0.00    +0.000 C 
ATOM     15  C   UNL     1       7.416   8.142  17.391  0.00  0.00    +0.000 C 
ENDBRANCH  13  15
ENDBRANCH  12  13
ENDBRANCH   1  12
BRANCH   8  16
ATOM     16  S   UNL     1       3.417   7.056  17.070  0.00  0.00    +0.000 S 
BRANCH  16  17
ATOM     17  C   UNL     1       2.528   7.710  18.487  0.00  0.00    +0.000 A 
ATOM     18  C   UNL     1       1.811   8.911  18.515  0.00  0.00    +0.000 A 
ATOM     19  C   UNL     1       1.071   9.281  19.650  0.00  0.00    +0.000 A 
ATOM     20  C   UNL     1       1.049   8.459  20.774  0.00  0.00    +0.000 A 
ATOM     21  C   UNL     1       1.782   7.276  20.773  0.00  0.00    +0.000 A 
ATOM     22  C   UNL     1       2.515   6.907  19.642  0.00  0.00    +0.000 A 
ENDBRANCH  16  17
ENDBRANCH   8  16
TORSDOF 6
ENDMDL
