MODEL 1
REMARK VINA RESULT:      -7.1      0.000      0.000
REMARK  Name = 
REMARK  3 active torsions:
REMARK  status: ('A' for Active; 'I' for Inactive)
REMARK    1  A    between atoms: C_2  and  C_16
REMARK    2  A    between atoms: N_3  and  C_4
REMARK    3  A    between atoms: C_8  and  C_9
REMARK                            x       y       z     vdW  Elec       q    Type
REMARK                         _______ _______ _______ _____ _____    ______ ____
ROOT
ATOM      1  C   UNL     1       2.004   5.538  20.458  0.00  0.00    +0.000 A 
ATOM      2  C   UNL     1       1.336   4.310  20.460  0.00  0.00    +0.000 A 
ATOM      3  C   UNL     1       1.949   3.157  19.978  0.00  0.00    +0.000 A 
ATOM      4  C   UNL     1       3.248   3.214  19.486  0.00  0.00    +0.000 A 
ATOM      5  C   UNL     1       3.943   4.432  19.461  0.00  0.00    +0.000 A 
ATOM      6  C   UNL     1       3.298   5.597  19.926  0.00  0.00    +0.000 A 
ENDROOT
BRANCH   5   7
ATOM      7  C   UNL     1       5.378   4.468  18.989  0.00  0.00    +0.000 C 
ATOM      8  O   UNL     1       5.402   4.635  17.573  0.00  0.00    +0.000 OA
ATOM      9  C   UNL     1       6.743   4.647  17.095  0.00  0.00    +0.000 C 
ATOM     10  C   UNL     1       7.534   5.752  17.774  0.00  0.00    +0.000 C 
ATOM     11  C   UNL     1       7.404   5.617  19.282  0.00  0.00    +0.000 C 
ATOM     12  O   UNL     1       6.032   5.550  19.650  0.00  0.00    +0.000 OA
ENDBRANCH   5   7
BRANCH   1  15
ATOM     13  O   UNL     1       1.917   8.165  19.243  0.00  0.00    +0.000 OA
ATOM     14  C   UNL     1       1.452   7.966  20.361  0.00  0.00    +0.000 C 
ATOM     15  N   UNL     1       1.428   6.720  20.973  0.00  0.00    +0.000 N 
ATOM     16  H   UNL     1       0.858   6.639  21.808  0.00  0.00    +0.000 HD
BRANCH  14  17
ATOM     17  C   UNL     1       0.845   9.071  21.094  0.00  0.00    +0.000 A 
ATOM     18  C   UNL     1       0.267   8.967  22.349  0.00  0.00    +0.000 A 
ATOM     19  C   UNL     1      -0.295  10.190  22.802  0.00  0.00    +0.000 A 
ATOM     20  C   UNL     1      -0.129  11.197  21.876  0.00  0.00    +0.000 A 
ATOM     21  S   UNL     1       0.720  10.663  20.489  0.00  0.00    +0.000 S 
ENDBRANCH  14  17
ENDBRANCH   1  15
TORSDOF 3
ENDMDL
MODEL 2
REMARK VINA RESULT:      -7.1      0.831      1.311
REMARK  Name = 
REMARK  3 active torsions:
REMARK  status: ('A' for Active; 'I' for Inactive)
REMARK    1  A    between atoms: C_2  and  C_16
REMARK    2  A    between atoms: N_3  and  C_4
REMARK    3  A    between atoms: C_8  and  C_9
REMARK                            x       y       z     vdW  Elec       q    Type
REMARK                         _______ _______ _______ _____ _____    ______ ____
ROOT
ATOM      1  C   UNL     1       2.123   5.969  20.422  0.00  0.00    +0.000 A 
ATOM      2  C   UNL     1       1.731   4.647  20.653  0.00  0.00    +0.000 A 
ATOM      3  C   UNL     1       2.422   3.581  20.084  0.00  0.00    +0.000 A 
ATOM      4  C   UNL     1       3.526   3.822  19.274  0.00  0.00    +0.000 A 
ATOM      5  C   UNL     1       3.941   5.137  19.015  0.00  0.00    +0.000 A 
ATOM      6  C   UNL     1       3.212   6.207  19.575  0.00  0.00    +0.000 A 
ENDROOT
BRANCH   5   7
ATOM      7  C   UNL     1       5.183   5.384  18.190  0.00  0.00    +0.000 C 
ATOM      8  O   UNL     1       6.195   4.458  18.578  0.00  0.00    +0.000 OA
ATOM      9  C   UNL     1       7.388   4.683  17.835  0.00  0.00    +0.000 C 
ATOM     10  C   UNL     1       7.109   4.573  16.345  0.00  0.00    +0.000 C 
ATOM     11  C   UNL     1       5.953   5.488  15.975  0.00  0.00    +0.000 C 
ATOM     12  O   UNL     1       4.836   5.228  16.815  0.00  0.00    +0.000 OA
ENDBRANCH   5   7
BRANCH   1  15
ATOM     13  O   UNL     1       1.640   8.585  19.279  0.00  0.00    +0.000 OA
ATOM     14  C   UNL     1       1.301   8.321  20.428  0.00  0.00    +0.000 C 
ATOM     15  N   UNL     1       1.469   7.072  21.012  0.00  0.00    +0.000 N 
ATOM     16  H   UNL     1       0.988   6.917  21.891  0.00  0.00    +0.000 HD
BRANCH  14  17
ATOM     17  C   UNL     1       0.644   9.342  21.236  0.00  0.00    +0.000 A 
ATOM     18  C   UNL     1      -0.040   9.099  22.416  0.00  0.00    +0.000 A 
ATOM     19  C   UNL     1      -0.627  10.271  22.965  0.00  0.00    +0.000 A 
ATOM     20  C   UNL     1      -0.373  11.377  22.186  0.00  0.00    +0.000 A 
ATOM     21  S   UNL     1       0.587  10.997  20.820  0.00  0.00    +0.000 S 
ENDBRANCH  14  17
ENDBRANCH   1  15
TORSDOF 3
ENDMDL
MODEL 3
REMARK VINA RESULT:      -7.1      4.292      5.987
REMARK  Name = 
REMARK  3 active torsions:
REMARK  status: ('A' for Active; 'I' for Inactive)
REMARK    1  A    between atoms: C_2  and  C_16
REMARK    2  A    between atoms: N_3  and  C_4
REMARK    3  A    between atoms: C_8  and  C_9
REMARK                            x       y       z     vdW  Elec       q    Type
REMARK                         _______ _______ _______ _____ _____    ______ ____
ROOT
ATOM      1  C   UNL     1       5.305   5.179  17.858  0.00  0.00    +0.000 A 
ATOM      2  C   UNL     1       6.363   5.926  18.384  0.00  0.00    +0.000 A 
ATOM      3  C   UNL     1       7.407   6.366  17.575  0.00  0.00    +0.000 A 
ATOM      4  C   UNL     1       7.407   6.068  16.217  0.00  0.00    +0.000 A 
ATOM      5  C   UNL     1       6.365   5.313  15.659  0.00  0.00    +0.000 A 
ATOM      6  C   UNL     1       5.330   4.849  16.497  0.00  0.00    +0.000 A 
ENDROOT
BRANCH   5   7
ATOM      7  C   UNL     1       6.341   5.054  14.169  0.00  0.00    +0.000 C 
ATOM      8  O   UNL     1       7.622   5.353  13.620  0.00  0.00    +0.000 OA
ATOM      9  C   UNL     1       7.622   5.143  12.212  0.00  0.00    +0.000 C 
ATOM     10  C   UNL     1       7.228   3.711  11.894  0.00  0.00    +0.000 C 
ATOM     11  C   UNL     1       5.913   3.380  12.580  0.00  0.00    +0.000 C 
ATOM     12  O   UNL     1       5.995   3.685  13.967  0.00  0.00    +0.000 OA
ENDBRANCH   5   7
BRANCH   1  15
ATOM     13  O   UNL     1       5.189   2.946  19.697  0.00  0.00    +0.000 OA
ATOM     14  C   UNL     1       4.202   3.641  19.479  0.00  0.00    +0.000 C 
ATOM     15  N   UNL     1       4.212   4.749  18.640  0.00  0.00    +0.000 N 
ATOM     16  H   UNL     1       3.398   5.352  18.680  0.00  0.00    +0.000 HD
BRANCH  14  17
ATOM     17  C   UNL     1       2.946   3.340  20.155  0.00  0.00    +0.000 A 
ATOM     18  C   UNL     1       2.839   2.721  21.390  0.00  0.00    +0.000 A 
ATOM     19  C   UNL     1       1.492   2.502  21.783  0.00  0.00    +0.000 A 
ATOM     20  C   UNL     1       0.606   2.962  20.835  0.00  0.00    +0.000 A 
ATOM     21  S   UNL     1       1.405   3.671  19.497  0.00  0.00    +0.000 S 
ENDBRANCH  14  17
ENDBRANCH   1  15
TORSDOF 3
ENDMDL
MODEL 4
REMARK VINA RESULT:      -7.0      3.897      5.796
REMARK  Name = 
REMARK  3 active torsions:
REMARK  status: ('A' for Active; 'I' for Inactive)
REMARK    1  A    between atoms: C_2  and  C_16
REMARK    2  A    between atoms: N_3  and  C_4
REMARK    3  A    between atoms: C_8  and  C_9
REMARK                            x       y       z     vdW  Elec       q    Type
REMARK                         _______ _______ _______ _____ _____    ______ ____
ROOT
ATOM      1  C   UNL     1       5.759   4.887  18.186  0.00  0.00    +0.000 A 
ATOM      2  C   UNL     1       6.701   5.788  18.689  0.00  0.00    +0.000 A 
ATOM      3  C   UNL     1       7.584   6.454  17.843  0.00  0.00    +0.000 A 
ATOM      4  C   UNL     1       7.535   6.230  16.472  0.00  0.00    +0.000 A 
ATOM      5  C   UNL     1       6.608   5.325  15.935  0.00  0.00    +0.000 A 
ATOM      6  C   UNL     1       5.740   4.636  16.808  0.00  0.00    +0.000 A 
ENDROOT
BRANCH   5   7
ATOM      7  C   UNL     1       6.518   5.141  14.438  0.00  0.00    +0.000 C 
ATOM      8  O   UNL     1       7.794   5.398  13.856  0.00  0.00    +0.000 OA
ATOM      9  C   UNL     1       7.734   5.258  12.441  0.00  0.00    +0.000 C 
ATOM     10  C   UNL     1       7.251   3.866  12.070  0.00  0.00    +0.000 C 
ATOM     11  C   UNL     1       5.944   3.573  12.788  0.00  0.00    +0.000 C 
ATOM     12  O   UNL     1       6.090   3.804  14.183  0.00  0.00    +0.000 OA
ENDBRANCH   5   7
BRANCH   1  15
ATOM     13  O   UNL     1       3.071   5.717  18.873  0.00  0.00    +0.000 OA
ATOM     14  C   UNL     1       3.557   4.690  19.337  0.00  0.00    +0.000 C 
ATOM     15  N   UNL     1       4.824   4.223  19.009  0.00  0.00    +0.000 N 
ATOM     16  H   UNL     1       5.046   3.278  19.304  0.00  0.00    +0.000 HD
BRANCH  14  17
ATOM     17  C   UNL     1       2.770   3.871  20.252  0.00  0.00    +0.000 A 
ATOM     18  C   UNL     1       3.260   2.792  20.970  0.00  0.00    +0.000 A 
ATOM     19  C   UNL     1       2.260   2.143  21.742  0.00  0.00    +0.000 A 
ATOM     20  C   UNL     1       1.032   2.748  21.591  0.00  0.00    +0.000 A 
ATOM     21  S   UNL     1       1.103   4.100  20.542  0.00  0.00    +0.000 S 
ENDBRANCH  14  17
ENDBRANCH   1  15
TORSDOF 3
ENDMDL
MODEL 5
REMARK VINA RESULT:      -6.9      1.124      1.374
REMARK  Name = 
REMARK  3 active torsions:
REMARK  status: ('A' for Active; 'I' for Inactive)
REMARK    1  A    between atoms: C_2  and  C_16
REMARK    2  A    between atoms: N_3  and  C_4
REMARK    3  A    between atoms: C_8  and  C_9
REMARK                            x       y       z     vdW  Elec       q    Type
REMARK                         _______ _______ _______ _____ _____    ______ ____
ROOT
ATOM      1  C   UNL     1       2.480   5.191  20.553  0.00  0.00    +0.000 A 
ATOM      2  C   UNL     1       2.105   4.026  21.227  0.00  0.00    +0.000 A 
ATOM      3  C   UNL     1       2.737   2.811  20.971  0.00  0.00    +0.000 A 
ATOM      4  C   UNL     1       3.760   2.744  20.033  0.00  0.00    +0.000 A 
ATOM      5  C   UNL     1       4.154   3.893  19.332  0.00  0.00    +0.000 A 
ATOM      6  C   UNL     1       3.486   5.110  19.581  0.00  0.00    +0.000 A 
ENDROOT
BRANCH   5   7
ATOM      7  C   UNL     1       5.314   3.822  18.366  0.00  0.00    +0.000 C 
ATOM      8  O   UNL     1       4.860   4.177  17.062  0.00  0.00    +0.000 OA
ATOM      9  C   UNL     1       5.927   4.094  16.123  0.00  0.00    +0.000 C 
ATOM     10  C   UNL     1       7.075   4.994  16.550  0.00  0.00    +0.000 C 
ATOM     11  C   UNL     1       7.469   4.671  17.982  0.00  0.00    +0.000 C 
ATOM     12  O   UNL     1       6.325   4.718  18.826  0.00  0.00    +0.000 OA
ENDBRANCH   5   7
BRANCH   1  15
ATOM     13  O   UNL     1       2.317   7.492  18.802  0.00  0.00    +0.000 OA
ATOM     14  C   UNL     1       1.876   7.531  19.946  0.00  0.00    +0.000 C 
ATOM     15  N   UNL     1       1.889   6.447  20.813  0.00  0.00    +0.000 N 
ATOM     16  H   UNL     1       1.335   6.538  21.658  0.00  0.00    +0.000 HD
BRANCH  14  17
ATOM     17  C   UNL     1       1.259   8.758  20.437  0.00  0.00    +0.000 A 
ATOM     18  C   UNL     1       0.826   9.802  19.636  0.00  0.00    +0.000 A 
ATOM     19  C   UNL     1       0.314  10.896  20.383  0.00  0.00    +0.000 A 
ATOM     20  C   UNL     1       0.370  10.654  21.738  0.00  0.00    +0.000 A 
ATOM     21  S   UNL     1       1.015   9.108  22.090  0.00  0.00    +0.000 S 
ENDBRANCH  14  17
ENDBRANCH   1  15
TORSDOF 3
ENDMDL
MODEL 6
REMARK VINA RESULT:      -6.9      3.099      4.650
REMARK  Name = 
REMARK  3 active torsions:
REMARK  status: ('A' for Active; 'I' for Inactive)
REMARK    1  A    between atoms: C_2  and  C_16
REMARK    2  A    between atoms: N_3  and  C_4
REMARK    3  A    between atoms: C_8  and  C_9
REMARK                            x       y       z     vdW  Elec       q    Type
REMARK                         _______ _______ _______ _____ _____    ______ ____
ROOT
ATOM      1  C   UNL     1       5.075   6.335  17.481  0.00  0.00    +0.000 A 
ATOM      2  C   UNL     1       5.979   5.675  18.319  0.00  0.00    +0.000 A 
ATOM      3  C   UNL     1       6.919   4.785  17.805  0.00  0.00    +0.000 A 
ATOM      4  C   UNL     1       6.972   4.543  16.437  0.00  0.00    +0.000 A 
ATOM      5  C   UNL     1       6.073   5.182  15.570  0.00  0.00    +0.000 A 
ATOM      6  C   UNL     1       5.108   6.058  16.109  0.00  0.00    +0.000 A 
ENDROOT
BRANCH   5   7
ATOM      7  C   UNL     1       6.185   4.964  14.078  0.00  0.00    +0.000 C 
ATOM      8  O   UNL     1       7.510   5.280  13.657  0.00  0.00    +0.000 OA
ATOM      9  C   UNL     1       7.640   5.109  12.250  0.00  0.00    +0.000 C 
ATOM     10  C   UNL     1       7.282   3.685  11.858  0.00  0.00    +0.000 C 
ATOM     11  C   UNL     1       5.911   3.334  12.412  0.00  0.00    +0.000 C 
ATOM     12  O   UNL     1       5.866   3.600  13.808  0.00  0.00    +0.000 OA
ENDBRANCH   5   7
BRANCH   1  15
ATOM     13  O   UNL     1       2.436   5.830  18.560  0.00  0.00    +0.000 OA
ATOM     14  C   UNL     1       2.862   6.973  18.433  0.00  0.00    +0.000 C 
ATOM     15  N   UNL     1       4.135   7.272  17.962  0.00  0.00    +0.000 N 
ATOM     16  H   UNL     1       4.443   8.231  18.074  0.00  0.00    +0.000 HD
BRANCH  14  17
ATOM     17  C   UNL     1       2.027   8.101  18.830  0.00  0.00    +0.000 A 
ATOM     18  C   UNL     1       1.635   9.130  17.990  0.00  0.00    +0.000 A 
ATOM     19  C   UNL     1       0.869  10.124  18.656  0.00  0.00    +0.000 A 
ATOM     20  C   UNL     1       0.697   9.823  19.988  0.00  0.00    +0.000 A 
ATOM     21  S   UNL     1       1.439   8.340  20.415  0.00  0.00    +0.000 S 
ENDBRANCH  14  17
ENDBRANCH   1  15
TORSDOF 3
ENDMDL
MODEL 7
REMARK VINA RESULT:      -6.9      2.511      3.966
REMARK  Name = 
REMARK  3 active torsions:
REMARK  status: ('A' for Active; 'I' for Inactive)
REMARK    1  A    between atoms: C_2  and  C_16
REMARK    2  A    between atoms: N_3  and  C_4
REMARK    3  A    between atoms: C_8  and  C_9
REMARK                            x       y       z     vdW  Elec       q    Type
REMARK                         _______ _______ _______ _____ _____    ______ ____
ROOT
ATOM      1  C   UNL     1       1.440   8.715  19.584  0.00  0.00    +0.000 A 
ATOM      2  C   UNL     1       2.043   8.977  18.350  0.00  0.00    +0.000 A 
ATOM      3  C   UNL     1       2.847   8.027  17.726  0.00  0.00    +0.000 A 
ATOM      4  C   UNL     1       3.060   6.792  18.328  0.00  0.00    +0.000 A 
ATOM      5  C   UNL     1       2.478   6.501  19.570  0.00  0.00    +0.000 A 
ATOM      6  C   UNL     1       1.689   7.484  20.204  0.00  0.00    +0.000 A 
ENDROOT
BRANCH   5   7
ATOM      7  C   UNL     1       2.660   5.131  20.181  0.00  0.00    +0.000 C 
ATOM      8  O   UNL     1       1.416   4.687  20.717  0.00  0.00    +0.000 OA
ATOM      9  C   UNL     1       1.562   3.408  21.324  0.00  0.00    +0.000 C 
ATOM     10  C   UNL     1       2.094   2.404  20.315  0.00  0.00    +0.000 C 
ATOM     11  C   UNL     1       3.362   2.948  19.677  0.00  0.00    +0.000 C 
ATOM     12  O   UNL     1       3.129   4.252  19.160  0.00  0.00    +0.000 OA
ENDBRANCH   5   7
BRANCH   1  15
ATOM     13  O   UNL     1       1.632   9.747  22.282  0.00  0.00    +0.000 OA
ATOM     14  C   UNL     1       0.707  10.068  21.543  0.00  0.00    +0.000 C 
ATOM     15  N   UNL     1       0.589   9.638  20.228  0.00  0.00    +0.000 N 
ATOM     16  H   UNL     1      -0.106  10.110  19.660  0.00  0.00    +0.000 HD
BRANCH  14  17
ATOM     17  C   UNL     1      -0.317  10.986  22.030  0.00  0.00    +0.000 A 
ATOM     18  C   UNL     1      -1.174  10.727  23.087  0.00  0.00    +0.000 A 
ATOM     19  C   UNL     1      -2.107  11.775  23.310  0.00  0.00    +0.000 A 
ATOM     20  C   UNL     1      -1.935  12.806  22.414  0.00  0.00    +0.000 A 
ATOM     21  S   UNL     1      -0.639  12.511  21.334  0.00  0.00    +0.000 S 
ENDBRANCH  14  17
ENDBRANCH   1  15
TORSDOF 3
ENDMDL
MODEL 8
REMARK VINA RESULT:      -6.9      1.014      1.185
REMARK  Name = 
REMARK  3 active torsions:
REMARK  status: ('A' for Active; 'I' for Inactive)
REMARK    1  A    between atoms: C_2  and  C_16
REMARK    2  A    between atoms: N_3  and  C_4
REMARK    3  A    between atoms: C_8  and  C_9
REMARK                            x       y       z     vdW  Elec       q    Type
REMARK                         _______ _______ _______ _____ _____    ______ ____
ROOT
ATOM      1  C   UNL     1       2.127   5.935  20.450  0.00  0.00    +0.000 A 
ATOM      2  C   UNL     1       1.637   4.635  20.601  0.00  0.00    +0.000 A 
ATOM      3  C   UNL     1       2.349   3.537  20.124  0.00  0.00    +0.000 A 
ATOM      4  C   UNL     1       3.571   3.723  19.489  0.00  0.00    +0.000 A 
ATOM      5  C   UNL     1       4.088   5.016  19.314  0.00  0.00    +0.000 A 
ATOM      6  C   UNL     1       3.341   6.119  19.776  0.00  0.00    +0.000 A 
ENDROOT
BRANCH   5   7
ATOM      7  C   UNL     1       5.449   5.201  18.684  0.00  0.00    +0.000 C 
ATOM      8  O   UNL     1       5.409   6.318  17.799  0.00  0.00    +0.000 OA
ATOM      9  C   UNL     1       6.673   6.502  17.170  0.00  0.00    +0.000 C 
ATOM     10  C   UNL     1       7.758   6.691  18.217  0.00  0.00    +0.000 C 
ATOM     11  C   UNL     1       7.711   5.544  19.212  0.00  0.00    +0.000 C 
ATOM     12  O   UNL     1       6.395   5.403  19.733  0.00  0.00    +0.000 OA
ENDBRANCH   5   7
BRANCH   1  15
ATOM     13  O   UNL     1       1.774   8.516  19.187  0.00  0.00    +0.000 OA
ATOM     14  C   UNL     1       1.349   8.298  20.317  0.00  0.00    +0.000 C 
ATOM     15  N   UNL     1       1.452   7.068  20.953  0.00  0.00    +0.000 N 
ATOM     16  H   UNL     1       0.906   6.951  21.800  0.00  0.00    +0.000 HD
BRANCH  14  17
ATOM     17  C   UNL     1       0.653   9.356  21.040  0.00  0.00    +0.000 A 
ATOM     18  C   UNL     1       0.635  10.690  20.668  0.00  0.00    +0.000 A 
ATOM     19  C   UNL     1      -0.076  11.510  21.585  0.00  0.00    +0.000 A 
ATOM     20  C   UNL     1      -0.581  10.775  22.634  0.00  0.00    +0.000 A 
ATOM     21  S   UNL     1      -0.215   9.109  22.490  0.00  0.00    +0.000 S 
ENDBRANCH  14  17
ENDBRANCH   1  15
TORSDOF 3
ENDMDL
MODEL 9
REMARK VINA RESULT:      -6.8      3.340      7.530
REMARK  Name = 
REMARK  3 active torsions:
REMARK  status: ('A' for Active; 'I' for Inactive)
REMARK    1  A    between atoms: C_2  and  C_16
REMARK    2  A    between atoms: N_3  and  C_4
REMARK    3  A    between atoms: C_8  and  C_9
REMARK                            x       y       z     vdW  Elec       q    Type
REMARK                         _______ _______ _______ _____ _____    ______ ____
ROOT
ATOM      1  C   UNL     1       2.257   7.394  19.018  0.00  0.00    +0.000 A 
ATOM      2  C   UNL     1       2.285   8.120  17.824  0.00  0.00    +0.000 A 
ATOM      3  C   UNL     1       1.812   9.429  17.766  0.00  0.00    +0.000 A 
ATOM      4  C   UNL     1       1.304  10.035  18.909  0.00  0.00    +0.000 A 
ATOM      5  C   UNL     1       1.252   9.331  20.121  0.00  0.00    +0.000 A 
ATOM      6  C   UNL     1       1.708   7.997  20.157  0.00  0.00    +0.000 A 
ENDROOT
BRANCH   5   7
ATOM      7  C   UNL     1       0.762  10.025  21.371  0.00  0.00    +0.000 C 
ATOM      8  O   UNL     1      -0.032  11.150  21.003  0.00  0.00    +0.000 OA
ATOM      9  C   UNL     1      -0.487  11.840  22.162  0.00  0.00    +0.000 C 
ATOM     10  C   UNL     1      -1.279  10.901  23.056  0.00  0.00    +0.000 C 
ATOM     11  C   UNL     1      -0.454   9.658  23.345  0.00  0.00    +0.000 C 
ATOM     12  O   UNL     1       0.006   9.082  22.129  0.00  0.00    +0.000 OA
ENDBRANCH   5   7
BRANCH   1  15
ATOM     13  O   UNL     1       1.396   5.025  17.593  0.00  0.00    +0.000 OA
ATOM     14  C   UNL     1       2.281   4.970  18.441  0.00  0.00    +0.000 C 
ATOM     15  N   UNL     1       2.762   6.080  19.124  0.00  0.00    +0.000 N 
ATOM     16  H   UNL     1       3.612   5.946  19.660  0.00  0.00    +0.000 HD
BRANCH  14  17
ATOM     17  C   UNL     1       2.912   3.690  18.740  0.00  0.00    +0.000 A 
ATOM     18  C   UNL     1       3.880   3.492  19.711  0.00  0.00    +0.000 A 
ATOM     19  C   UNL     1       4.358   2.154  19.749  0.00  0.00    +0.000 A 
ATOM     20  C   UNL     1       3.738   1.368  18.804  0.00  0.00    +0.000 A 
ATOM     21  S   UNL     1       2.575   2.241  17.900  0.00  0.00    +0.000 S 
ENDBRANCH  14  17
ENDBRANCH   1  15
TORSDOF 3
ENDMDL
