MODEL 1
REMARK VINA RESULT:      -9.4      0.000      0.000
REMARK  Name = 
REMARK  6 active torsions:
REMARK  status: ('A' for Active; 'I' for Inactive)
REMARK    1  A    between atoms: C_1  and  C_2
REMARK    2  A    between atoms: C_5  and  C_6
REMARK    3  A    between atoms: C_6  and  N_7
REMARK    4  A    between atoms: C_8  and  C_10
REMARK    5  A    between atoms: C_12  and  N_13
REMARK    6  A    between atoms: N_18  and  C_19
REMARK                            x       y       z     vdW  Elec       q    Type
REMARK                         _______ _______ _______ _____ _____    ______ ____
ROOT
ATOM      1  C   UNL     1       3.998   3.610  19.914  0.00  0.00    +0.000 C 
ATOM      2  C   UNL     1       4.343   2.112  19.898  0.00  0.00    +0.000 C 
ATOM      3  C   UNL     1       3.119   1.456  19.248  0.00  0.00    +0.000 C 
ATOM      4  C   UNL     1       1.978   2.308  19.821  0.00  0.00    +0.000 C 
ATOM      5  N   UNL     1       2.532   3.648  19.890  0.00  0.00    +0.000 N 
ATOM      6  C   UNL     1       1.718   4.724  20.187  0.00  0.00    +0.000 C 
ATOM      7  O   UNL     1       0.537   4.559  20.474  0.00  0.00    +0.000 OA
ATOM      8  N   UNL     1       2.352   5.947  20.099  0.00  0.00    +0.000 N 
ATOM      9  H   UNL     1       3.162   5.998  19.499  0.00  0.00    +0.000 HD
ENDROOT
BRANCH   8  10
ATOM     10  C   UNL     1       1.780   7.171  20.397  0.00  0.00    +0.000 A 
ATOM     11  C   UNL     1       1.121   7.520  21.544  0.00  0.00    +0.000 A 
ATOM     12  N   UNL     1       0.751   8.852  21.485  0.00  0.00    +0.000 N 
ATOM     13  C   UNL     1       0.107   9.558  22.505  0.00  0.00    +0.000 C 
ATOM     14  N   UNL     1      -0.915   8.839  23.057  0.00  0.00    +0.000 N 
ATOM     15  O   UNL     1       0.414  10.710  22.784  0.00  0.00    +0.000 OA
ATOM     16  C   UNL     1       1.151   9.352  20.243  0.00  0.00    +0.000 A 
ATOM     17  C   UNL     1       0.932  10.618  19.661  0.00  0.00    +0.000 A 
ATOM     18  C   UNL     1       1.371  10.821  18.339  0.00  0.00    +0.000 A 
ATOM     19  C   UNL     1       2.010   9.809  17.640  0.00  0.00    +0.000 A 
ATOM     20  C   UNL     1       2.230   8.562  18.225  0.00  0.00    +0.000 A 
ATOM     21  C   UNL     1       1.775   8.316  19.545  0.00  0.00    +0.000 A 
ATOM     22  H   UNL     1      -1.319   8.048  22.566  0.00  0.00    +0.000 HD
ATOM     23  H   UNL     1      -1.508   9.322  23.719  0.00  0.00    +0.000 HD
ENDBRANCH   8  10
BRANCH   1  25
ATOM     24  N   UNL     1       5.965   4.036  18.513  0.00  0.00    +0.000 N 
ATOM     25  C   UNL     1       4.631   4.318  18.703  0.00  0.00    +0.000 C 
ATOM     26  O   UNL     1       4.010   5.111  17.997  0.00  0.00    +0.000 OA
ATOM     27  H   UNL     1       6.480   3.560  19.240  0.00  0.00    +0.000 HD
BRANCH  24  28
ATOM     28  C   UNL     1       6.710   4.614  17.420  0.00  0.00    +0.000 C 
BRANCH  28  33
ATOM     29  C   UNL     1       8.845   9.906  18.577  0.00  0.00    +0.000 C 
ATOM     30  C   UNL     1       8.268   8.549  18.307  0.00  0.00    +0.000 A 
ATOM     31  C   UNL     1       8.557   7.471  19.146  0.00  0.00    +0.000 A 
ATOM     32  C   UNL     1       8.039   6.200  18.868  0.00  0.00    +0.000 A 
ATOM     33  C   UNL     1       7.219   5.990  17.750  0.00  0.00    +0.000 A 
ATOM     34  C   UNL     1       6.915   7.080  16.925  0.00  0.00    +0.000 A 
ATOM     35  C   UNL     1       7.442   8.346  17.200  0.00  0.00    +0.000 A 
ENDBRANCH  28  33
ENDBRANCH  24  28
ENDBRANCH   1  25
BRANCH   3  36
ATOM     36  N   UNL     1       3.208   1.522  17.782  0.00  0.00    +0.000 NA
ATOM     37  H   UNL     1       2.847   0.660  17.363  0.00  0.00    +0.000 HD
ATOM     38  H   UNL     1       4.193   1.526  17.508  0.00  0.00    +0.000 HD
ENDBRANCH   3  36
TORSDOF 5
ENDMDL
MODEL 2
REMARK VINA RESULT:      -9.1      1.659      2.790
REMARK  Name = 
REMARK  6 active torsions:
REMARK  status: ('A' for Active; 'I' for Inactive)
REMARK    1  A    between atoms: C_1  and  C_2
REMARK    2  A    between atoms: C_5  and  C_6
REMARK    3  A    between atoms: C_6  and  N_7
REMARK    4  A    between atoms: C_8  and  C_10
REMARK    5  A    between atoms: C_12  and  N_13
REMARK    6  A    between atoms: N_18  and  C_19
REMARK                            x       y       z     vdW  Elec       q    Type
REMARK                         _______ _______ _______ _____ _____    ______ ____
ROOT
ATOM      1  C   UNL     1       4.249   3.867  20.068  0.00  0.00    +0.000 C 
ATOM      2  C   UNL     1       4.639   2.382  19.988  0.00  0.00    +0.000 C 
ATOM      3  C   UNL     1       3.581   1.769  19.064  0.00  0.00    +0.000 C 
ATOM      4  C   UNL     1       2.325   2.548  19.481  0.00  0.00    +0.000 C 
ATOM      5  N   UNL     1       2.814   3.885  19.770  0.00  0.00    +0.000 N 
ATOM      6  C   UNL     1       1.923   4.916  19.999  0.00  0.00    +0.000 C 
ATOM      7  O   UNL     1       0.715   4.708  20.041  0.00  0.00    +0.000 OA
ATOM      8  N   UNL     1       2.523   6.152  20.138  0.00  0.00    +0.000 N 
ATOM      9  H   UNL     1       3.429   6.270  19.710  0.00  0.00    +0.000 HD
ENDROOT
BRANCH   8  10
ATOM     10  C   UNL     1       1.866   7.335  20.427  0.00  0.00    +0.000 A 
ATOM     11  C   UNL     1       1.210   7.657  21.584  0.00  0.00    +0.000 A 
ATOM     12  N   UNL     1       0.738   8.955  21.508  0.00  0.00    +0.000 N 
ATOM     13  C   UNL     1       0.066   9.632  22.531  0.00  0.00    +0.000 C 
ATOM     14  N   UNL     1      -0.884   8.849  23.123  0.00  0.00    +0.000 N 
ATOM     15  O   UNL     1       0.290  10.810  22.778  0.00  0.00    +0.000 OA
ATOM     16  C   UNL     1       1.067   9.458  20.247  0.00  0.00    +0.000 A 
ATOM     17  C   UNL     1       0.737  10.691  19.646  0.00  0.00    +0.000 A 
ATOM     18  C   UNL     1       1.127  10.898  18.309  0.00  0.00    +0.000 A 
ATOM     19  C   UNL     1       1.825   9.923  17.614  0.00  0.00    +0.000 A 
ATOM     20  C   UNL     1       2.155   8.709  18.217  0.00  0.00    +0.000 A 
ATOM     21  C   UNL     1       1.753   8.458  19.553  0.00  0.00    +0.000 A 
ATOM     22  H   UNL     1      -1.237   8.019  22.658  0.00  0.00    +0.000 HD
ATOM     23  H   UNL     1      -1.496   9.299  23.790  0.00  0.00    +0.000 HD
ENDBRANCH   8  10
BRANCH   1  25
ATOM     24  N   UNL     1       6.260   4.102  18.683  0.00  0.00    +0.000 N 
ATOM     25  C   UNL     1       5.074   4.692  19.064  0.00  0.00    +0.000 C 
ATOM     26  O   UNL     1       4.730   5.807  18.678  0.00  0.00    +0.000 OA
ATOM     27  H   UNL     1       6.600   3.299  19.191  0.00  0.00    +0.000 HD
BRANCH  24  28
ATOM     28  C   UNL     1       7.151   4.740  17.744  0.00  0.00    +0.000 C 
BRANCH  28  33
ATOM     29  C   UNL     1       5.707   3.570  12.226  0.00  0.00    +0.000 C 
ATOM     30  C   UNL     1       6.061   3.907  13.644  0.00  0.00    +0.000 A 
ATOM     31  C   UNL     1       7.128   4.761  13.930  0.00  0.00    +0.000 A 
ATOM     32  C   UNL     1       7.470   5.044  15.258  0.00  0.00    +0.000 A 
ATOM     33  C   UNL     1       6.746   4.481  16.319  0.00  0.00    +0.000 A 
ATOM     34  C   UNL     1       5.664   3.643  16.025  0.00  0.00    +0.000 A 
ATOM     35  C   UNL     1       5.330   3.355  14.697  0.00  0.00    +0.000 A 
ENDBRANCH  28  33
ENDBRANCH  24  28
ENDBRANCH   1  25
BRANCH   3  36
ATOM     36  N   UNL     1       3.940   1.970  17.653  0.00  0.00    +0.000 NA
ATOM     37  H   UNL     1       3.510   2.826  17.292  0.00  0.00    +0.000 HD
ATOM     38  H   UNL     1       3.508   1.232  17.092  0.00  0.00    +0.000 HD
ENDBRANCH   3  36
TORSDOF 5
ENDMDL
MODEL 3
REMARK VINA RESULT:      -8.8      3.358      8.355
REMARK  Name = 
REMARK  6 active torsions:
REMARK  status: ('A' for Active; 'I' for Inactive)
REMARK    1  A    between atoms: C_1  and  C_2
REMARK    2  A    between atoms: C_5  and  C_6
REMARK    3  A    between atoms: C_6  and  N_7
REMARK    4  A    between atoms: C_8  and  C_10
REMARK    5  A    between atoms: C_12  and  N_13
REMARK    6  A    between atoms: N_18  and  C_19
REMARK                            x       y       z     vdW  Elec       q    Type
REMARK                         _______ _______ _______ _____ _____    ______ ____
ROOT
ATOM      1  C   UNL     1       0.504   9.743  19.143  0.00  0.00    +0.000 C 
ATOM      2  C   UNL     1      -0.524  10.544  19.959  0.00  0.00    +0.000 C 
ATOM      3  C   UNL     1       0.019  10.494  21.392  0.00  0.00    +0.000 C 
ATOM      4  C   UNL     1       0.591   9.071  21.452  0.00  0.00    +0.000 C 
ATOM      5  N   UNL     1       1.129   8.846  20.122  0.00  0.00    +0.000 N 
ATOM      6  C   UNL     1       1.896   7.726  19.861  0.00  0.00    +0.000 C 
ATOM      7  O   UNL     1       2.070   6.868  20.720  0.00  0.00    +0.000 OA
ATOM      8  N   UNL     1       2.440   7.704  18.593  0.00  0.00    +0.000 N 
ATOM      9  H   UNL     1       2.562   8.594  18.134  0.00  0.00    +0.000 HD
ENDROOT
BRANCH   8  10
ATOM     10  C   UNL     1       3.199   6.675  18.063  0.00  0.00    +0.000 A 
ATOM     11  C   UNL     1       4.442   6.766  17.502  0.00  0.00    +0.000 A 
ATOM     12  N   UNL     1       4.890   5.506  17.147  0.00  0.00    +0.000 N 
ATOM     13  C   UNL     1       6.142   5.219  16.595  0.00  0.00    +0.000 C 
ATOM     14  N   UNL     1       6.481   6.102  15.610  0.00  0.00    +0.000 N 
ATOM     15  O   UNL     1       6.787   4.236  16.939  0.00  0.00    +0.000 OA
ATOM     16  C   UNL     1       3.880   4.591  17.455  0.00  0.00    +0.000 A 
ATOM     17  C   UNL     1       3.805   3.204  17.209  0.00  0.00    +0.000 A 
ATOM     18  C   UNL     1       2.612   2.538  17.546  0.00  0.00    +0.000 A 
ATOM     19  C   UNL     1       1.550   3.226  18.114  0.00  0.00    +0.000 A 
ATOM     20  C   UNL     1       1.634   4.596  18.361  0.00  0.00    +0.000 A 
ATOM     21  C   UNL     1       2.812   5.301  18.008  0.00  0.00    +0.000 A 
ATOM     22  H   UNL     1       5.773   6.672  15.157  0.00  0.00    +0.000 HD
ATOM     23  H   UNL     1       7.315   5.895  15.077  0.00  0.00    +0.000 HD
ENDBRANCH   8  10
BRANCH   1  25
ATOM     24  N   UNL     1       1.378  12.014  18.840  0.00  0.00    +0.000 N 
ATOM     25  C   UNL     1       1.516  10.692  18.478  0.00  0.00    +0.000 C 
ATOM     26  O   UNL     1       2.342  10.310  17.651  0.00  0.00    +0.000 OA
ATOM     27  H   UNL     1       0.554  12.306  19.345  0.00  0.00    +0.000 HD
BRANCH  24  28
ATOM     28  C   UNL     1       2.249  13.035  18.311  0.00  0.00    +0.000 C 
BRANCH  28  33
ATOM     29  C   UNL     1      -0.055  18.365  18.746  0.00  0.00    +0.000 C 
ATOM     30  C   UNL     1       0.554  16.997  18.671  0.00  0.00    +0.000 A 
ATOM     31  C   UNL     1       1.912  16.834  18.392  0.00  0.00    +0.000 A 
ATOM     32  C   UNL     1       2.465  15.551  18.292  0.00  0.00    +0.000 A 
ATOM     33  C   UNL     1       1.667  14.412  18.475  0.00  0.00    +0.000 A 
ATOM     34  C   UNL     1       0.310  14.583  18.775  0.00  0.00    +0.000 A 
ATOM     35  C   UNL     1      -0.241  15.866  18.865  0.00  0.00    +0.000 A 
ENDBRANCH  28  33
ENDBRANCH  24  28
ENDBRANCH   1  25
BRANCH   3  36
ATOM     36  N   UNL     1       1.038  11.534  21.601  0.00  0.00    +0.000 NA
ATOM     37  H   UNL     1       1.865  11.344  21.028  0.00  0.00    +0.000 HD
ATOM     38  H   UNL     1       1.390  11.466  22.558  0.00  0.00    +0.000 HD
ENDBRANCH   3  36
TORSDOF 5
ENDMDL
MODEL 4
REMARK VINA RESULT:      -8.6      2.278      3.350
REMARK  Name = 
REMARK  6 active torsions:
REMARK  status: ('A' for Active; 'I' for Inactive)
REMARK    1  A    between atoms: C_1  and  C_2
REMARK    2  A    between atoms: C_5  and  C_6
REMARK    3  A    between atoms: C_6  and  N_7
REMARK    4  A    between atoms: C_8  and  C_10
REMARK    5  A    between atoms: C_12  and  N_13
REMARK    6  A    between atoms: N_18  and  C_19
REMARK                            x       y       z     vdW  Elec       q    Type
REMARK                         _______ _______ _______ _____ _____    ______ ____
ROOT
ATOM      1  C   UNL     1       4.571   5.210  19.479  0.00  0.00    +0.000 C 
ATOM      2  C   UNL     1       5.312   3.866  19.397  0.00  0.00    +0.000 C 
ATOM      3  C   UNL     1       4.225   2.866  18.990  0.00  0.00    +0.000 C 
ATOM      4  C   UNL     1       3.014   3.399  19.768  0.00  0.00    +0.000 C 
ATOM      5  N   UNL     1       3.173   4.842  19.731  0.00  0.00    +0.000 N 
ATOM      6  C   UNL     1       2.158   5.666  20.178  0.00  0.00    +0.000 C 
ATOM      7  O   UNL     1       1.142   5.198  20.682  0.00  0.00    +0.000 OA
ATOM      8  N   UNL     1       2.397   7.011  19.971  0.00  0.00    +0.000 N 
ATOM      9  H   UNL     1       3.037   7.250  19.230  0.00  0.00    +0.000 HD
ENDROOT
BRANCH   8  10
ATOM     10  C   UNL     1       1.568   8.043  20.373  0.00  0.00    +0.000 A 
ATOM     11  C   UNL     1       1.236   8.388  21.654  0.00  0.00    +0.000 A 
ATOM     12  N   UNL     1       0.434   9.516  21.642  0.00  0.00    +0.000 N 
ATOM     13  C   UNL     1      -0.049  10.177  22.776  0.00  0.00    +0.000 C 
ATOM     14  N   UNL     1      -0.527   9.303  23.711  0.00  0.00    +0.000 N 
ATOM     15  O   UNL     1      -0.083  11.399  22.843  0.00  0.00    +0.000 OA
ATOM     16  C   UNL     1       0.216   9.872  20.309  0.00  0.00    +0.000 A 
ATOM     17  C   UNL     1      -0.598  10.886  19.761  0.00  0.00    +0.000 A 
ATOM     18  C   UNL     1      -0.704  10.960  18.359  0.00  0.00    +0.000 A 
ATOM     19  C   UNL     1      -0.018  10.071  17.546  0.00  0.00    +0.000 A 
ATOM     20  C   UNL     1       0.792   9.076  18.095  0.00  0.00    +0.000 A 
ATOM     21  C   UNL     1       0.898   8.957  19.504  0.00  0.00    +0.000 A 
ATOM     22  H   UNL     1      -0.771   8.351  23.456  0.00  0.00    +0.000 HD
ATOM     23  H   UNL     1      -1.004   9.703  24.508  0.00  0.00    +0.000 HD
ENDBRANCH   8  10
BRANCH   1  25
ATOM     24  N   UNL     1       5.869   5.656  17.447  0.00  0.00    +0.000 N 
ATOM     25  C   UNL     1       4.749   6.000  18.170  0.00  0.00    +0.000 C 
ATOM     26  O   UNL     1       3.984   6.900  17.828  0.00  0.00    +0.000 OA
ATOM     27  H   UNL     1       6.576   5.075  17.874  0.00  0.00    +0.000 HD
BRANCH  24  28
ATOM     28  C   UNL     1       6.184   6.297  16.193  0.00  0.00    +0.000 C 
BRANCH  28  33
ATOM     29  C   UNL     1       6.140   2.672  11.637  0.00  0.00    +0.000 C 
ATOM     30  C   UNL     1       6.159   3.575  12.834  0.00  0.00    +0.000 A 
ATOM     31  C   UNL     1       5.062   3.641  13.695  0.00  0.00    +0.000 A 
ATOM     32  C   UNL     1       5.077   4.511  14.793  0.00  0.00    +0.000 A 
ATOM     33  C   UNL     1       6.191   5.322  15.048  0.00  0.00    +0.000 A 
ATOM     34  C   UNL     1       7.297   5.235  14.193  0.00  0.00    +0.000 A 
ATOM     35  C   UNL     1       7.275   4.372  13.092  0.00  0.00    +0.000 A 
ENDBRANCH  28  33
ENDBRANCH  24  28
ENDBRANCH   1  25
BRANCH   3  36
ATOM     36  N   UNL     1       4.024   2.877  17.534  0.00  0.00    +0.000 NA
ATOM     37  H   UNL     1       3.484   2.057  17.241  0.00  0.00    +0.000 HD
ATOM     38  H   UNL     1       4.927   2.743  17.073  0.00  0.00    +0.000 HD
ENDBRANCH   3  36
TORSDOF 5
ENDMDL
MODEL 5
REMARK VINA RESULT:      -8.5      3.331      8.083
REMARK  Name = 
REMARK  6 active torsions:
REMARK  status: ('A' for Active; 'I' for Inactive)
REMARK    1  A    between atoms: C_1  and  C_2
REMARK    2  A    between atoms: C_5  and  C_6
REMARK    3  A    between atoms: C_6  and  N_7
REMARK    4  A    between atoms: C_8  and  C_10
REMARK    5  A    between atoms: C_12  and  N_13
REMARK    6  A    between atoms: N_18  and  C_19
REMARK                            x       y       z     vdW  Elec       q    Type
REMARK                         _______ _______ _______ _____ _____    ______ ____
ROOT
ATOM      1  C   UNL     1       0.491   9.767  19.098  0.00  0.00    +0.000 C 
ATOM      2  C   UNL     1      -0.522  10.583  19.917  0.00  0.00    +0.000 C 
ATOM      3  C   UNL     1       0.055  10.576  21.337  0.00  0.00    +0.000 C 
ATOM      4  C   UNL     1       0.640   9.159  21.421  0.00  0.00    +0.000 C 
ATOM      5  N   UNL     1       1.147   8.902  20.084  0.00  0.00    +0.000 N 
ATOM      6  C   UNL     1       1.916   7.781  19.835  0.00  0.00    +0.000 C 
ATOM      7  O   UNL     1       2.117   6.948  20.713  0.00  0.00    +0.000 OA
ATOM      8  N   UNL     1       2.430   7.729  18.555  0.00  0.00    +0.000 N 
ATOM      9  H   UNL     1       2.534   8.607  18.069  0.00  0.00    +0.000 HD
ENDROOT
BRANCH   8  10
ATOM     10  C   UNL     1       3.183   6.691  18.035  0.00  0.00    +0.000 A 
ATOM     11  C   UNL     1       4.425   6.772  17.468  0.00  0.00    +0.000 A 
ATOM     12  N   UNL     1       4.868   5.506  17.127  0.00  0.00    +0.000 N 
ATOM     13  C   UNL     1       6.117   5.209  16.574  0.00  0.00    +0.000 C 
ATOM     14  N   UNL     1       6.455   6.079  15.578  0.00  0.00    +0.000 N 
ATOM     15  O   UNL     1       6.760   4.228  16.927  0.00  0.00    +0.000 OA
ATOM     16  C   UNL     1       3.856   4.599  17.448  0.00  0.00    +0.000 A 
ATOM     17  C   UNL     1       3.776   3.209  17.218  0.00  0.00    +0.000 A 
ATOM     18  C   UNL     1       2.581   2.551  17.566  0.00  0.00    +0.000 A 
ATOM     19  C   UNL     1       1.524   3.248  18.130  0.00  0.00    +0.000 A 
ATOM     20  C   UNL     1       1.613   4.621  18.362  0.00  0.00    +0.000 A 
ATOM     21  C   UNL     1       2.792   5.319  17.997  0.00  0.00    +0.000 A 
ATOM     22  H   UNL     1       5.748   6.647  15.121  0.00  0.00    +0.000 HD
ATOM     23  H   UNL     1       7.288   5.863  15.045  0.00  0.00    +0.000 HD
ENDBRANCH   8  10
BRANCH   1  25
ATOM     24  N   UNL     1       1.254  12.046  18.607  0.00  0.00    +0.000 N 
ATOM     25  C   UNL     1       1.479  10.706  18.383  0.00  0.00    +0.000 C 
ATOM     26  O   UNL     1       2.361  10.295  17.630  0.00  0.00    +0.000 OA
ATOM     27  H   UNL     1       0.394  12.337  19.048  0.00  0.00    +0.000 HD
BRANCH  24  28
ATOM     28  C   UNL     1       2.091  13.061  18.015  0.00  0.00    +0.000 C 
BRANCH  28  33
ATOM     29  C   UNL     1       2.709  17.529  21.697  0.00  0.00    +0.000 C 
ATOM     30  C   UNL     1       2.573  16.398  20.722  0.00  0.00    +0.000 A 
ATOM     31  C   UNL     1       1.676  16.480  19.655  0.00  0.00    +0.000 A 
ATOM     32  C   UNL     1       1.533  15.406  18.768  0.00  0.00    +0.000 A 
ATOM     33  C   UNL     1       2.288  14.236  18.933  0.00  0.00    +0.000 A 
ATOM     34  C   UNL     1       3.200  14.168  19.993  0.00  0.00    +0.000 A 
ATOM     35  C   UNL     1       3.335  15.240  20.883  0.00  0.00    +0.000 A 
ENDBRANCH  28  33
ENDBRANCH  24  28
ENDBRANCH   1  25
BRANCH   3  36
ATOM     36  N   UNL     1       1.071  11.628  21.492  0.00  0.00    +0.000 NA
ATOM     37  H   UNL     1       0.868  12.201  22.316  0.00  0.00    +0.000 HD
ATOM     38  H   UNL     1       0.987  12.289  20.716  0.00  0.00    +0.000 HD
ENDBRANCH   3  36
TORSDOF 5
ENDMDL
MODEL 6
REMARK VINA RESULT:      -8.4      3.192      7.844
REMARK  Name = 
REMARK  6 active torsions:
REMARK  status: ('A' for Active; 'I' for Inactive)
REMARK    1  A    between atoms: C_1  and  C_2
REMARK    2  A    between atoms: C_5  and  C_6
REMARK    3  A    between atoms: C_6  and  N_7
REMARK    4  A    between atoms: C_8  and  C_10
REMARK    5  A    between atoms: C_12  and  N_13
REMARK    6  A    between atoms: N_18  and  C_19
REMARK                            x       y       z     vdW  Elec       q    Type
REMARK                         _______ _______ _______ _____ _____    ______ ____
ROOT
ATOM      1  C   UNL     1       0.451   9.732  19.269  0.00  0.00    +0.000 C 
ATOM      2  C   UNL     1      -0.487  10.753  19.932  0.00  0.00    +0.000 C 
ATOM      3  C   UNL     1       0.032  10.856  21.371  0.00  0.00    +0.000 C 
ATOM      4  C   UNL     1       0.439   9.403  21.652  0.00  0.00    +0.000 C 
ATOM      5  N   UNL     1       0.961   8.926  20.383  0.00  0.00    +0.000 N 
ATOM      6  C   UNL     1       1.598   7.702  20.308  0.00  0.00    +0.000 C 
ATOM      7  O   UNL     1       1.666   6.967  21.287  0.00  0.00    +0.000 OA
ATOM      8  N   UNL     1       2.149   7.433  19.071  0.00  0.00    +0.000 N 
ATOM      9  H   UNL     1       2.376   8.227  18.491  0.00  0.00    +0.000 HD
ENDROOT
BRANCH   8  10
ATOM     10  C   UNL     1       2.791   6.260  18.717  0.00  0.00    +0.000 A 
ATOM     11  C   UNL     1       2.659   5.033  19.306  0.00  0.00    +0.000 A 
ATOM     12  N   UNL     1       3.421   4.101  18.623  0.00  0.00    +0.000 N 
ATOM     13  C   UNL     1       3.483   2.736  18.918  0.00  0.00    +0.000 C 
ATOM     14  N   UNL     1       3.602   2.507  20.259  0.00  0.00    +0.000 N 
ATOM     15  O   UNL     1       3.497   1.887  18.035  0.00  0.00    +0.000 OA
ATOM     16  C   UNL     1       4.090   4.767  17.594  0.00  0.00    +0.000 A 
ATOM     17  C   UNL     1       5.048   4.290  16.675  0.00  0.00    +0.000 A 
ATOM     18  C   UNL     1       5.636   5.217  15.794  0.00  0.00    +0.000 A 
ATOM     19  C   UNL     1       5.270   6.554  15.821  0.00  0.00    +0.000 A 
ATOM     20  C   UNL     1       4.316   7.017  16.727  0.00  0.00    +0.000 A 
ATOM     21  C   UNL     1       3.726   6.115  17.647  0.00  0.00    +0.000 A 
ATOM     22  H   UNL     1       3.915   3.242  20.885  0.00  0.00    +0.000 HD
ATOM     23  H   UNL     1       3.774   1.553  20.547  0.00  0.00    +0.000 HD
ENDBRANCH   8  10
BRANCH   1  25
ATOM     24  N   UNL     1       1.636  11.811  18.733  0.00  0.00    +0.000 N 
ATOM     25  C   UNL     1       1.570  10.456  18.499  0.00  0.00    +0.000 C 
ATOM     26  O   UNL     1       2.306   9.880  17.700  0.00  0.00    +0.000 OA
ATOM     27  H   UNL     1       0.878  12.268  19.220  0.00  0.00    +0.000 HD
BRANCH  24  28
ATOM     28  C   UNL     1       2.630  12.639  18.094  0.00  0.00    +0.000 C 
BRANCH  28  33
ATOM     29  C   UNL     1       1.278  18.296  18.372  0.00  0.00    +0.000 C 
ATOM     30  C   UNL     1       1.650  16.844  18.332  0.00  0.00    +0.000 A 
ATOM     31  C   UNL     1       2.869  16.434  17.788  0.00  0.00    +0.000 A 
ATOM     32  C   UNL     1       3.194  15.073  17.726  0.00  0.00    +0.000 A 
ATOM     33  C   UNL     1       2.306  14.103  18.214  0.00  0.00    +0.000 A 
ATOM     34  C   UNL     1       1.095  14.522  18.777  0.00  0.00    +0.000 A 
ATOM     35  C   UNL     1       0.769  15.881  18.829  0.00  0.00    +0.000 A 
ENDBRANCH  28  33
ENDBRANCH  24  28
ENDBRANCH   1  25
BRANCH   3  36
ATOM     36  N   UNL     1       1.160  11.796  21.452  0.00  0.00    +0.000 NA
ATOM     37  H   UNL     1       1.780  11.682  20.645  0.00  0.00    +0.000 HD
ATOM     38  H   UNL     1       1.752  11.538  22.245  0.00  0.00    +0.000 HD
ENDBRANCH   3  36
TORSDOF 5
ENDMDL
MODEL 7
REMARK VINA RESULT:      -8.2      4.625      8.449
REMARK  Name = 
REMARK  6 active torsions:
REMARK  status: ('A' for Active; 'I' for Inactive)
REMARK    1  A    between atoms: C_1  and  C_2
REMARK    2  A    between atoms: C_5  and  C_6
REMARK    3  A    between atoms: C_6  and  N_7
REMARK    4  A    between atoms: C_8  and  C_10
REMARK    5  A    between atoms: C_12  and  N_13
REMARK    6  A    between atoms: N_18  and  C_19
REMARK                            x       y       z     vdW  Elec       q    Type
REMARK                         _______ _______ _______ _____ _____    ______ ____
ROOT
ATOM      1  C   UNL     1       0.381  12.265  19.281  0.00  0.00    +0.000 C 
ATOM      2  C   UNL     1       1.629  12.643  18.467  0.00  0.00    +0.000 C 
ATOM      3  C   UNL     1       2.108  13.950  19.108  0.00  0.00    +0.000 C 
ATOM      4  C   UNL     1       0.775  14.633  19.444  0.00  0.00    +0.000 C 
ATOM      5  N   UNL     1      -0.099  13.538  19.828  0.00  0.00    +0.000 N 
ATOM      6  C   UNL     1      -1.340  13.799  20.379  0.00  0.00    +0.000 C 
ATOM      7  O   UNL     1      -1.755  14.948  20.479  0.00  0.00    +0.000 OA
ATOM      8  N   UNL     1      -2.009  12.670  20.808  0.00  0.00    +0.000 N 
ATOM      9  H   UNL     1      -1.445  11.865  21.036  0.00  0.00    +0.000 HD
ENDROOT
BRANCH   8  10
ATOM     10  C   UNL     1      -3.285  12.650  21.343  0.00  0.00    +0.000 A 
ATOM     11  C   UNL     1      -3.632  12.748  22.662  0.00  0.00    +0.000 A 
ATOM     12  N   UNL     1      -5.010  12.749  22.786  0.00  0.00    +0.000 N 
ATOM     13  C   UNL     1      -5.714  12.888  23.986  0.00  0.00    +0.000 C 
ATOM     14  N   UNL     1      -5.181  12.121  24.982  0.00  0.00    +0.000 N 
ATOM     15  O   UNL     1      -6.726  13.573  24.062  0.00  0.00    +0.000 OA
ATOM     16  C   UNL     1      -5.554  12.604  21.507  0.00  0.00    +0.000 A 
ATOM     17  C   UNL     1      -6.898  12.459  21.103  0.00  0.00    +0.000 A 
ATOM     18  C   UNL     1      -7.155  12.232  19.737  0.00  0.00    +0.000 A 
ATOM     19  C   UNL     1      -6.117  12.168  18.820  0.00  0.00    +0.000 A 
ATOM     20  C   UNL     1      -4.791  12.320  19.226  0.00  0.00    +0.000 A 
ATOM     21  C   UNL     1      -4.496  12.521  20.598  0.00  0.00    +0.000 A 
ATOM     22  H   UNL     1      -4.567  11.343  24.767  0.00  0.00    +0.000 HD
ATOM     23  H   UNL     1      -5.702  12.071  25.849  0.00  0.00    +0.000 HD
ENDBRANCH   8  10
BRANCH   1  25
ATOM     24  N   UNL     1       0.836   9.946  19.937  0.00  0.00    +0.000 N 
ATOM     25  C   UNL     1       0.745  11.248  20.377  0.00  0.00    +0.000 C 
ATOM     26  O   UNL     1       0.888  11.565  21.557  0.00  0.00    +0.000 OA
ATOM     27  H   UNL     1       0.496   9.709  19.016  0.00  0.00    +0.000 HD
BRANCH  24  28
ATOM     28  C   UNL     1       1.173   8.868  20.835  0.00  0.00    +0.000 C 
BRANCH  28  33
ATOM     29  C   UNL     1       3.120   4.229  17.904  0.00  0.00    +0.000 C 
ATOM     30  C   UNL     1       2.651   5.423  18.681  0.00  0.00    +0.000 A 
ATOM     31  C   UNL     1       2.080   5.271  19.946  0.00  0.00    +0.000 A 
ATOM     32  C   UNL     1       1.616   6.389  20.651  0.00  0.00    +0.000 A 
ATOM     33  C   UNL     1       1.723   7.675  20.103  0.00  0.00    +0.000 A 
ATOM     34  C   UNL     1       2.316   7.823  18.843  0.00  0.00    +0.000 A 
ATOM     35  C   UNL     1       2.770   6.703  18.137  0.00  0.00    +0.000 A 
ENDBRANCH  28  33
ENDBRANCH  24  28
ENDBRANCH   1  25
BRANCH   3  36
ATOM     36  N   UNL     1       2.931  13.678  20.297  0.00  0.00    +0.000 NA
ATOM     37  H   UNL     1       3.903  13.950  20.128  0.00  0.00    +0.000 HD
ATOM     38  H   UNL     1       2.987  12.667  20.437  0.00  0.00    +0.000 HD
ENDBRANCH   3  36
TORSDOF 5
ENDMDL
MODEL 8
REMARK VINA RESULT:      -8.2      3.176      7.684
REMARK  Name = 
REMARK  6 active torsions:
REMARK  status: ('A' for Active; 'I' for Inactive)
REMARK    1  A    between atoms: C_1  and  C_2
REMARK    2  A    between atoms: C_5  and  C_6
REMARK    3  A    between atoms: C_6  and  N_7
REMARK    4  A    between atoms: C_8  and  C_10
REMARK    5  A    between atoms: C_12  and  N_13
REMARK    6  A    between atoms: N_18  and  C_19
REMARK                            x       y       z     vdW  Elec       q    Type
REMARK                         _______ _______ _______ _____ _____    ______ ____
ROOT
ATOM      1  C   UNL     1       0.503   9.634  19.154  0.00  0.00    +0.000 C 
ATOM      2  C   UNL     1      -0.442  10.662  19.798  0.00  0.00    +0.000 C 
ATOM      3  C   UNL     1       0.076  10.794  21.234  0.00  0.00    +0.000 C 
ATOM      4  C   UNL     1       0.491   9.348  21.543  0.00  0.00    +0.000 C 
ATOM      5  N   UNL     1       1.016   8.852  20.283  0.00  0.00    +0.000 N 
ATOM      6  C   UNL     1       1.661   7.630  20.231  0.00  0.00    +0.000 C 
ATOM      7  O   UNL     1       1.732   6.913  21.223  0.00  0.00    +0.000 OA
ATOM      8  N   UNL     1       2.215   7.342  18.999  0.00  0.00    +0.000 N 
ATOM      9  H   UNL     1       2.437   8.127  18.405  0.00  0.00    +0.000 HD
ENDROOT
BRANCH   8  10
ATOM     10  C   UNL     1       2.864   6.166  18.667  0.00  0.00    +0.000 A 
ATOM     11  C   UNL     1       2.746   4.952  19.285  0.00  0.00    +0.000 A 
ATOM     12  N   UNL     1       3.510   4.011  18.618  0.00  0.00    +0.000 N 
ATOM     13  C   UNL     1       3.585   2.653  18.942  0.00  0.00    +0.000 C 
ATOM     14  N   UNL     1       3.716   2.456  20.287  0.00  0.00    +0.000 N 
ATOM     15  O   UNL     1       3.601   1.785  18.079  0.00  0.00    +0.000 OA
ATOM     16  C   UNL     1       4.167   4.659  17.569  0.00  0.00    +0.000 A 
ATOM     17  C   UNL     1       5.123   4.169  16.655  0.00  0.00    +0.000 A 
ATOM     18  C   UNL     1       5.697   5.080  15.748  0.00  0.00    +0.000 A 
ATOM     19  C   UNL     1       5.320   6.414  15.748  0.00  0.00    +0.000 A 
ATOM     20  C   UNL     1       4.369   6.891  16.650  0.00  0.00    +0.000 A 
ATOM     21  C   UNL     1       3.792   6.005  17.595  0.00  0.00    +0.000 A 
ATOM     22  H   UNL     1       4.027   3.207  20.895  0.00  0.00    +0.000 HD
ATOM     23  H   UNL     1       3.897   1.509  20.595  0.00  0.00    +0.000 HD
ENDBRANCH   8  10
BRANCH   1  25
ATOM     24  N   UNL     1       1.630  11.719  18.523  0.00  0.00    +0.000 N 
ATOM     25  C   UNL     1       1.618  10.350  18.372  0.00  0.00    +0.000 C 
ATOM     26  O   UNL     1       2.398   9.754  17.631  0.00  0.00    +0.000 OA
ATOM     27  H   UNL     1       0.842  12.176  18.960  0.00  0.00    +0.000 HD
BRANCH  24  28
ATOM     28  C   UNL     1       2.613  12.542  17.862  0.00  0.00    +0.000 C 
BRANCH  28  33
ATOM     29  C   UNL     1       2.657  17.932  20.067  0.00  0.00    +0.000 C 
ATOM     30  C   UNL     1       2.628  16.558  19.466  0.00  0.00    +0.000 A 
ATOM     31  C   UNL     1       1.451  15.807  19.458  0.00  0.00    +0.000 A 
ATOM     32  C   UNL     1       1.442  14.512  18.923  0.00  0.00    +0.000 A 
ATOM     33  C   UNL     1       2.610  13.953  18.383  0.00  0.00    +0.000 A 
ATOM     34  C   UNL     1       3.781  14.719  18.375  0.00  0.00    +0.000 A 
ATOM     35  C   UNL     1       3.789  16.009  18.919  0.00  0.00    +0.000 A 
ENDBRANCH  28  33
ENDBRANCH  24  28
ENDBRANCH   1  25
BRANCH   3  36
ATOM     36  N   UNL     1       1.198  11.742  21.300  0.00  0.00    +0.000 NA
ATOM     37  H   UNL     1       1.872  11.449  22.013  0.00  0.00    +0.000 HD
ATOM     38  H   UNL     1       0.855  12.639  21.650  0.00  0.00    +0.000 HD
ENDBRANCH   3  36
TORSDOF 5
ENDMDL
MODEL 9
REMARK VINA RESULT:      -8.1      5.909      9.285
REMARK  Name = 
REMARK  6 active torsions:
REMARK  status: ('A' for Active; 'I' for Inactive)
REMARK    1  A    between atoms: C_1  and  C_2
REMARK    2  A    between atoms: C_5  and  C_6
REMARK    3  A    between atoms: C_6  and  N_7
REMARK    4  A    between atoms: C_8  and  C_10
REMARK    5  A    between atoms: C_12  and  N_13
REMARK    6  A    between atoms: N_18  and  C_19
REMARK                            x       y       z     vdW  Elec       q    Type
REMARK                         _______ _______ _______ _____ _____    ______ ____
ROOT
ATOM      1  C   UNL     1      -3.398  10.648  18.390  0.00  0.00    +0.000 C 
ATOM      2  C   UNL     1      -3.424   9.806  17.104  0.00  0.00    +0.000 C 
ATOM      3  C   UNL     1      -3.837  10.802  16.016  0.00  0.00    +0.000 C 
ATOM      4  C   UNL     1      -4.849  11.676  16.770  0.00  0.00    +0.000 C 
ATOM      5  N   UNL     1      -4.313  11.761  18.117  0.00  0.00    +0.000 N 
ATOM      6  C   UNL     1      -4.871  12.631  19.034  0.00  0.00    +0.000 C 
ATOM      7  O   UNL     1      -5.871  13.284  18.756  0.00  0.00    +0.000 OA
ATOM      8  N   UNL     1      -4.186  12.697  20.231  0.00  0.00    +0.000 N 
ATOM      9  H   UNL     1      -3.210  12.443  20.212  0.00  0.00    +0.000 HD
ENDROOT
BRANCH   8  10
ATOM     10  C   UNL     1      -4.564  13.445  21.332  0.00  0.00    +0.000 A 
ATOM     11  C   UNL     1      -3.883  14.487  21.899  0.00  0.00    +0.000 A 
ATOM     12  N   UNL     1      -4.619  15.014  22.945  0.00  0.00    +0.000 N 
ATOM     13  C   UNL     1      -4.251  16.122  23.715  0.00  0.00    +0.000 C 
ATOM     14  N   UNL     1      -2.936  16.076  24.079  0.00  0.00    +0.000 N 
ATOM     15  O   UNL     1      -5.068  16.968  24.056  0.00  0.00    +0.000 OA
ATOM     16  C   UNL     1      -5.785  14.256  23.072  0.00  0.00    +0.000 A 
ATOM     17  C   UNL     1      -6.816  14.328  24.033  0.00  0.00    +0.000 A 
ATOM     18  C   UNL     1      -7.840  13.363  23.975  0.00  0.00    +0.000 A 
ATOM     19  C   UNL     1      -7.839  12.384  22.994  0.00  0.00    +0.000 A 
ATOM     20  C   UNL     1      -6.821  12.324  22.042  0.00  0.00    +0.000 A 
ATOM     21  C   UNL     1      -5.760  13.263  22.089  0.00  0.00    +0.000 A 
ATOM     22  H   UNL     1      -2.418  15.204  24.048  0.00  0.00    +0.000 HD
ATOM     23  H   UNL     1      -2.619  16.776  24.737  0.00  0.00    +0.000 HD
ENDBRANCH   8  10
BRANCH   1  25
ATOM     24  N   UNL     1      -1.221  10.234  19.441  0.00  0.00    +0.000 N 
ATOM     25  C   UNL     1      -1.964  11.119  18.692  0.00  0.00    +0.000 C 
ATOM     26  O   UNL     1      -1.538  12.218  18.340  0.00  0.00    +0.000 OA
ATOM     27  H   UNL     1      -1.682   9.455  19.889  0.00  0.00    +0.000 HD
BRANCH  24  28
ATOM     28  C   UNL     1       0.145  10.520  19.809  0.00  0.00    +0.000 C 
BRANCH  28  33
ATOM     29  C   UNL     1       3.630   6.218  18.004  0.00  0.00    +0.000 C 
ATOM     30  C   UNL     1       2.763   7.342  18.489  0.00  0.00    +0.000 A 
ATOM     31  C   UNL     1       2.253   7.341  19.789  0.00  0.00    +0.000 A 
ATOM     32  C   UNL     1       1.419   8.379  20.222  0.00  0.00    +0.000 A 
ATOM     33  C   UNL     1       1.087   9.436  19.363  0.00  0.00    +0.000 A 
ATOM     34  C   UNL     1       1.618   9.442  18.067  0.00  0.00    +0.000 A 
ATOM     35  C   UNL     1       2.444   8.399  17.634  0.00  0.00    +0.000 A 
ENDBRANCH  28  33
ENDBRANCH  24  28
ENDBRANCH   1  25
BRANCH   3  36
ATOM     36  N   UNL     1      -2.673  11.559  15.531  0.00  0.00    +0.000 NA
ATOM     37  H   UNL     1      -2.033  11.765  16.304  0.00  0.00    +0.000 HD
ATOM     38  H   UNL     1      -2.982  12.483  15.224  0.00  0.00    +0.000 HD
ENDBRANCH   3  36
TORSDOF 5
ENDMDL
