MODEL 1
REMARK VINA RESULT:      -9.4      0.000      0.000
REMARK  Name = 
REMARK  8 active torsions:
REMARK  status: ('A' for Active; 'I' for Inactive)
REMARK    1  A    between atoms: C_1  and  C_2
REMARK    2  A    between atoms: C_5  and  O_6
REMARK    3  A    between atoms: O_6  and  C_7
REMARK    4  A    between atoms: C_9  and  S_10
REMARK    5  A    between atoms: S_10  and  C_13
REMARK    6  A    between atoms: C_19  and  N_20
REMARK    7  A    between atoms: N_20  and  S_21
REMARK    8  A    between atoms: S_21  and  C_24
REMARK                            x       y       z     vdW  Elec       q    Type
REMARK                         _______ _______ _______ _____ _____    ______ ____
ROOT
ATOM      1  C   UNL     1       3.391   5.833  18.003  0.00  0.00    +0.000 A 
ATOM      2  C   UNL     1       2.546   4.982  18.726  0.00  0.00    +0.000 A 
ATOM      3  C   UNL     1       2.374   3.658  18.305  0.00  0.00    +0.000 A 
ATOM      4  C   UNL     1       3.040   3.192  17.158  0.00  0.00    +0.000 A 
ATOM      5  C   UNL     1       3.899   4.038  16.462  0.00  0.00    +0.000 A 
ATOM      6  C   UNL     1       4.108   5.354  16.887  0.00  0.00    +0.000 A 
ENDROOT
BRANCH   3   7
ATOM      7  S   UNL     1       1.530   2.480  19.363  0.00  0.00    +0.000 S 
ATOM      8  O   UNL     1       0.209   2.306  18.778  0.00  0.00    +0.000 OA
ATOM      9  O   UNL     1       2.420   1.331  19.445  0.00  0.00    +0.000 OA
BRANCH   7  10
ATOM     10  C   UNL     1       1.410   3.323  20.976  0.00  0.00    +0.000 C 
ATOM     11  F   UNL     1       0.727   4.503  20.905  0.00  0.00    +0.000 F 
ATOM     12  F   UNL     1       0.769   2.568  21.913  0.00  0.00    +0.000 F 
ATOM     13  F   UNL     1       2.633   3.622  21.500  0.00  0.00    +0.000 F 
ENDBRANCH   7  10
ENDBRANCH   3   7
BRANCH   6  14
ATOM     14  N   UNL     1       5.143   6.117  16.249  0.00  0.00    +0.000 N 
ATOM     15  H   UNL     1       5.150   7.124  16.413  0.00  0.00    +0.000 HD
BRANCH  14  16
ATOM     16  S   UNL     1       6.741   5.521  16.303  0.00  0.00    +0.000 S 
ATOM     17  O   UNL     1       7.651   6.635  16.460  0.00  0.00    +0.000 OA
ATOM     18  O   UNL     1       6.725   4.420  17.243  0.00  0.00    +0.000 OA
BRANCH  16  19
ATOM     19  C   UNL     1       6.969   4.853  14.673  0.00  0.00    +0.000 A 
ATOM     20  C   UNL     1       7.841   5.506  13.795  0.00  0.00    +0.000 A 
ATOM     21  C   UNL     1       7.788   5.207  12.436  0.00  0.00    +0.000 A 
ATOM     22  C   UNL     1       6.935   4.201  11.979  0.00  0.00    +0.000 A 
ATOM     23  C   UNL     1       6.166   3.464  12.881  0.00  0.00    +0.000 A 
ATOM     24  C   UNL     1       6.177   3.787  14.238  0.00  0.00    +0.000 A 
ENDBRANCH  16  19
ENDBRANCH  14  16
ENDBRANCH   6  14
BRANCH   1  25
ATOM     25  O   UNL     1       3.608   7.081  18.553  0.00  0.00    +0.000 OA
BRANCH  25  30
ATOM     26  C   UNL     1      -0.656  10.681  19.548  0.00  0.00    +0.000 C 
ATOM     27  C   UNL     1       0.383   9.637  19.266  0.00  0.00    +0.000 A 
ATOM     28  C   UNL     1       0.857   8.838  20.307  0.00  0.00    +0.000 A 
ATOM     29  C   UNL     1       1.942   7.992  20.108  0.00  0.00    +0.000 A 
ATOM     30  C   UNL     1       2.531   7.885  18.846  0.00  0.00    +0.000 A 
ATOM     31  C   UNL     1       2.026   8.643  17.786  0.00  0.00    +0.000 A 
ATOM     32  C   UNL     1       0.960   9.522  17.995  0.00  0.00    +0.000 A 
ENDBRANCH  25  30
ENDBRANCH   1  25
TORSDOF 7
ENDMDL
MODEL 2
REMARK VINA RESULT:      -9.2      0.234      1.140
REMARK  Name = 
REMARK  8 active torsions:
REMARK  status: ('A' for Active; 'I' for Inactive)
REMARK    1  A    between atoms: C_1  and  C_2
REMARK    2  A    between atoms: C_5  and  O_6
REMARK    3  A    between atoms: O_6  and  C_7
REMARK    4  A    between atoms: C_9  and  S_10
REMARK    5  A    between atoms: S_10  and  C_13
REMARK    6  A    between atoms: C_19  and  N_20
REMARK    7  A    between atoms: N_20  and  S_21
REMARK    8  A    between atoms: S_21  and  C_24
REMARK                            x       y       z     vdW  Elec       q    Type
REMARK                         _______ _______ _______ _____ _____    ______ ____
ROOT
ATOM      1  C   UNL     1       3.327   5.819  18.175  0.00  0.00    +0.000 A 
ATOM      2  C   UNL     1       2.491   4.943  18.879  0.00  0.00    +0.000 A 
ATOM      3  C   UNL     1       2.327   3.629  18.424  0.00  0.00    +0.000 A 
ATOM      4  C   UNL     1       2.992   3.199  17.262  0.00  0.00    +0.000 A 
ATOM      5  C   UNL     1       3.842   4.070  16.585  0.00  0.00    +0.000 A 
ATOM      6  C   UNL     1       4.042   5.376  17.043  0.00  0.00    +0.000 A 
ENDROOT
BRANCH   3   7
ATOM      7  S   UNL     1       1.498   2.418  19.454  0.00  0.00    +0.000 S 
ATOM      8  O   UNL     1       0.137   2.338  18.945  0.00  0.00    +0.000 OA
ATOM      9  O   UNL     1       2.339   1.231  19.404  0.00  0.00    +0.000 OA
BRANCH   7  10
ATOM     10  C   UNL     1       1.515   3.153  21.123  0.00  0.00    +0.000 C 
ATOM     11  F   UNL     1       2.771   3.236  21.650  0.00  0.00    +0.000 F 
ATOM     12  F   UNL     1       1.011   4.420  21.140  0.00  0.00    +0.000 F 
ATOM     13  F   UNL     1       0.774   2.437  22.016  0.00  0.00    +0.000 F 
ENDBRANCH   7  10
ENDBRANCH   3   7
BRANCH   6  14
ATOM     14  N   UNL     1       5.068   6.163  16.421  0.00  0.00    +0.000 N 
ATOM     15  H   UNL     1       5.162   7.133  16.724  0.00  0.00    +0.000 HD
BRANCH  14  16
ATOM     16  S   UNL     1       6.618   5.474  16.233  0.00  0.00    +0.000 S 
ATOM     17  O   UNL     1       7.615   6.502  16.440  0.00  0.00    +0.000 OA
ATOM     18  O   UNL     1       6.612   4.257  17.017  0.00  0.00    +0.000 OA
BRANCH  16  19
ATOM     19  C   UNL     1       6.644   5.024  14.514  0.00  0.00    +0.000 A 
ATOM     20  C   UNL     1       5.754   4.042  14.063  0.00  0.00    +0.000 A 
ATOM     21  C   UNL     1       5.971   3.444  12.825  0.00  0.00    +0.000 A 
ATOM     22  C   UNL     1       7.014   3.890  12.012  0.00  0.00    +0.000 A 
ATOM     23  C   UNL     1       7.815   4.962  12.415  0.00  0.00    +0.000 A 
ATOM     24  C   UNL     1       7.634   5.536  13.673  0.00  0.00    +0.000 A 
ENDBRANCH  16  19
ENDBRANCH  14  16
ENDBRANCH   6  14
BRANCH   1  25
ATOM     25  O   UNL     1       3.536   7.055  18.755  0.00  0.00    +0.000 OA
BRANCH  25  30
ATOM     26  C   UNL     1      -0.682  10.794  19.346  0.00  0.00    +0.000 C 
ATOM     27  C   UNL     1       0.343   9.714  19.174  0.00  0.00    +0.000 A 
ATOM     28  C   UNL     1       0.761   8.978  20.283  0.00  0.00    +0.000 A 
ATOM     29  C   UNL     1       1.835   8.099  20.182  0.00  0.00    +0.000 A 
ATOM     30  C   UNL     1       2.468   7.897  18.954  0.00  0.00    +0.000 A 
ATOM     31  C   UNL     1       2.017   8.591  17.827  0.00  0.00    +0.000 A 
ATOM     32  C   UNL     1       0.964   9.503  17.937  0.00  0.00    +0.000 A 
ENDBRANCH  25  30
ENDBRANCH   1  25
TORSDOF 7
ENDMDL
MODEL 3
REMARK VINA RESULT:      -9.1      0.283      1.259
REMARK  Name = 
REMARK  8 active torsions:
REMARK  status: ('A' for Active; 'I' for Inactive)
REMARK    1  A    between atoms: C_1  and  C_2
REMARK    2  A    between atoms: C_5  and  O_6
REMARK    3  A    between atoms: O_6  and  C_7
REMARK    4  A    between atoms: C_9  and  S_10
REMARK    5  A    between atoms: S_10  and  C_13
REMARK    6  A    between atoms: C_19  and  N_20
REMARK    7  A    between atoms: N_20  and  S_21
REMARK    8  A    between atoms: S_21  and  C_24
REMARK                            x       y       z     vdW  Elec       q    Type
REMARK                         _______ _______ _______ _____ _____    ______ ____
ROOT
ATOM      1  C   UNL     1       3.301   5.848  18.133  0.00  0.00    +0.000 A 
ATOM      2  C   UNL     1       2.443   4.994  18.836  0.00  0.00    +0.000 A 
ATOM      3  C   UNL     1       2.272   3.674  18.402  0.00  0.00    +0.000 A 
ATOM      4  C   UNL     1       2.952   3.216  17.260  0.00  0.00    +0.000 A 
ATOM      5  C   UNL     1       3.824   4.065  16.583  0.00  0.00    +0.000 A 
ATOM      6  C   UNL     1       4.032   5.377  17.023  0.00  0.00    +0.000 A 
ENDROOT
BRANCH   3   7
ATOM      7  S   UNL     1       1.409   2.491  19.437  0.00  0.00    +0.000 S 
ATOM      8  O   UNL     1       0.017   2.545  19.016  0.00  0.00    +0.000 OA
ATOM      9  O   UNL     1       2.142   1.242  19.285  0.00  0.00    +0.000 OA
BRANCH   7  10
ATOM     10  C   UNL     1       1.593   3.148  21.128  0.00  0.00    +0.000 C 
ATOM     11  F   UNL     1       1.180   4.444  21.237  0.00  0.00    +0.000 F 
ATOM     12  F   UNL     1       0.872   2.440  22.044  0.00  0.00    +0.000 F 
ATOM     13  F   UNL     1       2.886   3.123  21.559  0.00  0.00    +0.000 F 
ENDBRANCH   7  10
ENDBRANCH   3   7
BRANCH   6  14
ATOM     14  N   UNL     1       5.079   6.141  16.406  0.00  0.00    +0.000 N 
ATOM     15  H   UNL     1       5.197   7.107  16.715  0.00  0.00    +0.000 HD
BRANCH  14  16
ATOM     16  S   UNL     1       6.610   5.414  16.216  0.00  0.00    +0.000 S 
ATOM     17  O   UNL     1       7.634   6.410  16.453  0.00  0.00    +0.000 OA
ATOM     18  O   UNL     1       6.565   4.182  16.975  0.00  0.00    +0.000 OA
BRANCH  16  19
ATOM     19  C   UNL     1       6.639   4.998  14.489  0.00  0.00    +0.000 A 
ATOM     20  C   UNL     1       5.753   4.022  14.019  0.00  0.00    +0.000 A 
ATOM     21  C   UNL     1       5.973   3.450  12.768  0.00  0.00    +0.000 A 
ATOM     22  C   UNL     1       7.015   3.916  11.965  0.00  0.00    +0.000 A 
ATOM     23  C   UNL     1       7.811   4.982  12.390  0.00  0.00    +0.000 A 
ATOM     24  C   UNL     1       7.628   5.531  13.659  0.00  0.00    +0.000 A 
ENDBRANCH  16  19
ENDBRANCH  14  16
ENDBRANCH   6  14
BRANCH   1  25
ATOM     25  O   UNL     1       3.515   7.091  18.697  0.00  0.00    +0.000 OA
BRANCH  25  30
ATOM     26  C   UNL     1      -0.992  10.470  19.331  0.00  0.00    +0.000 C 
ATOM     27  C   UNL     1       0.274   9.680  19.182  0.00  0.00    +0.000 A 
ATOM     28  C   UNL     1       0.887   9.590  17.933  0.00  0.00    +0.000 A 
ATOM     29  C   UNL     1       1.956   8.722  17.732  0.00  0.00    +0.000 A 
ATOM     30  C   UNL     1       2.467   7.975  18.796  0.00  0.00    +0.000 A 
ATOM     31  C   UNL     1       1.891   8.103  20.064  0.00  0.00    +0.000 A 
ATOM     32  C   UNL     1       0.794   8.946  20.256  0.00  0.00    +0.000 A 
ENDBRANCH  25  30
ENDBRANCH   1  25
TORSDOF 7
ENDMDL
MODEL 4
REMARK VINA RESULT:      -8.9      2.971      5.677
REMARK  Name = 
REMARK  8 active torsions:
REMARK  status: ('A' for Active; 'I' for Inactive)
REMARK    1  A    between atoms: C_1  and  C_2
REMARK    2  A    between atoms: C_5  and  O_6
REMARK    3  A    between atoms: O_6  and  C_7
REMARK    4  A    between atoms: C_9  and  S_10
REMARK    5  A    between atoms: S_10  and  C_13
REMARK    6  A    between atoms: C_19  and  N_20
REMARK    7  A    between atoms: N_20  and  S_21
REMARK    8  A    between atoms: S_21  and  C_24
REMARK                            x       y       z     vdW  Elec       q    Type
REMARK                         _______ _______ _______ _____ _____    ______ ____
ROOT
ATOM      1  C   UNL     1       3.027   6.669  18.656  0.00  0.00    +0.000 A 
ATOM      2  C   UNL     1       3.779   6.772  17.479  0.00  0.00    +0.000 A 
ATOM      3  C   UNL     1       5.030   6.149  17.401  0.00  0.00    +0.000 A 
ATOM      4  C   UNL     1       5.529   5.433  18.504  0.00  0.00    +0.000 A 
ATOM      5  C   UNL     1       4.762   5.313  19.660  0.00  0.00    +0.000 A 
ATOM      6  C   UNL     1       3.496   5.903  19.743  0.00  0.00    +0.000 A 
ENDROOT
BRANCH   3   7
ATOM      7  S   UNL     1       5.879   6.027  15.826  0.00  0.00    +0.000 S 
ATOM      8  O   UNL     1       5.232   6.999  14.957  0.00  0.00    +0.000 OA
ATOM      9  O   UNL     1       7.291   6.190  16.137  0.00  0.00    +0.000 OA
BRANCH   7  10
ATOM     10  C   UNL     1       5.533   4.329  15.254  0.00  0.00    +0.000 C 
ATOM     11  F   UNL     1       6.475   3.432  15.668  0.00  0.00    +0.000 F 
ATOM     12  F   UNL     1       4.336   3.860  15.707  0.00  0.00    +0.000 F 
ATOM     13  F   UNL     1       5.489   4.236  13.895  0.00  0.00    +0.000 F 
ENDBRANCH   7  10
ENDBRANCH   3   7
BRANCH   6  14
ATOM     14  N   UNL     1       2.675   5.589  20.878  0.00  0.00    +0.000 N 
ATOM     15  H   UNL     1       2.057   6.323  21.225  0.00  0.00    +0.000 HD
BRANCH  14  16
ATOM     16  S   UNL     1       1.848   4.097  20.893  0.00  0.00    +0.000 S 
ATOM     17  O   UNL     1       2.064   3.455  22.172  0.00  0.00    +0.000 OA
ATOM     18  O   UNL     1       0.514   4.374  20.402  0.00  0.00    +0.000 OA
BRANCH  16  19
ATOM     19  C   UNL     1       2.708   3.156  19.655  0.00  0.00    +0.000 A 
ATOM     20  C   UNL     1       2.164   3.084  18.368  0.00  0.00    +0.000 A 
ATOM     21  C   UNL     1       2.625   2.109  17.488  0.00  0.00    +0.000 A 
ATOM     22  C   UNL     1       3.679   1.276  17.865  0.00  0.00    +0.000 A 
ATOM     23  C   UNL     1       4.304   1.444  19.103  0.00  0.00    +0.000 A 
ATOM     24  C   UNL     1       3.819   2.387  20.010  0.00  0.00    +0.000 A 
ENDBRANCH  16  19
ENDBRANCH  14  16
ENDBRANCH   6  14
BRANCH   1  25
ATOM     25  O   UNL     1       1.754   7.201  18.609  0.00  0.00    +0.000 OA
BRANCH  25  30
ATOM     26  C   UNL     1       0.634  12.546  20.127  0.00  0.00    +0.000 C 
ATOM     27  C   UNL     1       1.053  11.155  19.757  0.00  0.00    +0.000 A 
ATOM     28  C   UNL     1       1.524  10.897  18.470  0.00  0.00    +0.000 A 
ATOM     29  C   UNL     1       1.748   9.590  18.049  0.00  0.00    +0.000 A 
ATOM     30  C   UNL     1       1.562   8.524  18.932  0.00  0.00    +0.000 A 
ATOM     31  C   UNL     1       1.143   8.781  20.240  0.00  0.00    +0.000 A 
ATOM     32  C   UNL     1       0.881  10.090  20.651  0.00  0.00    +0.000 A 
ENDBRANCH  25  30
ENDBRANCH   1  25
TORSDOF 7
ENDMDL
MODEL 5
REMARK VINA RESULT:      -8.9      3.066      4.089
REMARK  Name = 
REMARK  8 active torsions:
REMARK  status: ('A' for Active; 'I' for Inactive)
REMARK    1  A    between atoms: C_1  and  C_2
REMARK    2  A    between atoms: C_5  and  O_6
REMARK    3  A    between atoms: O_6  and  C_7
REMARK    4  A    between atoms: C_9  and  S_10
REMARK    5  A    between atoms: S_10  and  C_13
REMARK    6  A    between atoms: C_19  and  N_20
REMARK    7  A    between atoms: N_20  and  S_21
REMARK    8  A    between atoms: S_21  and  C_24
REMARK                            x       y       z     vdW  Elec       q    Type
REMARK                         _______ _______ _______ _____ _____    ______ ____
ROOT
ATOM      1  C   UNL     1       5.413   4.486  18.029  0.00  0.00    +0.000 A 
ATOM      2  C   UNL     1       4.505   4.635  19.084  0.00  0.00    +0.000 A 
ATOM      3  C   UNL     1       3.157   4.311  18.888  0.00  0.00    +0.000 A 
ATOM      4  C   UNL     1       2.721   3.848  17.634  0.00  0.00    +0.000 A 
ATOM      5  C   UNL     1       3.636   3.678  16.599  0.00  0.00    +0.000 A 
ATOM      6  C   UNL     1       4.992   3.966  16.787  0.00  0.00    +0.000 A 
ENDROOT
BRANCH   3   7
ATOM      7  S   UNL     1       2.040   4.223  20.288  0.00  0.00    +0.000 S 
ATOM      8  O   UNL     1       2.524   5.215  21.237  0.00  0.00    +0.000 OA
ATOM      9  O   UNL     1       0.707   4.379  19.726  0.00  0.00    +0.000 OA
BRANCH   7  10
ATOM     10  C   UNL     1       2.272   2.539  20.949  0.00  0.00    +0.000 C 
ATOM     11  F   UNL     1       3.563   2.288  21.311  0.00  0.00    +0.000 F 
ATOM     12  F   UNL     1       1.513   2.304  22.057  0.00  0.00    +0.000 F 
ATOM     13  F   UNL     1       1.936   1.574  20.045  0.00  0.00    +0.000 F 
ENDBRANCH   7  10
ENDBRANCH   3   7
BRANCH   6  14
ATOM     14  N   UNL     1       5.914   3.593  15.753  0.00  0.00    +0.000 N 
ATOM     15  H   UNL     1       5.765   2.693  15.295  0.00  0.00    +0.000 HD
BRANCH  14  16
ATOM     16  S   UNL     1       6.339   4.761  14.584  0.00  0.00    +0.000 S 
ATOM     17  O   UNL     1       5.365   5.831  14.617  0.00  0.00    +0.000 OA
ATOM     18  O   UNL     1       7.751   5.018  14.770  0.00  0.00    +0.000 OA
BRANCH  16  19
ATOM     19  C   UNL     1       6.135   3.880  13.054  0.00  0.00    +0.000 A 
ATOM     20  C   UNL     1       4.838   3.648  12.581  0.00  0.00    +0.000 A 
ATOM     21  C   UNL     1       4.638   2.697  11.583  0.00  0.00    +0.000 A 
ATOM     22  C   UNL     1       5.735   2.055  11.007  0.00  0.00    +0.000 A 
ATOM     23  C   UNL     1       7.035   2.391  11.395  0.00  0.00    +0.000 A 
ATOM     24  C   UNL     1       7.243   3.308  12.425  0.00  0.00    +0.000 A 
ENDBRANCH  16  19
ENDBRANCH  14  16
ENDBRANCH   6  14
BRANCH   1  25
ATOM     25  O   UNL     1       6.742   4.703  18.337  0.00  0.00    +0.000 OA
BRANCH  25  30
ATOM     26  C   UNL     1       8.754   9.992  18.004  0.00  0.00    +0.000 C 
ATOM     27  C   UNL     1       8.143   8.634  18.185  0.00  0.00    +0.000 A 
ATOM     28  C   UNL     1       8.664   7.767  19.145  0.00  0.00    +0.000 A 
ATOM     29  C   UNL     1       8.233   6.446  19.209  0.00  0.00    +0.000 A 
ATOM     30  C   UNL     1       7.229   5.989  18.352  0.00  0.00    +0.000 A 
ATOM     31  C   UNL     1       6.665   6.869  17.424  0.00  0.00    +0.000 A 
ATOM     32  C   UNL     1       7.125   8.186  17.334  0.00  0.00    +0.000 A 
ENDBRANCH  25  30
ENDBRANCH   1  25
TORSDOF 7
ENDMDL
MODEL 6
REMARK VINA RESULT:      -8.9      3.229      5.957
REMARK  Name = 
REMARK  8 active torsions:
REMARK  status: ('A' for Active; 'I' for Inactive)
REMARK    1  A    between atoms: C_1  and  C_2
REMARK    2  A    between atoms: C_5  and  O_6
REMARK    3  A    between atoms: O_6  and  C_7
REMARK    4  A    between atoms: C_9  and  S_10
REMARK    5  A    between atoms: S_10  and  C_13
REMARK    6  A    between atoms: C_19  and  N_20
REMARK    7  A    between atoms: N_20  and  S_21
REMARK    8  A    between atoms: S_21  and  C_24
REMARK                            x       y       z     vdW  Elec       q    Type
REMARK                         _______ _______ _______ _____ _____    ______ ____
ROOT
ATOM      1  C   UNL     1       3.683   5.334  18.611  0.00  0.00    +0.000 A 
ATOM      2  C   UNL     1       5.023   5.613  18.316  0.00  0.00    +0.000 A 
ATOM      3  C   UNL     1       5.627   5.009  17.207  0.00  0.00    +0.000 A 
ATOM      4  C   UNL     1       4.891   4.121  16.402  0.00  0.00    +0.000 A 
ATOM      5  C   UNL     1       3.552   3.872  16.688  0.00  0.00    +0.000 A 
ATOM      6  C   UNL     1       2.923   4.492  17.773  0.00  0.00    +0.000 A 
ENDROOT
BRANCH   3   7
ATOM      7  S   UNL     1       7.239   5.561  16.648  0.00  0.00    +0.000 S 
ATOM      8  O   UNL     1       8.183   4.565  17.130  0.00  0.00    +0.000 OA
ATOM      9  O   UNL     1       7.100   5.762  15.213  0.00  0.00    +0.000 OA
BRANCH   7  10
ATOM     10  C   UNL     1       7.495   7.152  17.502  0.00  0.00    +0.000 C 
ATOM     11  F   UNL     1       7.959   6.998  18.776  0.00  0.00    +0.000 F 
ATOM     12  F   UNL     1       8.398   7.949  16.862  0.00  0.00    +0.000 F 
ATOM     13  F   UNL     1       6.347   7.881  17.601  0.00  0.00    +0.000 F 
ENDBRANCH   7  10
ENDBRANCH   3   7
BRANCH   6  14
ATOM     14  N   UNL     1       1.501   4.348  17.906  0.00  0.00    +0.000 N 
ATOM     15  H   UNL     1       0.961   4.229  17.049  0.00  0.00    +0.000 HD
BRANCH  14  16
ATOM     16  S   UNL     1       0.902   3.294  19.107  0.00  0.00    +0.000 S 
ATOM     17  O   UNL     1       0.502   4.075  20.258  0.00  0.00    +0.000 OA
ATOM     18  O   UNL     1      -0.027   2.409  18.435  0.00  0.00    +0.000 OA
BRANCH  16  19
ATOM     19  C   UNL     1       2.338   2.349  19.556  0.00  0.00    +0.000 A 
ATOM     20  C   UNL     1       2.996   2.656  20.753  0.00  0.00    +0.000 A 
ATOM     21  C   UNL     1       4.283   2.170  20.966  0.00  0.00    +0.000 A 
ATOM     22  C   UNL     1       4.866   1.315  20.029  0.00  0.00    +0.000 A 
ATOM     23  C   UNL     1       4.149   0.909  18.901  0.00  0.00    +0.000 A 
ATOM     24  C   UNL     1       2.877   1.427  18.656  0.00  0.00    +0.000 A 
ENDBRANCH  16  19
ENDBRANCH  14  16
ENDBRANCH   6  14
BRANCH   1  25
ATOM     25  O   UNL     1       3.125   6.065  19.641  0.00  0.00    +0.000 OA
BRANCH  25  30
ATOM     26  C   UNL     1       0.122  10.774  18.674  0.00  0.00    +0.000 C 
ATOM     27  C   UNL     1       1.018   9.604  18.954  0.00  0.00    +0.000 A 
ATOM     28  C   UNL     1       1.786   9.063  17.923  0.00  0.00    +0.000 A 
ATOM     29  C   UNL     1       2.483   7.874  18.113  0.00  0.00    +0.000 A 
ATOM     30  C   UNL     1       2.472   7.242  19.358  0.00  0.00    +0.000 A 
ATOM     31  C   UNL     1       1.748   7.809  20.410  0.00  0.00    +0.000 A 
ATOM     32  C   UNL     1       1.017   8.983  20.208  0.00  0.00    +0.000 A 
ENDBRANCH  25  30
ENDBRANCH   1  25
TORSDOF 7
ENDMDL
MODEL 7
REMARK VINA RESULT:      -8.8      2.980      5.612
REMARK  Name = 
REMARK  8 active torsions:
REMARK  status: ('A' for Active; 'I' for Inactive)
REMARK    1  A    between atoms: C_1  and  C_2
REMARK    2  A    between atoms: C_5  and  O_6
REMARK    3  A    between atoms: O_6  and  C_7
REMARK    4  A    between atoms: C_9  and  S_10
REMARK    5  A    between atoms: S_10  and  C_13
REMARK    6  A    between atoms: C_19  and  N_20
REMARK    7  A    between atoms: N_20  and  S_21
REMARK    8  A    between atoms: S_21  and  C_24
REMARK                            x       y       z     vdW  Elec       q    Type
REMARK                         _______ _______ _______ _____ _____    ______ ____
ROOT
ATOM      1  C   UNL     1       3.034   6.648  18.610  0.00  0.00    +0.000 A 
ATOM      2  C   UNL     1       3.783   6.744  17.431  0.00  0.00    +0.000 A 
ATOM      3  C   UNL     1       5.041   6.135  17.360  0.00  0.00    +0.000 A 
ATOM      4  C   UNL     1       5.551   5.441  18.471  0.00  0.00    +0.000 A 
ATOM      5  C   UNL     1       4.787   5.329  19.630  0.00  0.00    +0.000 A 
ATOM      6  C   UNL     1       3.514   5.903  19.707  0.00  0.00    +0.000 A 
ENDROOT
BRANCH   3   7
ATOM      7  S   UNL     1       5.888   6.001  15.785  0.00  0.00    +0.000 S 
ATOM      8  O   UNL     1       5.238   6.964  14.908  0.00  0.00    +0.000 OA
ATOM      9  O   UNL     1       7.301   6.172  16.093  0.00  0.00    +0.000 OA
BRANCH   7  10
ATOM     10  C   UNL     1       5.548   4.298  15.229  0.00  0.00    +0.000 C 
ATOM     11  F   UNL     1       5.577   4.171  13.871  0.00  0.00    +0.000 F 
ATOM     12  F   UNL     1       6.452   3.400  15.715  0.00  0.00    +0.000 F 
ATOM     13  F   UNL     1       4.321   3.856  15.626  0.00  0.00    +0.000 F 
ENDBRANCH   7  10
ENDBRANCH   3   7
BRANCH   6  14
ATOM     14  N   UNL     1       2.699   5.595  20.848  0.00  0.00    +0.000 N 
ATOM     15  H   UNL     1       2.084   6.332  21.196  0.00  0.00    +0.000 HD
BRANCH  14  16
ATOM     16  S   UNL     1       1.869   4.105  20.874  0.00  0.00    +0.000 S 
ATOM     17  O   UNL     1       2.086   3.470  22.156  0.00  0.00    +0.000 OA
ATOM     18  O   UNL     1       0.535   4.381  20.384  0.00  0.00    +0.000 OA
BRANCH  16  19
ATOM     19  C   UNL     1       2.726   3.155  19.640  0.00  0.00    +0.000 A 
ATOM     20  C   UNL     1       2.184   3.084  18.352  0.00  0.00    +0.000 A 
ATOM     21  C   UNL     1       2.640   2.103  17.475  0.00  0.00    +0.000 A 
ATOM     22  C   UNL     1       3.688   1.264  17.857  0.00  0.00    +0.000 A 
ATOM     23  C   UNL     1       4.310   1.430  19.096  0.00  0.00    +0.000 A 
ATOM     24  C   UNL     1       3.831   2.379  19.999  0.00  0.00    +0.000 A 
ENDBRANCH  16  19
ENDBRANCH  14  16
ENDBRANCH   6  14
BRANCH   1  25
ATOM     25  O   UNL     1       1.754   7.163  18.559  0.00  0.00    +0.000 OA
BRANCH  25  30
ATOM     26  C   UNL     1       1.100  12.510  20.323  0.00  0.00    +0.000 C 
ATOM     27  C   UNL     1       1.146  11.093  19.836  0.00  0.00    +0.000 A 
ATOM     28  C   UNL     1       0.937  10.048  20.737  0.00  0.00    +0.000 A 
ATOM     29  C   UNL     1       1.151   8.730  20.349  0.00  0.00    +0.000 A 
ATOM     30  C   UNL     1       1.517   8.432  19.034  0.00  0.00    +0.000 A 
ATOM     31  C   UNL     1       1.674   9.471  18.113  0.00  0.00    +0.000 A 
ATOM     32  C   UNL     1       1.497  10.798  18.513  0.00  0.00    +0.000 A 
ENDBRANCH  25  30
ENDBRANCH   1  25
TORSDOF 7
ENDMDL
MODEL 8
REMARK VINA RESULT:      -8.8      2.872      4.156
REMARK  Name = 
REMARK  8 active torsions:
REMARK  status: ('A' for Active; 'I' for Inactive)
REMARK    1  A    between atoms: C_1  and  C_2
REMARK    2  A    between atoms: C_5  and  O_6
REMARK    3  A    between atoms: O_6  and  C_7
REMARK    4  A    between atoms: C_9  and  S_10
REMARK    5  A    between atoms: S_10  and  C_13
REMARK    6  A    between atoms: C_19  and  N_20
REMARK    7  A    between atoms: N_20  and  S_21
REMARK    8  A    between atoms: S_21  and  C_24
REMARK                            x       y       z     vdW  Elec       q    Type
REMARK                         _______ _______ _______ _____ _____    ______ ____
ROOT
ATOM      1  C   UNL     1       5.781   4.125  17.903  0.00  0.00    +0.000 A 
ATOM      2  C   UNL     1       4.828   4.008  18.922  0.00  0.00    +0.000 A 
ATOM      3  C   UNL     1       3.555   3.507  18.623  0.00  0.00    +0.000 A 
ATOM      4  C   UNL     1       3.238   3.133  17.305  0.00  0.00    +0.000 A 
ATOM      5  C   UNL     1       4.201   3.228  16.305  0.00  0.00    +0.000 A 
ATOM      6  C   UNL     1       5.488   3.696  16.591  0.00  0.00    +0.000 A 
ENDROOT
BRANCH   3   7
ATOM      7  S   UNL     1       2.421   3.084  19.947  0.00  0.00    +0.000 S 
ATOM      8  O   UNL     1       1.449   2.178  19.355  0.00  0.00    +0.000 OA
ATOM      9  O   UNL     1       3.262   2.603  21.033  0.00  0.00    +0.000 OA
BRANCH   7  10
ATOM     10  C   UNL     1       1.632   4.668  20.392  0.00  0.00    +0.000 C 
ATOM     11  F   UNL     1       0.283   4.555  20.557  0.00  0.00    +0.000 F 
ATOM     12  F   UNL     1       2.117   5.183  21.557  0.00  0.00    +0.000 F 
ATOM     13  F   UNL     1       1.821   5.628  19.442  0.00  0.00    +0.000 F 
ENDBRANCH   7  10
ENDBRANCH   3   7
BRANCH   6  14
ATOM     14  N   UNL     1       6.491   3.593  15.570  0.00  0.00    +0.000 N 
ATOM     15  H   UNL     1       6.645   2.672  15.158  0.00  0.00    +0.000 HD
BRANCH  14  16
ATOM     16  S   UNL     1       6.523   4.777  14.342  0.00  0.00    +0.000 S 
ATOM     17  O   UNL     1       5.405   5.677  14.530  0.00  0.00    +0.000 OA
ATOM     18  O   UNL     1       7.885   5.264  14.292  0.00  0.00    +0.000 OA
BRANCH  16  19
ATOM     19  C   UNL     1       6.221   3.828  12.870  0.00  0.00    +0.000 A 
ATOM     20  C   UNL     1       4.898   3.638  12.453  0.00  0.00    +0.000 A 
ATOM     21  C   UNL     1       4.616   2.648  11.516  0.00  0.00    +0.000 A 
ATOM     22  C   UNL     1       5.658   1.919  10.941  0.00  0.00    +0.000 A 
ATOM     23  C   UNL     1       6.985   2.207  11.267  0.00  0.00    +0.000 A 
ATOM     24  C   UNL     1       7.276   3.166  12.238  0.00  0.00    +0.000 A 
ENDBRANCH  16  19
ENDBRANCH  14  16
ENDBRANCH   6  14
BRANCH   1  25
ATOM     25  O   UNL     1       7.048   4.505  18.299  0.00  0.00    +0.000 OA
BRANCH  25  30
ATOM     26  C   UNL     1       8.512   9.981  18.302  0.00  0.00    +0.000 C 
ATOM     27  C   UNL     1       8.223   8.512  18.221  0.00  0.00    +0.000 A 
ATOM     28  C   UNL     1       7.406   8.027  17.200  0.00  0.00    +0.000 A 
ATOM     29  C   UNL     1       6.980   6.702  17.208  0.00  0.00    +0.000 A 
ATOM     30  C   UNL     1       7.416   5.827  18.205  0.00  0.00    +0.000 A 
ATOM     31  C   UNL     1       8.280   6.295  19.200  0.00  0.00    +0.000 A 
ATOM     32  C   UNL     1       8.677   7.635  19.213  0.00  0.00    +0.000 A 
ENDBRANCH  25  30
ENDBRANCH   1  25
TORSDOF 7
ENDMDL
MODEL 9
REMARK VINA RESULT:      -8.8      3.048      4.174
REMARK  Name = 
REMARK  8 active torsions:
REMARK  status: ('A' for Active; 'I' for Inactive)
REMARK    1  A    between atoms: C_1  and  C_2
REMARK    2  A    between atoms: C_5  and  O_6
REMARK    3  A    between atoms: O_6  and  C_7
REMARK    4  A    between atoms: C_9  and  S_10
REMARK    5  A    between atoms: S_10  and  C_13
REMARK    6  A    between atoms: C_19  and  N_20
REMARK    7  A    between atoms: N_20  and  S_21
REMARK    8  A    between atoms: S_21  and  C_24
REMARK                            x       y       z     vdW  Elec       q    Type
REMARK                         _______ _______ _______ _____ _____    ______ ____
ROOT
ATOM      1  C   UNL     1       5.291   4.535  18.112  0.00  0.00    +0.000 A 
ATOM      2  C   UNL     1       4.391   4.761  19.161  0.00  0.00    +0.000 A 
ATOM      3  C   UNL     1       3.036   4.459  18.986  0.00  0.00    +0.000 A 
ATOM      4  C   UNL     1       2.583   3.940  17.760  0.00  0.00    +0.000 A 
ATOM      5  C   UNL     1       3.490   3.694  16.732  0.00  0.00    +0.000 A 
ATOM      6  C   UNL     1       4.853   3.960  16.901  0.00  0.00    +0.000 A 
ENDROOT
BRANCH   3   7
ATOM      7  S   UNL     1       1.922   4.471  20.392  0.00  0.00    +0.000 S 
ATOM      8  O   UNL     1       2.767   4.683  21.558  0.00  0.00    +0.000 OA
ATOM      9  O   UNL     1       0.906   5.463  20.068  0.00  0.00    +0.000 OA
BRANCH   7  10
ATOM     10  C   UNL     1       1.205   2.794  20.418  0.00  0.00    +0.000 C 
ATOM     11  F   UNL     1       0.160   2.655  19.551  0.00  0.00    +0.000 F 
ATOM     12  F   UNL     1       2.111   1.834  20.078  0.00  0.00    +0.000 F 
ATOM     13  F   UNL     1       0.728   2.451  21.648  0.00  0.00    +0.000 F 
ENDBRANCH   7  10
ENDBRANCH   3   7
BRANCH   6  14
ATOM     14  N   UNL     1       5.763   3.511  15.886  0.00  0.00    +0.000 N 
ATOM     15  H   UNL     1       5.529   2.645  15.398  0.00  0.00    +0.000 HD
BRANCH  14  16
ATOM     16  S   UNL     1       6.355   4.652  14.765  0.00  0.00    +0.000 S 
ATOM     17  O   UNL     1       5.511   5.827  14.803  0.00  0.00    +0.000 OA
ATOM     18  O   UNL     1       7.781   4.739  14.997  0.00  0.00    +0.000 OA
BRANCH  16  19
ATOM     19  C   UNL     1       6.097   3.843  13.204  0.00  0.00    +0.000 A 
ATOM     20  C   UNL     1       4.787   3.675  12.743  0.00  0.00    +0.000 A 
ATOM     21  C   UNL     1       4.539   2.774  11.711  0.00  0.00    +0.000 A 
ATOM     22  C   UNL     1       5.603   2.117  11.092  0.00  0.00    +0.000 A 
ATOM     23  C   UNL     1       6.919   2.392  11.472  0.00  0.00    +0.000 A 
ATOM     24  C   UNL     1       7.175   3.259  12.534  0.00  0.00    +0.000 A 
ENDBRANCH  16  19
ENDBRANCH  14  16
ENDBRANCH   6  14
BRANCH   1  25
ATOM     25  O   UNL     1       6.626   4.737  18.405  0.00  0.00    +0.000 OA
BRANCH  25  30
ATOM     26  C   UNL     1       8.796   9.973  18.381  0.00  0.00    +0.000 C 
ATOM     27  C   UNL     1       8.308   8.558  18.296  0.00  0.00    +0.000 A 
ATOM     28  C   UNL     1       7.336   8.220  17.355  0.00  0.00    +0.000 A 
ATOM     29  C   UNL     1       6.741   6.962  17.377  0.00  0.00    +0.000 A 
ATOM     30  C   UNL     1       7.155   6.002  18.303  0.00  0.00    +0.000 A 
ATOM     31  C   UNL     1       8.167   6.318  19.214  0.00  0.00    +0.000 A 
ATOM     32  C   UNL     1       8.738   7.594  19.217  0.00  0.00    +0.000 A 
ENDBRANCH  25  30
ENDBRANCH   1  25
TORSDOF 7
ENDMDL
