MODEL 1
REMARK VINA RESULT:      -8.3      0.000      0.000
REMARK  Name = 
REMARK  6 active torsions:
REMARK  status: ('A' for Active; 'I' for Inactive)
REMARK    1  A    between atoms: C_1  and  C_2
REMARK    2  A    between atoms: C_2  and  O_3
REMARK    3  A    between atoms: O_3  and  C_4
REMARK    4  A    between atoms: C_9  and  C_10
REMARK    5  A    between atoms: N_18  and  C_19
REMARK    6  A    between atoms: C_19  and  C_20
REMARK                            x       y       z     vdW  Elec       q    Type
REMARK                         _______ _______ _______ _____ _____    ______ ____
ROOT
ATOM      1  C   UNL     1       4.295   5.360  17.001  0.00  0.00    +0.000 A 
ATOM      2  C   UNL     1       3.900   6.655  17.408  0.00  0.00    +0.000 A 
ATOM      3  C   UNL     1       2.970   6.873  18.428  0.00  0.00    +0.000 A 
ATOM      4  C   UNL     1       2.349   5.807  19.078  0.00  0.00    +0.000 A 
ATOM      5  C   UNL     1       2.687   4.522  18.645  0.00  0.00    +0.000 A 
ATOM      6  C   UNL     1       3.627   4.280  17.637  0.00  0.00    +0.000 A 
ATOM      7  N   UNL     1       3.753   2.918  17.432  0.00  0.00    +0.000 NA
ATOM      8  C   UNL     1       2.920   2.347  18.268  0.00  0.00    +0.000 A 
ATOM      9  N   UNL     1       2.269   3.269  19.033  0.00  0.00    +0.000 N 
ENDROOT
BRANCH   1  15
ATOM     10  C   UNL     1       6.682   5.479  16.105  0.00  0.00    +0.000 A 
ATOM     11  N   UNL     1       7.641   5.252  15.176  0.00  0.00    +0.000 NA
ATOM     12  C   UNL     1       7.237   4.643  14.057  0.00  0.00    +0.000 A 
ATOM     13  N   UNL     1       5.989   4.262  13.788  0.00  0.00    +0.000 NA
ATOM     14  C   UNL     1       5.075   4.506  14.761  0.00  0.00    +0.000 A 
ATOM     15  C   UNL     1       5.340   5.119  15.981  0.00  0.00    +0.000 A 
BRANCH  10  16
ATOM     16  O   UNL     1       7.110   6.053  17.290  0.00  0.00    +0.000 OA
BRANCH  16  18
ATOM     17  C   UNL     1       7.738   5.709  19.572  0.00  0.00    +0.000 C 
ATOM     18  C   UNL     1       7.661   5.089  18.190  0.00  0.00    +0.000 C 
ENDBRANCH  16  18
ENDBRANCH  10  16
ENDBRANCH   1  15
BRANCH   9  19
ATOM     19  C   UNL     1       1.371   2.947  20.120  0.00  0.00    +0.000 C 
BRANCH  19  20
ATOM     20  C   UNL     1       2.017   2.951  21.490  0.00  0.00    +0.000 C 
ATOM     21  F   UNL     1       3.188   2.289  21.539  0.00  0.00    +0.000 F 
ATOM     22  F   UNL     1       2.254   4.222  21.895  0.00  0.00    +0.000 F 
ATOM     23  F   UNL     1       1.193   2.389  22.406  0.00  0.00    +0.000 F 
ENDBRANCH  19  20
ENDBRANCH   9  19
TORSDOF 5
ENDMDL
MODEL 2
REMARK VINA RESULT:      -8.2      0.956      1.111
REMARK  Name = 
REMARK  6 active torsions:
REMARK  status: ('A' for Active; 'I' for Inactive)
REMARK    1  A    between atoms: C_1  and  C_2
REMARK    2  A    between atoms: C_2  and  O_3
REMARK    3  A    between atoms: O_3  and  C_4
REMARK    4  A    between atoms: C_9  and  C_10
REMARK    5  A    between atoms: N_18  and  C_19
REMARK    6  A    between atoms: C_19  and  C_20
REMARK                            x       y       z     vdW  Elec       q    Type
REMARK                         _______ _______ _______ _____ _____    ______ ____
ROOT
ATOM      1  C   UNL     1       4.562   5.480  17.077  0.00  0.00    +0.000 A 
ATOM      2  C   UNL     1       3.931   6.733  17.251  0.00  0.00    +0.000 A 
ATOM      3  C   UNL     1       3.122   7.022  18.353  0.00  0.00    +0.000 A 
ATOM      4  C   UNL     1       2.863   6.061  19.330  0.00  0.00    +0.000 A 
ATOM      5  C   UNL     1       3.434   4.799  19.139  0.00  0.00    +0.000 A 
ATOM      6  C   UNL     1       4.260   4.493  18.052  0.00  0.00    +0.000 A 
ATOM      7  N   UNL     1       4.675   3.176  18.136  0.00  0.00    +0.000 NA
ATOM      8  C   UNL     1       4.121   2.690  19.221  0.00  0.00    +0.000 A 
ATOM      9  N   UNL     1       3.379   3.633  19.869  0.00  0.00    +0.000 N 
ENDROOT
BRANCH   1  15
ATOM     10  C   UNL     1       6.847   5.507  15.938  0.00  0.00    +0.000 A 
ATOM     11  N   UNL     1       7.696   5.238  14.919  0.00  0.00    +0.000 NA
ATOM     12  C   UNL     1       7.160   4.630  13.857  0.00  0.00    +0.000 A 
ATOM     13  N   UNL     1       5.878   4.289  13.723  0.00  0.00    +0.000 NA
ATOM     14  C   UNL     1       5.078   4.575  14.782  0.00  0.00    +0.000 A 
ATOM     15  C   UNL     1       5.488   5.192  15.958  0.00  0.00    +0.000 A 
BRANCH  10  16
ATOM     16  O   UNL     1       7.414   6.079  17.064  0.00  0.00    +0.000 OA
BRANCH  16  18
ATOM     17  C   UNL     1       7.650   5.732  19.419  0.00  0.00    +0.000 C 
ATOM     18  C   UNL     1       7.774   5.103  18.044  0.00  0.00    +0.000 C 
ENDBRANCH  16  18
ENDBRANCH  10  16
ENDBRANCH   1  15
BRANCH   9  19
ATOM     19  C   UNL     1       2.738   3.435  21.150  0.00  0.00    +0.000 C 
BRANCH  19  20
ATOM     20  C   UNL     1       1.278   3.040  21.068  0.00  0.00    +0.000 C 
ATOM     21  F   UNL     1       0.783   2.553  22.221  0.00  0.00    +0.000 F 
ATOM     22  F   UNL     1       0.521   4.107  20.720  0.00  0.00    +0.000 F 
ATOM     23  F   UNL     1       1.095   2.095  20.115  0.00  0.00    +0.000 F 
ENDBRANCH  19  20
ENDBRANCH   9  19
TORSDOF 5
ENDMDL
MODEL 3
REMARK VINA RESULT:      -8.0      1.214      1.396
REMARK  Name = 
REMARK  6 active torsions:
REMARK  status: ('A' for Active; 'I' for Inactive)
REMARK    1  A    between atoms: C_1  and  C_2
REMARK    2  A    between atoms: C_2  and  O_3
REMARK    3  A    between atoms: O_3  and  C_4
REMARK    4  A    between atoms: C_9  and  C_10
REMARK    5  A    between atoms: N_18  and  C_19
REMARK    6  A    between atoms: C_19  and  C_20
REMARK                            x       y       z     vdW  Elec       q    Type
REMARK                         _______ _______ _______ _____ _____    ______ ____
ROOT
ATOM      1  C   UNL     1       4.548   5.489  17.154  0.00  0.00    +0.000 A 
ATOM      2  C   UNL     1       3.880   6.723  17.321  0.00  0.00    +0.000 A 
ATOM      3  C   UNL     1       3.051   6.989  18.415  0.00  0.00    +0.000 A 
ATOM      4  C   UNL     1       2.810   6.021  19.390  0.00  0.00    +0.000 A 
ATOM      5  C   UNL     1       3.419   4.777  19.205  0.00  0.00    +0.000 A 
ATOM      6  C   UNL     1       4.264   4.494  18.126  0.00  0.00    +0.000 A 
ATOM      7  N   UNL     1       4.716   3.190  18.216  0.00  0.00    +0.000 NA
ATOM      8  C   UNL     1       4.166   2.688  19.294  0.00  0.00    +0.000 A 
ATOM      9  N   UNL     1       3.390   3.610  19.935  0.00  0.00    +0.000 N 
ENDROOT
BRANCH   1  15
ATOM     10  C   UNL     1       6.848   5.561  16.048  0.00  0.00    +0.000 A 
ATOM     11  N   UNL     1       7.715   5.316  15.037  0.00  0.00    +0.000 NA
ATOM     12  C   UNL     1       7.201   4.715  13.960  0.00  0.00    +0.000 A 
ATOM     13  N   UNL     1       5.926   4.358  13.805  0.00  0.00    +0.000 NA
ATOM     14  C   UNL     1       5.108   4.621  14.855  0.00  0.00    +0.000 A 
ATOM     15  C   UNL     1       5.493   5.227  16.045  0.00  0.00    +0.000 A 
BRANCH  10  16
ATOM     16  O   UNL     1       7.391   6.126  17.189  0.00  0.00    +0.000 OA
BRANCH  16  18
ATOM     17  C   UNL     1       8.244   8.064  18.302  0.00  0.00    +0.000 C 
ATOM     18  C   UNL     1       7.467   7.551  17.104  0.00  0.00    +0.000 C 
ENDBRANCH  16  18
ENDBRANCH  10  16
ENDBRANCH   1  15
BRANCH   9  19
ATOM     19  C   UNL     1       2.742   3.393  21.209  0.00  0.00    +0.000 C 
BRANCH  19  20
ATOM     20  C   UNL     1       1.286   2.987  21.113  0.00  0.00    +0.000 C 
ATOM     21  F   UNL     1       1.049   2.036  20.189  0.00  0.00    +0.000 F 
ATOM     22  F   UNL     1       0.851   2.511  22.304  0.00  0.00    +0.000 F 
ATOM     23  F   UNL     1       0.513   4.055  20.805  0.00  0.00    +0.000 F 
ENDBRANCH  19  20
ENDBRANCH   9  19
TORSDOF 5
ENDMDL
MODEL 4
REMARK VINA RESULT:      -6.9      4.324      6.935
REMARK  Name = 
REMARK  6 active torsions:
REMARK  status: ('A' for Active; 'I' for Inactive)
REMARK    1  A    between atoms: C_1  and  C_2
REMARK    2  A    between atoms: C_2  and  O_3
REMARK    3  A    between atoms: O_3  and  C_4
REMARK    4  A    between atoms: C_9  and  C_10
REMARK    5  A    between atoms: N_18  and  C_19
REMARK    6  A    between atoms: C_19  and  C_20
REMARK                            x       y       z     vdW  Elec       q    Type
REMARK                         _______ _______ _______ _____ _____    ______ ____
ROOT
ATOM      1  C   UNL     1       1.866   8.059  19.624  0.00  0.00    +0.000 A 
ATOM      2  C   UNL     1       2.493   8.515  18.442  0.00  0.00    +0.000 A 
ATOM      3  C   UNL     1       3.156   7.655  17.561  0.00  0.00    +0.000 A 
ATOM      4  C   UNL     1       3.266   6.291  17.830  0.00  0.00    +0.000 A 
ATOM      5  C   UNL     1       2.701   5.838  19.025  0.00  0.00    +0.000 A 
ATOM      6  C   UNL     1       2.019   6.678  19.913  0.00  0.00    +0.000 A 
ATOM      7  N   UNL     1       1.572   5.946  20.998  0.00  0.00    +0.000 NA
ATOM      8  C   UNL     1       1.969   4.713  20.794  0.00  0.00    +0.000 A 
ATOM      9  N   UNL     1       2.638   4.593  19.611  0.00  0.00    +0.000 N 
ENDROOT
BRANCH   1  15
ATOM     10  C   UNL     1       0.110   9.848  20.104  0.00  0.00    +0.000 A 
ATOM     11  N   UNL     1      -0.606  10.655  20.922  0.00  0.00    +0.000 NA
ATOM     12  C   UNL     1      -0.322  10.567  22.224  0.00  0.00    +0.000 A 
ATOM     13  N   UNL     1       0.601   9.772  22.764  0.00  0.00    +0.000 NA
ATOM     14  C   UNL     1       1.279   8.979  21.896  0.00  0.00    +0.000 A 
ATOM     15  C   UNL     1       1.090   8.947  20.519  0.00  0.00    +0.000 A 
BRANCH  10  16
ATOM     16  O   UNL     1      -0.228   9.892  18.762  0.00  0.00    +0.000 OA
BRANCH  16  18
ATOM     17  C   UNL     1      -2.109   9.957  17.287  0.00  0.00    +0.000 C 
ATOM     18  C   UNL     1      -1.483  10.538  18.540  0.00  0.00    +0.000 C 
ENDBRANCH  16  18
ENDBRANCH  10  16
ENDBRANCH   1  15
BRANCH   9  19
ATOM     19  C   UNL     1       3.101   3.342  19.053  0.00  0.00    +0.000 C 
BRANCH  19  20
ATOM     20  C   UNL     1       2.010   2.474  18.464  0.00  0.00    +0.000 C 
ATOM     21  F   UNL     1       0.910   3.160  18.098  0.00  0.00    +0.000 F 
ATOM     22  F   UNL     1       2.466   1.826  17.365  0.00  0.00    +0.000 F 
ATOM     23  F   UNL     1       1.624   1.528  19.352  0.00  0.00    +0.000 F 
ENDBRANCH  19  20
ENDBRANCH   9  19
TORSDOF 5
ENDMDL
MODEL 5
REMARK VINA RESULT:      -6.8      4.464      6.261
REMARK  Name = 
REMARK  6 active torsions:
REMARK  status: ('A' for Active; 'I' for Inactive)
REMARK    1  A    between atoms: C_1  and  C_2
REMARK    2  A    between atoms: C_2  and  O_3
REMARK    3  A    between atoms: O_3  and  C_4
REMARK    4  A    between atoms: C_9  and  C_10
REMARK    5  A    between atoms: N_18  and  C_19
REMARK    6  A    between atoms: C_19  and  C_20
REMARK                            x       y       z     vdW  Elec       q    Type
REMARK                         _______ _______ _______ _____ _____    ______ ____
ROOT
ATOM      1  C   UNL     1       2.476   6.745  19.232  0.00  0.00    +0.000 A 
ATOM      2  C   UNL     1       1.994   6.446  20.527  0.00  0.00    +0.000 A 
ATOM      3  C   UNL     1       1.208   7.336  21.263  0.00  0.00    +0.000 A 
ATOM      4  C   UNL     1       0.886   8.597  20.763  0.00  0.00    +0.000 A 
ATOM      5  C   UNL     1       1.404   8.928  19.508  0.00  0.00    +0.000 A 
ATOM      6  C   UNL     1       2.181   8.047  18.747  0.00  0.00    +0.000 A 
ATOM      7  N   UNL     1       2.542   8.651  17.556  0.00  0.00    +0.000 NA
ATOM      8  C   UNL     1       2.022   9.853  17.586  0.00  0.00    +0.000 A 
ATOM      9  N   UNL     1       1.312  10.062  18.732  0.00  0.00    +0.000 N 
ENDROOT
BRANCH   1  15
ATOM     10  C   UNL     1       2.715   4.612  17.851  0.00  0.00    +0.000 A 
ATOM     11  N   UNL     1       3.409   3.730  17.094  0.00  0.00    +0.000 NA
ATOM     12  C   UNL     1       4.698   4.020  16.892  0.00  0.00    +0.000 A 
ATOM     13  N   UNL     1       5.339   5.081  17.381  0.00  0.00    +0.000 NA
ATOM     14  C   UNL     1       4.589   5.934  18.123  0.00  0.00    +0.000 A 
ATOM     15  C   UNL     1       3.238   5.778  18.411  0.00  0.00    +0.000 A 
BRANCH  10  16
ATOM     16  O   UNL     1       1.366   4.345  18.008  0.00  0.00    +0.000 OA
BRANCH  16  18
ATOM     17  C   UNL     1       0.940   3.070  19.986  0.00  0.00    +0.000 C 
ATOM     18  C   UNL     1       1.127   3.018  18.481  0.00  0.00    +0.000 C 
ENDBRANCH  16  18
ENDBRANCH  10  16
ENDBRANCH   1  15
BRANCH   9  19
ATOM     19  C   UNL     1       0.530  11.247  19.009  0.00  0.00    +0.000 C 
BRANCH  19  20
ATOM     20  C   UNL     1      -0.914  11.165  18.562  0.00  0.00    +0.000 C 
ATOM     21  F   UNL     1      -1.326  12.239  17.860  0.00  0.00    +0.000 F 
ATOM     22  F   UNL     1      -1.104  10.075  17.782  0.00  0.00    +0.000 F 
ATOM     23  F   UNL     1      -1.736  11.038  19.631  0.00  0.00    +0.000 F 
ENDBRANCH  19  20
ENDBRANCH   9  19
TORSDOF 5
ENDMDL
MODEL 6
REMARK VINA RESULT:      -6.8      3.858      6.523
REMARK  Name = 
REMARK  6 active torsions:
REMARK  status: ('A' for Active; 'I' for Inactive)
REMARK    1  A    between atoms: C_1  and  C_2
REMARK    2  A    between atoms: C_2  and  O_3
REMARK    3  A    between atoms: O_3  and  C_4
REMARK    4  A    between atoms: C_9  and  C_10
REMARK    5  A    between atoms: N_18  and  C_19
REMARK    6  A    between atoms: C_19  and  C_20
REMARK                            x       y       z     vdW  Elec       q    Type
REMARK                         _______ _______ _______ _____ _____    ______ ____
ROOT
ATOM      1  C   UNL     1       5.170   4.684  18.872  0.00  0.00    +0.000 A 
ATOM      2  C   UNL     1       6.320   5.295  19.423  0.00  0.00    +0.000 A 
ATOM      3  C   UNL     1       7.398   5.715  18.640  0.00  0.00    +0.000 A 
ATOM      4  C   UNL     1       7.408   5.515  17.260  0.00  0.00    +0.000 A 
ATOM      5  C   UNL     1       6.303   4.861  16.710  0.00  0.00    +0.000 A 
ATOM      6  C   UNL     1       5.206   4.445  17.473  0.00  0.00    +0.000 A 
ATOM      7  N   UNL     1       4.272   3.835  16.656  0.00  0.00    +0.000 NA
ATOM      8  C   UNL     1       4.775   3.863  15.445  0.00  0.00    +0.000 A 
ATOM      9  N   UNL     1       5.989   4.486  15.423  0.00  0.00    +0.000 N 
ENDROOT
BRANCH   1  15
ATOM     10  C   UNL     1       2.987   5.193  20.094  0.00  0.00    +0.000 A 
ATOM     11  N   UNL     1       1.902   4.853  20.828  0.00  0.00    +0.000 NA
ATOM     12  C   UNL     1       1.814   3.567  21.180  0.00  0.00    +0.000 A 
ATOM     13  N   UNL     1       2.702   2.619  20.881  0.00  0.00    +0.000 NA
ATOM     14  C   UNL     1       3.763   3.018  20.135  0.00  0.00    +0.000 A 
ATOM     15  C   UNL     1       3.988   4.313  19.682  0.00  0.00    +0.000 A 
BRANCH  10  16
ATOM     16  O   UNL     1       3.046   6.511  19.674  0.00  0.00    +0.000 OA
BRANCH  16  18
ATOM     17  C   UNL     1       3.226   7.669  17.590  0.00  0.00    +0.000 C 
ATOM     18  C   UNL     1       2.394   6.709  18.418  0.00  0.00    +0.000 C 
ENDBRANCH  16  18
ENDBRANCH  10  16
ENDBRANCH   1  15
BRANCH   9  19
ATOM     19  C   UNL     1       6.743   4.772  14.222  0.00  0.00    +0.000 C 
BRANCH  19  20
ATOM     20  C   UNL     1       6.321   3.969  13.010  0.00  0.00    +0.000 C 
ATOM     21  F   UNL     1       5.028   4.134  12.672  0.00  0.00    +0.000 F 
ATOM     22  F   UNL     1       7.068   4.315  11.934  0.00  0.00    +0.000 F 
ATOM     23  F   UNL     1       6.520   2.646  13.223  0.00  0.00    +0.000 F 
ENDBRANCH  19  20
ENDBRANCH   9  19
TORSDOF 5
ENDMDL
MODEL 7
REMARK VINA RESULT:      -6.8      4.117      6.690
REMARK  Name = 
REMARK  6 active torsions:
REMARK  status: ('A' for Active; 'I' for Inactive)
REMARK    1  A    between atoms: C_1  and  C_2
REMARK    2  A    between atoms: C_2  and  O_3
REMARK    3  A    between atoms: O_3  and  C_4
REMARK    4  A    between atoms: C_9  and  C_10
REMARK    5  A    between atoms: N_18  and  C_19
REMARK    6  A    between atoms: C_19  and  C_20
REMARK                            x       y       z     vdW  Elec       q    Type
REMARK                         _______ _______ _______ _____ _____    ______ ____
ROOT
ATOM      1  C   UNL     1       2.944   5.738  18.100  0.00  0.00    +0.000 A 
ATOM      2  C   UNL     1       2.320   4.505  17.802  0.00  0.00    +0.000 A 
ATOM      3  C   UNL     1       2.946   3.506  17.053  0.00  0.00    +0.000 A 
ATOM      4  C   UNL     1       4.223   3.693  16.524  0.00  0.00    +0.000 A 
ATOM      5  C   UNL     1       4.828   4.930  16.762  0.00  0.00    +0.000 A 
ATOM      6  C   UNL     1       4.225   5.939  17.522  0.00  0.00    +0.000 A 
ATOM      7  N   UNL     1       5.062   7.039  17.586  0.00  0.00    +0.000 NA
ATOM      8  C   UNL     1       6.127   6.726  16.888  0.00  0.00    +0.000 A 
ATOM      9  N   UNL     1       6.041   5.460  16.387  0.00  0.00    +0.000 N 
ENDROOT
BRANCH   1  15
ATOM     10  C   UNL     1       1.940   6.581  20.291  0.00  0.00    +0.000 A 
ATOM     11  N   UNL     1       1.379   7.525  21.083  0.00  0.00    +0.000 NA
ATOM     12  C   UNL     1       1.179   8.718  20.517  0.00  0.00    +0.000 A 
ATOM     13  N   UNL     1       1.472   9.038  19.257  0.00  0.00    +0.000 NA
ATOM     14  C   UNL     1       2.042   8.054  18.516  0.00  0.00    +0.000 A 
ATOM     15  C   UNL     1       2.324   6.769  18.963  0.00  0.00    +0.000 A 
BRANCH  10  16
ATOM     16  O   UNL     1       2.206   5.363  20.894  0.00  0.00    +0.000 OA
BRANCH  16  18
ATOM     17  C   UNL     1       1.564   3.090  21.269  0.00  0.00    +0.000 C 
ATOM     18  C   UNL     1       1.110   4.452  20.780  0.00  0.00    +0.000 C 
ENDBRANCH  16  18
ENDBRANCH  10  16
ENDBRANCH   1  15
BRANCH   9  19
ATOM     19  C   UNL     1       7.102   4.788  15.670  0.00  0.00    +0.000 C 
BRANCH  19  20
ATOM     20  C   UNL     1       6.896   4.707  14.172  0.00  0.00    +0.000 C 
ATOM     21  F   UNL     1       7.905   5.240  13.456  0.00  0.00    +0.000 F 
ATOM     22  F   UNL     1       6.762   3.416  13.784  0.00  0.00    +0.000 F 
ATOM     23  F   UNL     1       5.759   5.350  13.813  0.00  0.00    +0.000 F 
ENDBRANCH  19  20
ENDBRANCH   9  19
TORSDOF 5
ENDMDL
MODEL 8
REMARK VINA RESULT:      -6.8      3.948      6.504
REMARK  Name = 
REMARK  6 active torsions:
REMARK  status: ('A' for Active; 'I' for Inactive)
REMARK    1  A    between atoms: C_1  and  C_2
REMARK    2  A    between atoms: C_2  and  O_3
REMARK    3  A    between atoms: O_3  and  C_4
REMARK    4  A    between atoms: C_9  and  C_10
REMARK    5  A    between atoms: N_18  and  C_19
REMARK    6  A    between atoms: C_19  and  C_20
REMARK                            x       y       z     vdW  Elec       q    Type
REMARK                         _______ _______ _______ _____ _____    ______ ____
ROOT
ATOM      1  C   UNL     1       3.073   5.449  19.203  0.00  0.00    +0.000 A 
ATOM      2  C   UNL     1       2.301   6.511  18.679  0.00  0.00    +0.000 A 
ATOM      3  C   UNL     1       2.835   7.478  17.822  0.00  0.00    +0.000 A 
ATOM      4  C   UNL     1       4.183   7.463  17.468  0.00  0.00    +0.000 A 
ATOM      5  C   UNL     1       4.970   6.452  18.026  0.00  0.00    +0.000 A 
ATOM      6  C   UNL     1       4.454   5.465  18.873  0.00  0.00    +0.000 A 
ATOM      7  N   UNL     1       5.466   4.605  19.260  0.00  0.00    +0.000 NA
ATOM      8  C   UNL     1       6.558   5.048  18.686  0.00  0.00    +0.000 A 
ATOM      9  N   UNL     1       6.308   6.148  17.918  0.00  0.00    +0.000 N 
ENDROOT
BRANCH   1  15
ATOM     10  C   UNL     1       1.790   3.272  19.562  0.00  0.00    +0.000 A 
ATOM     11  N   UNL     1       1.270   2.283  20.328  0.00  0.00    +0.000 NA
ATOM     12  C   UNL     1       1.459   2.404  21.645  0.00  0.00    +0.000 A 
ATOM     13  N   UNL     1       2.094   3.409  22.248  0.00  0.00    +0.000 NA
ATOM     14  C   UNL     1       2.601   4.364  21.428  0.00  0.00    +0.000 A 
ATOM     15  C   UNL     1       2.499   4.373  20.042  0.00  0.00    +0.000 A 
BRANCH  10  16
ATOM     16  O   UNL     1       1.650   3.115  18.194  0.00  0.00    +0.000 OA
BRANCH  16  18
ATOM     17  C   UNL     1       3.716   2.005  17.725  0.00  0.00    +0.000 C 
ATOM     18  C   UNL     1       2.205   1.881  17.731  0.00  0.00    +0.000 C 
ENDBRANCH  16  18
ENDBRANCH  10  16
ENDBRANCH   1  15
BRANCH   9  19
ATOM     19  C   UNL     1       7.285   6.798  17.074  0.00  0.00    +0.000 C 
BRANCH  19  20
ATOM     20  C   UNL     1       7.923   8.029  17.684  0.00  0.00    +0.000 C 
ATOM     21  F   UNL     1       7.041   8.999  17.993  0.00  0.00    +0.000 F 
ATOM     22  F   UNL     1       8.581   7.703  18.821  0.00  0.00    +0.000 F 
ATOM     23  F   UNL     1       8.833   8.563  16.835  0.00  0.00    +0.000 F 
ENDBRANCH  19  20
ENDBRANCH   9  19
TORSDOF 5
ENDMDL
MODEL 9
REMARK VINA RESULT:      -6.7      4.707      7.322
REMARK  Name = 
REMARK  6 active torsions:
REMARK  status: ('A' for Active; 'I' for Inactive)
REMARK    1  A    between atoms: C_1  and  C_2
REMARK    2  A    between atoms: C_2  and  O_3
REMARK    3  A    between atoms: O_3  and  C_4
REMARK    4  A    between atoms: C_9  and  C_10
REMARK    5  A    between atoms: N_18  and  C_19
REMARK    6  A    between atoms: C_19  and  C_20
REMARK                            x       y       z     vdW  Elec       q    Type
REMARK                         _______ _______ _______ _____ _____    ______ ____
ROOT
ATOM      1  C   UNL     1       1.557   8.464  19.937  0.00  0.00    +0.000 A 
ATOM      2  C   UNL     1       2.022   9.107  18.767  0.00  0.00    +0.000 A 
ATOM      3  C   UNL     1       2.671   8.420  17.738  0.00  0.00    +0.000 A 
ATOM      4  C   UNL     1       2.929   7.053  17.833  0.00  0.00    +0.000 A 
ATOM      5  C   UNL     1       2.527   6.416  19.010  0.00  0.00    +0.000 A 
ATOM      6  C   UNL     1       1.862   7.081  20.047  0.00  0.00    +0.000 A 
ATOM      7  N   UNL     1       1.590   6.194  21.072  0.00  0.00    +0.000 NA
ATOM      8  C   UNL     1       2.074   5.037  20.690  0.00  0.00    +0.000 A 
ATOM      9  N   UNL     1       2.633   5.116  19.447  0.00  0.00    +0.000 N 
ENDROOT
BRANCH   1  15
ATOM     10  C   UNL     1      -0.340   9.947  20.782  0.00  0.00    +0.000 A 
ATOM     11  N   UNL     1      -1.043  10.584  21.748  0.00  0.00    +0.000 NA
ATOM     12  C   UNL     1      -0.583  10.441  22.994  0.00  0.00    +0.000 A 
ATOM     13  N   UNL     1       0.499   9.747  23.347  0.00  0.00    +0.000 NA
ATOM     14  C   UNL     1       1.156   9.123  22.336  0.00  0.00    +0.000 A 
ATOM     15  C   UNL     1       0.795   9.165  20.994  0.00  0.00    +0.000 A 
BRANCH  10  16
ATOM     16  O   UNL     1      -0.852  10.042  19.499  0.00  0.00    +0.000 OA
BRANCH  16  18
ATOM     17  C   UNL     1      -0.182  12.183  18.672  0.00  0.00    +0.000 C 
ATOM     18  C   UNL     1      -1.336  11.354  19.204  0.00  0.00    +0.000 C 
ENDBRANCH  16  18
ENDBRANCH  10  16
ENDBRANCH   1  15
BRANCH   9  19
ATOM     19  C   UNL     1       3.151   3.986  18.708  0.00  0.00    +0.000 C 
BRANCH  19  20
ATOM     20  C   UNL     1       2.161   3.352  17.753  0.00  0.00    +0.000 C 
ATOM     21  F   UNL     1       1.795   2.104  18.102  0.00  0.00    +0.000 F 
ATOM     22  F   UNL     1       1.033   4.099  17.681  0.00  0.00    +0.000 F 
ATOM     23  F   UNL     1       2.678   3.291  16.504  0.00  0.00    +0.000 F 
ENDBRANCH  19  20
ENDBRANCH   9  19
TORSDOF 5
ENDMDL
