MODEL 1
REMARK VINA RESULT:      -7.4      0.000      0.000
REMARK  Name = 
REMARK  4 active torsions:
REMARK  status: ('A' for Active; 'I' for Inactive)
REMARK    1  A    between atoms: C_1  and  C_2
REMARK    2  A    between atoms: C_4  and  C_5
REMARK    3  A    between atoms: C_7  and  C_8
REMARK    4  A    between atoms: N_10  and  C_11
REMARK                            x       y       z     vdW  Elec       q    Type
REMARK                         _______ _______ _______ _____ _____    ______ ____
ROOT
ATOM      1  C   UNL     1       5.518   5.553  15.956  0.00  0.00    +0.000 C 
ATOM      2  C   UNL     1       4.591   5.063  17.035  0.00  0.00    +0.000 A 
ATOM      3  C   UNL     1       4.414   3.690  17.216  0.00  0.00    +0.000 A 
ATOM      4  C   UNL     1       3.557   3.204  18.216  0.00  0.00    +0.000 A 
ATOM      5  C   UNL     1       3.370   1.723  18.374  0.00  0.00    +0.000 C 
ATOM      6  C   UNL     1       2.908   4.179  19.008  0.00  0.00    +0.000 A 
ATOM      7  C   UNL     1       1.979   4.215  20.090  0.00  0.00    +0.000 A 
ATOM      8  C   UNL     1       1.326   3.092  20.806  0.00  0.00    +0.000 C 
ATOM      9  N   UNL     1       1.673   5.469  20.453  0.00  0.00    +0.000 NA
ATOM     10  N   UNL     1       2.383   6.239  19.600  0.00  0.00    +0.000 N 
ATOM     11  C   UNL     1       3.158   5.516  18.727  0.00  0.00    +0.000 A 
ATOM     12  N   UNL     1       3.969   6.014  17.769  0.00  0.00    +0.000 NA
ENDROOT
BRANCH  10  13
ATOM     13  C   UNL     1       2.179   7.681  19.573  0.00  0.00    +0.000 C 
ATOM     14  C   UNL     1       1.131   8.175  20.582  0.00  0.00    +0.000 C 
ATOM     15  C   UNL     1       1.055   9.704  20.562  0.00  0.00    +0.000 C 
ATOM     16  C   UNL     1       0.788  10.254  19.161  0.00  0.00    +0.000 C 
ATOM     17  C   UNL     1       1.744   9.685  18.114  0.00  0.00    +0.000 C 
ATOM     18  C   UNL     1       1.807   8.161  18.163  0.00  0.00    +0.000 C 
ENDBRANCH  10  13
TORSDOF 1
ENDMDL
MODEL 2
REMARK VINA RESULT:      -7.0      2.003      4.633
REMARK  Name = 
REMARK  4 active torsions:
REMARK  status: ('A' for Active; 'I' for Inactive)
REMARK    1  A    between atoms: C_1  and  C_2
REMARK    2  A    between atoms: C_4  and  C_5
REMARK    3  A    between atoms: C_7  and  C_8
REMARK    4  A    between atoms: N_10  and  C_11
REMARK                            x       y       z     vdW  Elec       q    Type
REMARK                         _______ _______ _______ _____ _____    ______ ____
ROOT
ATOM      1  C   UNL     1       1.918   7.794  20.450  0.00  0.00    +0.000 C 
ATOM      2  C   UNL     1       2.252   6.404  19.984  0.00  0.00    +0.000 A 
ATOM      3  C   UNL     1       1.360   5.361  20.241  0.00  0.00    +0.000 A 
ATOM      4  C   UNL     1       1.644   4.053  19.816  0.00  0.00    +0.000 A 
ATOM      5  C   UNL     1       0.676   2.949  20.125  0.00  0.00    +0.000 C 
ATOM      6  C   UNL     1       2.864   3.875  19.124  0.00  0.00    +0.000 A 
ATOM      7  C   UNL     1       3.592   2.805  18.524  0.00  0.00    +0.000 A 
ATOM      8  C   UNL     1       3.243   1.366  18.432  0.00  0.00    +0.000 C 
ATOM      9  N   UNL     1       4.759   3.215  18.005  0.00  0.00    +0.000 NA
ATOM     10  N   UNL     1       4.795   4.535  18.286  0.00  0.00    +0.000 N 
ATOM     11  C   UNL     1       3.673   4.988  18.936  0.00  0.00    +0.000 A 
ATOM     12  N   UNL     1       3.431   6.254  19.338  0.00  0.00    +0.000 NA
ENDROOT
BRANCH  10  13
ATOM     13  C   UNL     1       6.003   5.306  18.024  0.00  0.00    +0.000 C 
ATOM     14  C   UNL     1       6.827   5.609  19.285  0.00  0.00    +0.000 C 
ATOM     15  C   UNL     1       8.126   6.326  18.910  0.00  0.00    +0.000 C 
ATOM     16  C   UNL     1       7.875   7.590  18.088  0.00  0.00    +0.000 C 
ATOM     17  C   UNL     1       6.958   7.341  16.891  0.00  0.00    +0.000 C 
ATOM     18  C   UNL     1       5.677   6.616  17.292  0.00  0.00    +0.000 C 
ENDBRANCH  10  13
TORSDOF 1
ENDMDL
MODEL 3
REMARK VINA RESULT:      -7.0      1.667      5.541
REMARK  Name = 
REMARK  4 active torsions:
REMARK  status: ('A' for Active; 'I' for Inactive)
REMARK    1  A    between atoms: C_1  and  C_2
REMARK    2  A    between atoms: C_4  and  C_5
REMARK    3  A    between atoms: C_7  and  C_8
REMARK    4  A    between atoms: N_10  and  C_11
REMARK                            x       y       z     vdW  Elec       q    Type
REMARK                         _______ _______ _______ _____ _____    ______ ____
ROOT
ATOM      1  C   UNL     1       2.850   2.861  21.187  0.00  0.00    +0.000 C 
ATOM      2  C   UNL     1       2.751   4.197  20.504  0.00  0.00    +0.000 A 
ATOM      3  C   UNL     1       1.825   5.135  20.963  0.00  0.00    +0.000 A 
ATOM      4  C   UNL     1       1.712   6.392  20.346  0.00  0.00    +0.000 A 
ATOM      5  C   UNL     1       0.693   7.372  20.849  0.00  0.00    +0.000 C 
ATOM      6  C   UNL     1       2.582   6.633  19.259  0.00  0.00    +0.000 A 
ATOM      7  C   UNL     1       2.850   7.683  18.332  0.00  0.00    +0.000 A 
ATOM      8  C   UNL     1       2.211   9.016  18.212  0.00  0.00    +0.000 C 
ATOM      9  N   UNL     1       3.809   7.352  17.454  0.00  0.00    +0.000 NA
ATOM     10  N   UNL     1       4.145   6.089  17.799  0.00  0.00    +0.000 N 
ATOM     11  C   UNL     1       3.455   5.618  18.889  0.00  0.00    +0.000 A 
ATOM     12  N   UNL     1       3.582   4.399  19.456  0.00  0.00    +0.000 NA
ENDROOT
BRANCH  10  13
ATOM     13  C   UNL     1       5.050   5.318  16.958  0.00  0.00    +0.000 C 
ATOM     14  C   UNL     1       6.508   5.336  17.442  0.00  0.00    +0.000 C 
ATOM     15  C   UNL     1       7.369   4.420  16.568  0.00  0.00    +0.000 C 
ATOM     16  C   UNL     1       7.266   4.771  15.083  0.00  0.00    +0.000 C 
ATOM     17  C   UNL     1       5.821   4.877  14.602  0.00  0.00    +0.000 C 
ATOM     18  C   UNL     1       4.984   5.787  15.497  0.00  0.00    +0.000 C 
ENDBRANCH  10  13
TORSDOF 1
ENDMDL
MODEL 4
REMARK VINA RESULT:      -6.9      1.309      3.299
REMARK  Name = 
REMARK  4 active torsions:
REMARK  status: ('A' for Active; 'I' for Inactive)
REMARK    1  A    between atoms: C_1  and  C_2
REMARK    2  A    between atoms: C_4  and  C_5
REMARK    3  A    between atoms: C_7  and  C_8
REMARK    4  A    between atoms: N_10  and  C_11
REMARK                            x       y       z     vdW  Elec       q    Type
REMARK                         _______ _______ _______ _____ _____    ______ ____
ROOT
ATOM      1  C   UNL     1       0.919   2.453  18.624  0.00  0.00    +0.000 C 
ATOM      2  C   UNL     1       1.955   3.453  18.190  0.00  0.00    +0.000 A 
ATOM      3  C   UNL     1       3.125   3.005  17.573  0.00  0.00    +0.000 A 
ATOM      4  C   UNL     1       4.109   3.916  17.156  0.00  0.00    +0.000 A 
ATOM      5  C   UNL     1       5.365   3.404  16.515  0.00  0.00    +0.000 C 
ATOM      6  C   UNL     1       3.834   5.282  17.394  0.00  0.00    +0.000 A 
ATOM      7  C   UNL     1       4.472   6.541  17.186  0.00  0.00    +0.000 A 
ATOM      8  C   UNL     1       5.791   6.835  16.576  0.00  0.00    +0.000 C 
ATOM      9  N   UNL     1       3.738   7.564  17.648  0.00  0.00    +0.000 NA
ATOM     10  N   UNL     1       2.642   6.970  18.169  0.00  0.00    +0.000 N 
ATOM     11  C   UNL     1       2.638   5.604  18.023  0.00  0.00    +0.000 A 
ATOM     12  N   UNL     1       1.678   4.752  18.442  0.00  0.00    +0.000 NA
ENDROOT
BRANCH  10  13
ATOM     13  C   UNL     1       1.675   7.754  18.925  0.00  0.00    +0.000 C 
ATOM     14  C   UNL     1       1.606   9.228  18.498  0.00  0.00    +0.000 C 
ATOM     15  C   UNL     1       0.497   9.952  19.265  0.00  0.00    +0.000 C 
ATOM     16  C   UNL     1       0.654   9.813  20.780  0.00  0.00    +0.000 C 
ATOM     17  C   UNL     1       0.844   8.363  21.221  0.00  0.00    +0.000 C 
ATOM     18  C   UNL     1       1.948   7.664  20.433  0.00  0.00    +0.000 C 
ENDBRANCH  10  13
TORSDOF 1
ENDMDL
MODEL 5
REMARK VINA RESULT:      -6.9      1.699      2.383
REMARK  Name = 
REMARK  4 active torsions:
REMARK  status: ('A' for Active; 'I' for Inactive)
REMARK    1  A    between atoms: C_1  and  C_2
REMARK    2  A    between atoms: C_4  and  C_5
REMARK    3  A    between atoms: C_7  and  C_8
REMARK    4  A    between atoms: N_10  and  C_11
REMARK                            x       y       z     vdW  Elec       q    Type
REMARK                         _______ _______ _______ _____ _____    ______ ____
ROOT
ATOM      1  C   UNL     1       7.680   7.822  17.299  0.00  0.00    +0.000 C 
ATOM      2  C   UNL     1       6.535   6.847  17.267  0.00  0.00    +0.000 A 
ATOM      3  C   UNL     1       6.687   5.631  16.598  0.00  0.00    +0.000 A 
ATOM      4  C   UNL     1       5.635   4.701  16.554  0.00  0.00    +0.000 A 
ATOM      5  C   UNL     1       5.821   3.411  15.809  0.00  0.00    +0.000 C 
ATOM      6  C   UNL     1       4.446   5.073  17.222  0.00  0.00    +0.000 A 
ATOM      7  C   UNL     1       3.150   4.526  17.457  0.00  0.00    +0.000 A 
ATOM      8  C   UNL     1       2.583   3.230  17.011  0.00  0.00    +0.000 C 
ATOM      9  N   UNL     1       2.371   5.355  18.166  0.00  0.00    +0.000 NA
ATOM     10  N   UNL     1       3.150   6.439  18.372  0.00  0.00    +0.000 N 
ATOM     11  C   UNL     1       4.413   6.314  17.846  0.00  0.00    +0.000 A 
ATOM     12  N   UNL     1       5.402   7.231  17.899  0.00  0.00    +0.000 NA
ENDROOT
BRANCH  10  13
ATOM     13  C   UNL     1       2.588   7.641  18.971  0.00  0.00    +0.000 C 
ATOM     14  C   UNL     1       1.728   7.367  20.215  0.00  0.00    +0.000 C 
ATOM     15  C   UNL     1       1.265   8.685  20.841  0.00  0.00    +0.000 C 
ATOM     16  C   UNL     1       0.533   9.578  19.840  0.00  0.00    +0.000 C 
ATOM     17  C   UNL     1       1.315   9.771  18.542  0.00  0.00    +0.000 C 
ATOM     18  C   UNL     1       1.773   8.443  17.946  0.00  0.00    +0.000 C 
ENDBRANCH  10  13
TORSDOF 1
ENDMDL
MODEL 6
REMARK VINA RESULT:      -6.9      1.491      5.139
REMARK  Name = 
REMARK  4 active torsions:
REMARK  status: ('A' for Active; 'I' for Inactive)
REMARK    1  A    between atoms: C_1  and  C_2
REMARK    2  A    between atoms: C_4  and  C_5
REMARK    3  A    between atoms: C_7  and  C_8
REMARK    4  A    between atoms: N_10  and  C_11
REMARK                            x       y       z     vdW  Elec       q    Type
REMARK                         _______ _______ _______ _____ _____    ______ ____
ROOT
ATOM      1  C   UNL     1       2.006   7.821  20.040  0.00  0.00    +0.000 C 
ATOM      2  C   UNL     1       2.251   6.360  19.783  0.00  0.00    +0.000 A 
ATOM      3  C   UNL     1       1.641   5.407  20.600  0.00  0.00    +0.000 A 
ATOM      4  C   UNL     1       1.850   4.036  20.382  0.00  0.00    +0.000 A 
ATOM      5  C   UNL     1       1.197   3.035  21.290  0.00  0.00    +0.000 C 
ATOM      6  C   UNL     1       2.697   3.699  19.301  0.00  0.00    +0.000 A 
ATOM      7  C   UNL     1       3.216   2.518  18.693  0.00  0.00    +0.000 A 
ATOM      8  C   UNL     1       2.996   1.098  19.060  0.00  0.00    +0.000 C 
ATOM      9  N   UNL     1       4.030   2.794  17.663  0.00  0.00    +0.000 NA
ATOM     10  N   UNL     1       4.053   4.144  17.619  0.00  0.00    +0.000 N 
ATOM     11  C   UNL     1       3.253   4.737  18.564  0.00  0.00    +0.000 A 
ATOM     12  N   UNL     1       3.077   6.062  18.754  0.00  0.00    +0.000 NA
ENDROOT
BRANCH  10  13
ATOM     13  C   UNL     1       4.975   4.830  16.724  0.00  0.00    +0.000 C 
ATOM     14  C   UNL     1       5.232   4.080  15.408  0.00  0.00    +0.000 C 
ATOM     15  C   UNL     1       6.123   4.916  14.485  0.00  0.00    +0.000 C 
ATOM     16  C   UNL     1       7.431   5.329  15.160  0.00  0.00    +0.000 C 
ATOM     17  C   UNL     1       7.210   5.972  16.528  0.00  0.00    +0.000 C 
ATOM     18  C   UNL     1       6.311   5.123  17.422  0.00  0.00    +0.000 C 
ENDBRANCH  10  13
TORSDOF 1
ENDMDL
MODEL 7
REMARK VINA RESULT:      -6.9      1.958      4.763
REMARK  Name = 
REMARK  4 active torsions:
REMARK  status: ('A' for Active; 'I' for Inactive)
REMARK    1  A    between atoms: C_1  and  C_2
REMARK    2  A    between atoms: C_4  and  C_5
REMARK    3  A    between atoms: C_7  and  C_8
REMARK    4  A    between atoms: N_10  and  C_11
REMARK                            x       y       z     vdW  Elec       q    Type
REMARK                         _______ _______ _______ _____ _____    ______ ____
ROOT
ATOM      1  C   UNL     1       1.089   7.271  21.123  0.00  0.00    +0.000 C 
ATOM      2  C   UNL     1       1.673   6.065  20.439  0.00  0.00    +0.000 A 
ATOM      3  C   UNL     1       0.978   4.855  20.470  0.00  0.00    +0.000 A 
ATOM      4  C   UNL     1       1.498   3.714  19.838  0.00  0.00    +0.000 A 
ATOM      5  C   UNL     1       0.738   2.421  19.906  0.00  0.00    +0.000 C 
ATOM      6  C   UNL     1       2.740   3.876  19.183  0.00  0.00    +0.000 A 
ATOM      7  C   UNL     1       3.657   3.074  18.441  0.00  0.00    +0.000 A 
ATOM      8  C   UNL     1       3.572   1.636  18.085  0.00  0.00    +0.000 C 
ATOM      9  N   UNL     1       4.739   3.766  18.056  0.00  0.00    +0.000 NA
ATOM     10  N   UNL     1       4.534   5.001  18.562  0.00  0.00    +0.000 N 
ATOM     11  C   UNL     1       3.340   5.128  19.229  0.00  0.00    +0.000 A 
ATOM     12  N   UNL     1       2.869   6.240  19.833  0.00  0.00    +0.000 NA
ENDROOT
BRANCH  10  13
ATOM     13  C   UNL     1       5.588   6.003  18.495  0.00  0.00    +0.000 C 
ATOM     14  C   UNL     1       5.614   6.785  17.172  0.00  0.00    +0.000 C 
ATOM     15  C   UNL     1       6.678   7.884  17.225  0.00  0.00    +0.000 C 
ATOM     16  C   UNL     1       8.060   7.336  17.579  0.00  0.00    +0.000 C 
ATOM     17  C   UNL     1       8.043   6.455  18.826  0.00  0.00    +0.000 C 
ATOM     18  C   UNL     1       6.966   5.376  18.751  0.00  0.00    +0.000 C 
ENDBRANCH  10  13
TORSDOF 1
ENDMDL
MODEL 8
REMARK VINA RESULT:      -6.7      1.565      5.253
REMARK  Name = 
REMARK  4 active torsions:
REMARK  status: ('A' for Active; 'I' for Inactive)
REMARK    1  A    between atoms: C_1  and  C_2
REMARK    2  A    between atoms: C_4  and  C_5
REMARK    3  A    between atoms: C_7  and  C_8
REMARK    4  A    between atoms: N_10  and  C_11
REMARK                            x       y       z     vdW  Elec       q    Type
REMARK                         _______ _______ _______ _____ _____    ______ ____
ROOT
ATOM      1  C   UNL     1       2.137  10.359  17.669  0.00  0.00    +0.000 C 
ATOM      2  C   UNL     1       2.177   9.050  18.407  0.00  0.00    +0.000 A 
ATOM      3  C   UNL     1       1.480   8.918  19.610  0.00  0.00    +0.000 A 
ATOM      4  C   UNL     1       1.498   7.706  20.319  0.00  0.00    +0.000 A 
ATOM      5  C   UNL     1       0.756   7.600  21.620  0.00  0.00    +0.000 C 
ATOM      6  C   UNL     1       2.248   6.656  19.741  0.00  0.00    +0.000 A 
ATOM      7  C   UNL     1       2.582   5.304  20.045  0.00  0.00    +0.000 A 
ATOM      8  C   UNL     1       2.191   4.480  21.215  0.00  0.00    +0.000 C 
ATOM      9  N   UNL     1       3.382   4.758  19.117  0.00  0.00    +0.000 NA
ATOM     10  N   UNL     1       3.581   5.757  18.230  0.00  0.00    +0.000 N 
ATOM     11  C   UNL     1       2.905   6.911  18.544  0.00  0.00    +0.000 A 
ATOM     12  N   UNL     1       2.914   8.065  17.843  0.00  0.00    +0.000 NA
ENDROOT
BRANCH  10  13
ATOM     13  C   UNL     1       4.547   5.597  17.152  0.00  0.00    +0.000 C 
ATOM     14  C   UNL     1       4.569   4.185  16.547  0.00  0.00    +0.000 C 
ATOM     15  C   UNL     1       5.530   4.131  15.357  0.00  0.00    +0.000 C 
ATOM     16  C   UNL     1       6.937   4.604  15.726  0.00  0.00    +0.000 C 
ATOM     17  C   UNL     1       6.935   5.955  16.439  0.00  0.00    +0.000 C 
ATOM     18  C   UNL     1       5.960   5.983  17.613  0.00  0.00    +0.000 C 
ENDBRANCH  10  13
TORSDOF 1
ENDMDL
MODEL 9
REMARK VINA RESULT:      -6.4      0.693      1.369
REMARK  Name = 
REMARK  4 active torsions:
REMARK  status: ('A' for Active; 'I' for Inactive)
REMARK    1  A    between atoms: C_1  and  C_2
REMARK    2  A    between atoms: C_4  and  C_5
REMARK    3  A    between atoms: C_7  and  C_8
REMARK    4  A    between atoms: N_10  and  C_11
REMARK                            x       y       z     vdW  Elec       q    Type
REMARK                         _______ _______ _______ _____ _____    ______ ____
ROOT
ATOM      1  C   UNL     1       5.283   5.530  15.943  0.00  0.00    +0.000 C 
ATOM      2  C   UNL     1       4.568   5.135  17.206  0.00  0.00    +0.000 A 
ATOM      3  C   UNL     1       4.778   3.865  17.746  0.00  0.00    +0.000 A 
ATOM      4  C   UNL     1       4.125   3.471  18.925  0.00  0.00    +0.000 A 
ATOM      5  C   UNL     1       4.355   2.092  19.471  0.00  0.00    +0.000 C 
ATOM      6  C   UNL     1       3.267   4.429  19.512  0.00  0.00    +0.000 A 
ATOM      7  C   UNL     1       2.406   4.523  20.646  0.00  0.00    +0.000 A 
ATOM      8  C   UNL     1       2.113   3.510  21.689  0.00  0.00    +0.000 C 
ATOM      9  N   UNL     1       1.785   5.709  20.713  0.00  0.00    +0.000 NA
ATOM     10  N   UNL     1       2.225   6.370  19.620  0.00  0.00    +0.000 N 
ATOM     11  C   UNL     1       3.133   5.656  18.877  0.00  0.00    +0.000 A 
ATOM     12  N   UNL     1       3.740   6.062  17.741  0.00  0.00    +0.000 NA
ENDROOT
BRANCH  10  13
ATOM     13  C   UNL     1       1.635   7.650  19.253  0.00  0.00    +0.000 C 
ATOM     14  C   UNL     1       2.476   8.452  18.248  0.00  0.00    +0.000 C 
ATOM     15  C   UNL     1       1.738   9.729  17.837  0.00  0.00    +0.000 C 
ATOM     16  C   UNL     1       1.341  10.582  19.042  0.00  0.00    +0.000 C 
ATOM     17  C   UNL     1       0.606   9.780  20.114  0.00  0.00    +0.000 C 
ATOM     18  C   UNL     1       1.358   8.509  20.496  0.00  0.00    +0.000 C 
ENDBRANCH  10  13
TORSDOF 1
ENDMDL
