MODEL 1
REMARK VINA RESULT:     -10.9      0.000      0.000
REMARK  Name = 
REMARK  3 active torsions:
REMARK  status: ('A' for Active; 'I' for Inactive)
REMARK    1  A    between atoms: C_4  and  C_5
REMARK    2  A    between atoms: C_11  and  C_12
REMARK    3  A    between atoms: C_17  and  C_18
REMARK                            x       y       z     vdW  Elec       q    Type
REMARK                         _______ _______ _______ _____ _____    ______ ____
ROOT
ATOM      1  C   UNL     1       1.523   8.277  20.348  0.00  0.00    +0.000 A 
ATOM      2  C   UNL     1       1.238   9.094  19.248  0.00  0.00    +0.000 A 
ATOM      3  C   UNL     1       0.500  10.287  19.370  0.00  0.00    +0.000 A 
ATOM      4  C   UNL     1       0.046  10.642  20.642  0.00  0.00    +0.000 A 
ATOM      5  N   UNL     1      -0.693  11.707  21.080  0.00  0.00    +0.000 N 
ATOM      6  C   UNL     1      -0.948  11.588  22.433  0.00  0.00    +0.000 A 
ATOM      7  N   UNL     1      -0.309  10.513  22.891  0.00  0.00    +0.000 NA
ATOM      8  C   UNL     1       0.292   9.901  21.783  0.00  0.00    +0.000 A 
ATOM      9  C   UNL     1       1.053   8.705  21.634  0.00  0.00    +0.000 A 
ATOM     10  H   UNL     1      -1.023  12.464  20.502  0.00  0.00    +0.000 HD
ENDROOT
BRANCH   1  17
ATOM     11  C   UNL     1       4.242   4.231  18.792  0.00  0.00    +0.000 A 
ATOM     12  C   UNL     1       4.205   2.913  19.355  0.00  0.00    +0.000 A 
ATOM     13  C   UNL     1       3.359   2.537  20.389  0.00  0.00    +0.000 A 
ATOM     14  C   UNL     1       2.511   3.468  20.957  0.00  0.00    +0.000 A 
ATOM     15  C   UNL     1       2.573   4.775  20.468  0.00  0.00    +0.000 A 
ATOM     16  N   UNL     1       1.868   5.874  20.879  0.00  0.00    +0.000 N 
ATOM     17  C   UNL     1       2.215   6.966  20.131  0.00  0.00    +0.000 A 
ATOM     18  N   UNL     1       3.126   6.588  19.224  0.00  0.00    +0.000 NA
ATOM     19  C   UNL     1       3.388   5.210  19.419  0.00  0.00    +0.000 A 
ATOM     20  H   UNL     1       1.170   5.867  21.602  0.00  0.00    +0.000 HD
BRANCH  11  24
ATOM     21  C   UNL     1       6.981   4.340  15.431  0.00  0.00    +0.000 A 
ATOM     22  C   UNL     1       5.639   4.060  15.237  0.00  0.00    +0.000 A 
ATOM     23  C   UNL     1       4.761   4.126  16.325  0.00  0.00    +0.000 A 
ATOM     24  C   UNL     1       5.185   4.428  17.652  0.00  0.00    +0.000 A 
ATOM     25  C   UNL     1       6.541   4.739  17.804  0.00  0.00    +0.000 A 
ATOM     26  C   UNL     1       7.425   4.694  16.706  0.00  0.00    +0.000 A 
ENDBRANCH  11  24
ENDBRANCH   1  17
BRANCH   6  27
ATOM     27  C   UNL     1      -1.802  12.593  23.131  0.00  0.00    +0.000 A 
ATOM     28  C   UNL     1      -3.107  12.313  23.573  0.00  0.00    +0.000 A 
ATOM     29  C   UNL     1      -3.870  13.240  24.329  0.00  0.00    +0.000 A 
ATOM     30  C   UNL     1      -3.271  14.470  24.628  0.00  0.00    +0.000 A 
ATOM     31  N   UNL     1      -3.687  15.576  25.342  0.00  0.00    +0.000 N 
ATOM     32  C   UNL     1      -2.660  16.493  25.311  0.00  0.00    +0.000 A 
ATOM     33  N   UNL     1      -1.637  16.058  24.612  0.00  0.00    +0.000 NA
ATOM     34  C   UNL     1      -1.999  14.802  24.185  0.00  0.00    +0.000 A 
ATOM     35  C   UNL     1      -1.271  13.872  23.420  0.00  0.00    +0.000 A 
ATOM     36  H   UNL     1      -4.561  15.686  25.824  0.00  0.00    +0.000 HD
ENDBRANCH   6  27
TORSDOF 3
ENDMDL
MODEL 2
REMARK VINA RESULT:     -10.7      0.900      1.458
REMARK  Name = 
REMARK  3 active torsions:
REMARK  status: ('A' for Active; 'I' for Inactive)
REMARK    1  A    between atoms: C_4  and  C_5
REMARK    2  A    between atoms: C_11  and  C_12
REMARK    3  A    between atoms: C_17  and  C_18
REMARK                            x       y       z     vdW  Elec       q    Type
REMARK                         _______ _______ _______ _____ _____    ______ ____
ROOT
ATOM      1  C   UNL     1       1.379   8.342  20.405  0.00  0.00    +0.000 A 
ATOM      2  C   UNL     1       1.179   9.178  19.301  0.00  0.00    +0.000 A 
ATOM      3  C   UNL     1       0.442  10.374  19.388  0.00  0.00    +0.000 A 
ATOM      4  C   UNL     1      -0.100  10.713  20.629  0.00  0.00    +0.000 A 
ATOM      5  N   UNL     1      -0.862  11.777  21.029  0.00  0.00    +0.000 N 
ATOM      6  C   UNL     1      -1.215  11.639  22.358  0.00  0.00    +0.000 A 
ATOM      7  N   UNL     1      -0.618  10.553  22.844  0.00  0.00    +0.000 NA
ATOM      8  C   UNL     1       0.058   9.953  21.773  0.00  0.00    +0.000 A 
ATOM      9  C   UNL     1       0.820   8.753  21.661  0.00  0.00    +0.000 A 
ATOM     10  H   UNL     1      -1.145  12.545  20.440  0.00  0.00    +0.000 HD
ENDROOT
BRANCH   1  17
ATOM     11  C   UNL     1       4.138   4.283  18.957  0.00  0.00    +0.000 A 
ATOM     12  C   UNL     1       4.087   2.970  19.531  0.00  0.00    +0.000 A 
ATOM     13  C   UNL     1       3.215   2.603  20.547  0.00  0.00    +0.000 A 
ATOM     14  C   UNL     1       2.353   3.539  21.085  0.00  0.00    +0.000 A 
ATOM     15  C   UNL     1       2.427   4.842  20.585  0.00  0.00    +0.000 A 
ATOM     16  N   UNL     1       1.712   5.944  20.967  0.00  0.00    +0.000 N 
ATOM     17  C   UNL     1       2.077   7.029  20.218  0.00  0.00    +0.000 A 
ATOM     18  N   UNL     1       3.010   6.643  19.338  0.00  0.00    +0.000 NA
ATOM     19  C   UNL     1       3.268   5.267  19.552  0.00  0.00    +0.000 A 
ATOM     20  H   UNL     1       0.996   5.944  21.673  0.00  0.00    +0.000 HD
BRANCH  11  24
ATOM     21  C   UNL     1       6.925   4.366  15.635  0.00  0.00    +0.000 A 
ATOM     22  C   UNL     1       5.568   4.200  15.412  0.00  0.00    +0.000 A 
ATOM     23  C   UNL     1       4.682   4.273  16.493  0.00  0.00    +0.000 A 
ATOM     24  C   UNL     1       5.109   4.469  17.839  0.00  0.00    +0.000 A 
ATOM     25  C   UNL     1       6.482   4.667  18.021  0.00  0.00    +0.000 A 
ATOM     26  C   UNL     1       7.376   4.615  16.932  0.00  0.00    +0.000 A 
ENDBRANCH  11  24
ENDBRANCH   1  17
BRANCH   6  27
ATOM     27  C   UNL     1      -2.111  12.640  23.008  0.00  0.00    +0.000 A 
ATOM     28  C   UNL     1      -1.627  13.756  23.713  0.00  0.00    +0.000 A 
ATOM     29  C   UNL     1      -2.486  14.757  24.236  0.00  0.00    +0.000 A 
ATOM     30  C   UNL     1      -3.861  14.597  24.024  0.00  0.00    +0.000 A 
ATOM     31  N   UNL     1      -4.963  15.358  24.355  0.00  0.00    +0.000 N 
ATOM     32  C   UNL     1      -6.073  14.702  23.871  0.00  0.00    +0.000 A 
ATOM     33  N   UNL     1      -5.755  13.573  23.280  0.00  0.00    +0.000 NA
ATOM     34  C   UNL     1      -4.385  13.496  23.362  0.00  0.00    +0.000 A 
ATOM     35  C   UNL     1      -3.513  12.507  22.871  0.00  0.00    +0.000 A 
ATOM     36  H   UNL     1      -4.962  16.242  24.831  0.00  0.00    +0.000 HD
ENDBRANCH   6  27
TORSDOF 3
ENDMDL
MODEL 3
REMARK VINA RESULT:     -10.1      1.199      1.838
REMARK  Name = 
REMARK  3 active torsions:
REMARK  status: ('A' for Active; 'I' for Inactive)
REMARK    1  A    between atoms: C_4  and  C_5
REMARK    2  A    between atoms: C_11  and  C_12
REMARK    3  A    between atoms: C_17  and  C_18
REMARK                            x       y       z     vdW  Elec       q    Type
REMARK                         _______ _______ _______ _____ _____    ______ ____
ROOT
ATOM      1  C   UNL     1       1.489   8.361  20.091  0.00  0.00    +0.000 A 
ATOM      2  C   UNL     1       1.471   9.178  18.954  0.00  0.00    +0.000 A 
ATOM      3  C   UNL     1       0.787  10.408  18.924  0.00  0.00    +0.000 A 
ATOM      4  C   UNL     1       0.109  10.802  20.080  0.00  0.00    +0.000 A 
ATOM      5  N   UNL     1      -0.645  11.909  20.360  0.00  0.00    +0.000 N 
ATOM      6  C   UNL     1      -1.169  11.820  21.636  0.00  0.00    +0.000 A 
ATOM      7  N   UNL     1      -0.690  10.720  22.214  0.00  0.00    +0.000 NA
ATOM      8  C   UNL     1       0.086  10.064  21.249  0.00  0.00    +0.000 A 
ATOM      9  C   UNL     1       0.797   8.828  21.257  0.00  0.00    +0.000 A 
ATOM     10  H   UNL     1      -0.814  12.674  19.726  0.00  0.00    +0.000 HD
ENDROOT
BRANCH   1  17
ATOM     11  C   UNL     1       4.088   4.092  18.992  0.00  0.00    +0.000 A 
ATOM     12  C   UNL     1       4.006   2.842  19.689  0.00  0.00    +0.000 A 
ATOM     13  C   UNL     1       3.142   2.603  20.749  0.00  0.00    +0.000 A 
ATOM     14  C   UNL     1       2.321   3.614  21.208  0.00  0.00    +0.000 A 
ATOM     15  C   UNL     1       2.427   4.860  20.586  0.00  0.00    +0.000 A 
ATOM     16  N   UNL     1       1.755   6.017  20.873  0.00  0.00    +0.000 N 
ATOM     17  C   UNL     1       2.141   7.014  20.018  0.00  0.00    +0.000 A 
ATOM     18  N   UNL     1       3.045   6.514  19.165  0.00  0.00    +0.000 NA
ATOM     19  C   UNL     1       3.262   5.157  19.504  0.00  0.00    +0.000 A 
ATOM     20  H   UNL     1       1.053   6.108  21.586  0.00  0.00    +0.000 HD
BRANCH  11  24
ATOM     21  C   UNL     1       6.873   4.690  15.721  0.00  0.00    +0.000 A 
ATOM     22  C   UNL     1       7.290   4.823  17.034  0.00  0.00    +0.000 A 
ATOM     23  C   UNL     1       6.395   4.531  18.071  0.00  0.00    +0.000 A 
ATOM     24  C   UNL     1       5.044   4.139  17.846  0.00  0.00    +0.000 A 
ATOM     25  C   UNL     1       4.668   3.981  16.508  0.00  0.00    +0.000 A 
ATOM     26  C   UNL     1       5.572   4.255  15.460  0.00  0.00    +0.000 A 
ENDBRANCH  11  24
ENDBRANCH   1  17
BRANCH   6  27
ATOM     27  C   UNL     1      -2.089  12.876  22.148  0.00  0.00    +0.000 A 
ATOM     28  C   UNL     1      -1.802  14.250  22.062  0.00  0.00    +0.000 A 
ATOM     29  C   UNL     1      -2.731  15.248  22.455  0.00  0.00    +0.000 A 
ATOM     30  C   UNL     1      -3.970  14.815  22.942  0.00  0.00    +0.000 A 
ATOM     31  N   UNL     1      -5.097  15.478  23.381  0.00  0.00    +0.000 N 
ATOM     32  C   UNL     1      -6.024  14.521  23.732  0.00  0.00    +0.000 A 
ATOM     33  N   UNL     1      -5.557  13.305  23.568  0.00  0.00    +0.000 NA
ATOM     34  C   UNL     1      -4.285  13.470  23.073  0.00  0.00    +0.000 A 
ATOM     35  C   UNL     1      -3.339  12.500  22.695  0.00  0.00    +0.000 A 
ATOM     36  H   UNL     1      -5.236  16.472  23.413  0.00  0.00    +0.000 HD
ENDBRANCH   6  27
TORSDOF 3
ENDMDL
MODEL 4
REMARK VINA RESULT:      -9.9      1.001      1.451
REMARK  Name = 
REMARK  3 active torsions:
REMARK  status: ('A' for Active; 'I' for Inactive)
REMARK    1  A    between atoms: C_4  and  C_5
REMARK    2  A    between atoms: C_11  and  C_12
REMARK    3  A    between atoms: C_17  and  C_18
REMARK                            x       y       z     vdW  Elec       q    Type
REMARK                         _______ _______ _______ _____ _____    ______ ____
ROOT
ATOM      1  C   UNL     1       1.555   8.570  19.948  0.00  0.00    +0.000 A 
ATOM      2  C   UNL     1       1.279   9.203  18.730  0.00  0.00    +0.000 A 
ATOM      3  C   UNL     1       0.626  10.449  18.663  0.00  0.00    +0.000 A 
ATOM      4  C   UNL     1       0.250  11.050  19.866  0.00  0.00    +0.000 A 
ATOM      5  N   UNL     1      -0.398  12.225  20.132  0.00  0.00    +0.000 N 
ATOM      6  C   UNL     1      -0.604  12.360  21.492  0.00  0.00    +0.000 A 
ATOM      7  N   UNL     1      -0.019  11.337  22.112  0.00  0.00    +0.000 NA
ATOM      8  C   UNL     1       0.495  10.501  21.111  0.00  0.00    +0.000 A 
ATOM      9  C   UNL     1       1.168   9.246  21.152  0.00  0.00    +0.000 A 
ATOM     10  H   UNL     1      -0.702  12.893  19.441  0.00  0.00    +0.000 HD
ENDROOT
BRANCH   1  17
ATOM     11  C   UNL     1       4.004   4.161  19.083  0.00  0.00    +0.000 A 
ATOM     12  C   UNL     1       3.844   2.940  19.818  0.00  0.00    +0.000 A 
ATOM     13  C   UNL     1       2.934   2.773  20.853  0.00  0.00    +0.000 A 
ATOM     14  C   UNL     1       2.141   3.833  21.249  0.00  0.00    +0.000 A 
ATOM     15  C   UNL     1       2.323   5.051  20.590  0.00  0.00    +0.000 A 
ATOM     16  N   UNL     1       1.692   6.245  20.815  0.00  0.00    +0.000 N 
ATOM     17  C   UNL     1       2.150   7.195  19.943  0.00  0.00    +0.000 A 
ATOM     18  N   UNL     1       3.061   6.629  19.140  0.00  0.00    +0.000 NA
ATOM     19  C   UNL     1       3.207   5.276  19.531  0.00  0.00    +0.000 A 
ATOM     20  H   UNL     1       0.970   6.389  21.499  0.00  0.00    +0.000 HD
BRANCH  11  24
ATOM     21  C   UNL     1       6.914   4.531  15.888  0.00  0.00    +0.000 A 
ATOM     22  C   UNL     1       7.287   4.728  17.208  0.00  0.00    +0.000 A 
ATOM     23  C   UNL     1       6.351   4.508  18.225  0.00  0.00    +0.000 A 
ATOM     24  C   UNL     1       5.001   4.128  17.972  0.00  0.00    +0.000 A 
ATOM     25  C   UNL     1       4.669   3.904  16.632  0.00  0.00    +0.000 A 
ATOM     26  C   UNL     1       5.615   4.105  15.605  0.00  0.00    +0.000 A 
ENDBRANCH  11  24
ENDBRANCH   1  17
BRANCH   6  27
ATOM     27  C   UNL     1      -1.360  13.529  22.028  0.00  0.00    +0.000 A 
ATOM     28  C   UNL     1      -2.036  14.447  21.204  0.00  0.00    +0.000 A 
ATOM     29  C   UNL     1      -2.839  15.492  21.728  0.00  0.00    +0.000 A 
ATOM     30  C   UNL     1      -2.942  15.586  23.122  0.00  0.00    +0.000 A 
ATOM     31  N   UNL     1      -3.632  16.432  23.964  0.00  0.00    +0.000 N 
ATOM     32  C   UNL     1      -3.362  16.035  25.255  0.00  0.00    +0.000 A 
ATOM     33  N   UNL     1      -2.534  15.016  25.289  0.00  0.00    +0.000 NA
ATOM     34  C   UNL     1      -2.268  14.722  23.974  0.00  0.00    +0.000 A 
ATOM     35  C   UNL     1      -1.462  13.706  23.428  0.00  0.00    +0.000 A 
ATOM     36  H   UNL     1      -4.245  17.180  23.695  0.00  0.00    +0.000 HD
ENDBRANCH   6  27
TORSDOF 3
ENDMDL
MODEL 5
REMARK VINA RESULT:      -9.7      1.145      1.282
REMARK  Name = 
REMARK  3 active torsions:
REMARK  status: ('A' for Active; 'I' for Inactive)
REMARK    1  A    between atoms: C_4  and  C_5
REMARK    2  A    between atoms: C_11  and  C_12
REMARK    3  A    between atoms: C_17  and  C_18
REMARK                            x       y       z     vdW  Elec       q    Type
REMARK                         _______ _______ _______ _____ _____    ______ ____
ROOT
ATOM      1  C   UNL     1       0.994   9.160  20.402  0.00  0.00    +0.000 A 
ATOM      2  C   UNL     1       1.018  10.124  19.387  0.00  0.00    +0.000 A 
ATOM      3  C   UNL     1       0.341  11.353  19.503  0.00  0.00    +0.000 A 
ATOM      4  C   UNL     1      -0.373  11.591  20.679  0.00  0.00    +0.000 A 
ATOM      5  N   UNL     1      -1.132  12.657  21.082  0.00  0.00    +0.000 N 
ATOM      6  C   UNL     1      -1.699  12.400  22.316  0.00  0.00    +0.000 A 
ATOM      7  N   UNL     1      -1.245  11.227  22.754  0.00  0.00    +0.000 NA
ATOM      8  C   UNL     1      -0.440  10.702  21.734  0.00  0.00    +0.000 A 
ATOM      9  C   UNL     1       0.265   9.470  21.597  0.00  0.00    +0.000 A 
ATOM     10  H   UNL     1      -1.276  13.503  20.554  0.00  0.00    +0.000 HD
ENDROOT
BRANCH   1  17
ATOM     11  C   UNL     1       3.407   4.978  18.705  0.00  0.00    +0.000 A 
ATOM     12  C   UNL     1       3.479   3.709  19.369  0.00  0.00    +0.000 A 
ATOM     13  C   UNL     1       2.837   3.424  20.566  0.00  0.00    +0.000 A 
ATOM     14  C   UNL     1       2.102   4.405  21.202  0.00  0.00    +0.000 A 
ATOM     15  C   UNL     1       2.067   5.669  20.607  0.00  0.00    +0.000 A 
ATOM     16  N   UNL     1       1.443   6.803  21.050  0.00  0.00    +0.000 N 
ATOM     17  C   UNL     1       1.643   7.830  20.168  0.00  0.00    +0.000 A 
ATOM     18  N   UNL     1       2.375   7.372  19.144  0.00  0.00    +0.000 NA
ATOM     19  C   UNL     1       2.676   6.011  19.396  0.00  0.00    +0.000 A 
ATOM     20  H   UNL     1       0.888   6.860  21.886  0.00  0.00    +0.000 HD
BRANCH  11  24
ATOM     21  C   UNL     1       5.877   5.118  15.143  0.00  0.00    +0.000 A 
ATOM     22  C   UNL     1       5.477   3.904  15.675  0.00  0.00    +0.000 A 
ATOM     23  C   UNL     1       4.602   3.890  16.768  0.00  0.00    +0.000 A 
ATOM     24  C   UNL     1       4.126   5.075  17.400  0.00  0.00    +0.000 A 
ATOM     25  C   UNL     1       4.522   6.281  16.815  0.00  0.00    +0.000 A 
ATOM     26  C   UNL     1       5.388   6.300  15.701  0.00  0.00    +0.000 A 
ENDBRANCH  11  24
ENDBRANCH   1  17
BRANCH   6  27
ATOM     27  C   UNL     1      -2.632  13.384  22.937  0.00  0.00    +0.000 A 
ATOM     28  C   UNL     1      -3.981  13.094  23.208  0.00  0.00    +0.000 A 
ATOM     29  C   UNL     1      -4.831  13.999  23.895  0.00  0.00    +0.000 A 
ATOM     30  C   UNL     1      -4.275  15.216  24.305  0.00  0.00    +0.000 A 
ATOM     31  N   UNL     1      -4.775  16.299  24.998  0.00  0.00    +0.000 N 
ATOM     32  C   UNL     1      -3.753  17.213  25.123  0.00  0.00    +0.000 A 
ATOM     33  N   UNL     1      -2.652  16.798  24.540  0.00  0.00    +0.000 NA
ATOM     34  C   UNL     1      -2.958  15.558  24.032  0.00  0.00    +0.000 A 
ATOM     35  C   UNL     1      -2.141  14.651  23.331  0.00  0.00    +0.000 A 
ATOM     36  H   UNL     1      -5.702  16.396  25.373  0.00  0.00    +0.000 HD
ENDBRANCH   6  27
TORSDOF 3
ENDMDL
MODEL 6
REMARK VINA RESULT:      -9.7      3.311      4.158
REMARK  Name = 
REMARK  3 active torsions:
REMARK  status: ('A' for Active; 'I' for Inactive)
REMARK    1  A    between atoms: C_4  and  C_5
REMARK    2  A    between atoms: C_11  and  C_12
REMARK    3  A    between atoms: C_17  and  C_18
REMARK                            x       y       z     vdW  Elec       q    Type
REMARK                         _______ _______ _______ _____ _____    ______ ____
ROOT
ATOM      1  C   UNL     1       1.485   8.607  20.128  0.00  0.00    +0.000 A 
ATOM      2  C   UNL     1       0.703   8.990  21.224  0.00  0.00    +0.000 A 
ATOM      3  C   UNL     1       0.257  10.314  21.402  0.00  0.00    +0.000 A 
ATOM      4  C   UNL     1       0.625  11.257  20.441  0.00  0.00    +0.000 A 
ATOM      5  N   UNL     1       0.370  12.598  20.337  0.00  0.00    +0.000 N 
ATOM      6  C   UNL     1       1.008  13.121  19.229  0.00  0.00    +0.000 A 
ATOM      7  N   UNL     1       1.593  12.124  18.567  0.00  0.00    +0.000 NA
ATOM      8  C   UNL     1       1.384  10.963  19.323  0.00  0.00    +0.000 A 
ATOM      9  C   UNL     1       1.811   9.613  19.159  0.00  0.00    +0.000 A 
ATOM     10  H   UNL     1      -0.186  13.136  20.982  0.00  0.00    +0.000 HD
ENDROOT
BRANCH   1  17
ATOM     11  C   UNL     1       3.766   4.149  19.074  0.00  0.00    +0.000 A 
ATOM     12  C   UNL     1       3.527   2.895  19.727  0.00  0.00    +0.000 A 
ATOM     13  C   UNL     1       2.575   2.709  20.720  0.00  0.00    +0.000 A 
ATOM     14  C   UNL     1       1.817   3.779  21.155  0.00  0.00    +0.000 A 
ATOM     15  C   UNL     1       2.075   5.025  20.578  0.00  0.00    +0.000 A 
ATOM     16  N   UNL     1       1.490   6.230  20.856  0.00  0.00    +0.000 N 
ATOM     17  C   UNL     1       2.019   7.209  20.058  0.00  0.00    +0.000 A 
ATOM     18  N   UNL     1       2.931   6.651  19.251  0.00  0.00    +0.000 NA
ATOM     19  C   UNL     1       3.004   5.271  19.563  0.00  0.00    +0.000 A 
ATOM     20  H   UNL     1       0.752   6.367  21.524  0.00  0.00    +0.000 HD
BRANCH  11  24
ATOM     21  C   UNL     1       6.763   4.579  15.969  0.00  0.00    +0.000 A 
ATOM     22  C   UNL     1       7.089   4.797  17.297  0.00  0.00    +0.000 A 
ATOM     23  C   UNL     1       6.127   4.558  18.286  0.00  0.00    +0.000 A 
ATOM     24  C   UNL     1       4.798   4.137  17.995  0.00  0.00    +0.000 A 
ATOM     25  C   UNL     1       4.515   3.893  16.647  0.00  0.00    +0.000 A 
ATOM     26  C   UNL     1       5.487   4.114  15.648  0.00  0.00    +0.000 A 
ENDBRANCH  11  24
ENDBRANCH   1  17
BRANCH   6  27
ATOM     27  C   UNL     1       0.942  14.583  18.942  0.00  0.00    +0.000 A 
ATOM     28  C   UNL     1       2.060  15.334  18.535  0.00  0.00    +0.000 A 
ATOM     29  C   UNL     1       1.964  16.700  18.162  0.00  0.00    +0.000 A 
ATOM     30  C   UNL     1       0.696  17.292  18.212  0.00  0.00    +0.000 A 
ATOM     31  N   UNL     1       0.229  18.553  17.907  0.00  0.00    +0.000 N 
ATOM     32  C   UNL     1      -1.129  18.555  18.141  0.00  0.00    +0.000 A 
ATOM     33  N   UNL     1      -1.548  17.394  18.592  0.00  0.00    +0.000 NA
ATOM     34  C   UNL     1      -0.428  16.598  18.637  0.00  0.00    +0.000 A 
ATOM     35  C   UNL     1      -0.303  15.250  19.021  0.00  0.00    +0.000 A 
ATOM     36  H   UNL     1       0.765  19.323  17.551  0.00  0.00    +0.000 HD
ENDBRANCH   6  27
TORSDOF 3
ENDMDL
MODEL 7
REMARK VINA RESULT:      -9.6      2.823      3.480
REMARK  Name = 
REMARK  3 active torsions:
REMARK  status: ('A' for Active; 'I' for Inactive)
REMARK    1  A    between atoms: C_4  and  C_5
REMARK    2  A    between atoms: C_11  and  C_12
REMARK    3  A    between atoms: C_17  and  C_18
REMARK                            x       y       z     vdW  Elec       q    Type
REMARK                         _______ _______ _______ _____ _____    ______ ____
ROOT
ATOM      1  C   UNL     1       1.457   8.273  20.428  0.00  0.00    +0.000 A 
ATOM      2  C   UNL     1       0.942   8.549  21.700  0.00  0.00    +0.000 A 
ATOM      3  C   UNL     1       0.385   9.799  22.030  0.00  0.00    +0.000 A 
ATOM      4  C   UNL     1       0.360  10.780  21.037  0.00  0.00    +0.000 A 
ATOM      5  N   UNL     1      -0.090  12.073  21.047  0.00  0.00    +0.000 N 
ATOM      6  C   UNL     1       0.162  12.675  19.829  0.00  0.00    +0.000 A 
ATOM      7  N   UNL     1       0.683  11.766  19.006  0.00  0.00    +0.000 NA
ATOM      8  C   UNL     1       0.835  10.590  19.753  0.00  0.00    +0.000 A 
ATOM      9  C   UNL     1       1.382   9.311  19.441  0.00  0.00    +0.000 A 
ATOM     10  H   UNL     1      -0.526  12.532  21.831  0.00  0.00    +0.000 HD
ENDROOT
BRANCH   1  17
ATOM     11  C   UNL     1       4.148   4.246  18.776  0.00  0.00    +0.000 A 
ATOM     12  C   UNL     1       4.088   2.911  19.297  0.00  0.00    +0.000 A 
ATOM     13  C   UNL     1       3.225   2.513  20.308  0.00  0.00    +0.000 A 
ATOM     14  C   UNL     1       2.381   3.435  20.895  0.00  0.00    +0.000 A 
ATOM     15  C   UNL     1       2.464   4.756  20.448  0.00  0.00    +0.000 A 
ATOM     16  N   UNL     1       1.767   5.850  20.886  0.00  0.00    +0.000 N 
ATOM     17  C   UNL     1       2.137   6.962  20.178  0.00  0.00    +0.000 A 
ATOM     18  N   UNL     1       3.054   6.601  19.270  0.00  0.00    +0.000 NA
ATOM     19  C   UNL     1       3.298   5.214  19.424  0.00  0.00    +0.000 A 
ATOM     20  H   UNL     1       1.060   5.829  21.599  0.00  0.00    +0.000 HD
BRANCH  11  24
ATOM     21  C   UNL     1       6.930   4.428  15.454  0.00  0.00    +0.000 A 
ATOM     22  C   UNL     1       5.586   4.173  15.234  0.00  0.00    +0.000 A 
ATOM     23  C   UNL     1       4.696   4.215  16.314  0.00  0.00    +0.000 A 
ATOM     24  C   UNL     1       5.108   4.467  17.654  0.00  0.00    +0.000 A 
ATOM     25  C   UNL     1       6.465   4.755  17.833  0.00  0.00    +0.000 A 
ATOM     26  C   UNL     1       7.362   4.734  16.745  0.00  0.00    +0.000 A 
ENDBRANCH  11  24
ENDBRANCH   1  17
BRANCH   6  27
ATOM     27  C   UNL     1      -0.171  14.113  19.616  0.00  0.00    +0.000 A 
ATOM     28  C   UNL     1      -1.289  14.735  20.201  0.00  0.00    +0.000 A 
ATOM     29  C   UNL     1      -1.537  16.127  20.078  0.00  0.00    +0.000 A 
ATOM     30  C   UNL     1      -0.616  16.880  19.341  0.00  0.00    +0.000 A 
ATOM     31  N   UNL     1      -0.519  18.222  19.037  0.00  0.00    +0.000 N 
ATOM     32  C   UNL     1       0.619  18.390  18.280  0.00  0.00    +0.000 A 
ATOM     33  N   UNL     1       1.235  17.250  18.064  0.00  0.00    +0.000 NA
ATOM     34  C   UNL     1       0.484  16.304  18.720  0.00  0.00    +0.000 A 
ATOM     35  C   UNL     1       0.696  14.918  18.840  0.00  0.00    +0.000 A 
ATOM     36  H   UNL     1      -1.141  18.952  19.336  0.00  0.00    +0.000 HD
ENDBRANCH   6  27
TORSDOF 3
ENDMDL
MODEL 8
REMARK VINA RESULT:      -9.5      2.474      3.125
REMARK  Name = 
REMARK  3 active torsions:
REMARK  status: ('A' for Active; 'I' for Inactive)
REMARK    1  A    between atoms: C_4  and  C_5
REMARK    2  A    between atoms: C_11  and  C_12
REMARK    3  A    between atoms: C_17  and  C_18
REMARK                            x       y       z     vdW  Elec       q    Type
REMARK                         _______ _______ _______ _____ _____    ______ ____
ROOT
ATOM      1  C   UNL     1       1.453   8.258  20.456  0.00  0.00    +0.000 A 
ATOM      2  C   UNL     1       0.961   8.519  21.740  0.00  0.00    +0.000 A 
ATOM      3  C   UNL     1       0.400   9.761  22.091  0.00  0.00    +0.000 A 
ATOM      4  C   UNL     1       0.347  10.751  21.107  0.00  0.00    +0.000 A 
ATOM      5  N   UNL     1      -0.114  12.039  21.136  0.00  0.00    +0.000 N 
ATOM      6  C   UNL     1       0.108  12.653  19.918  0.00  0.00    +0.000 A 
ATOM      7  N   UNL     1       0.621  11.755  19.078  0.00  0.00    +0.000 NA
ATOM      8  C   UNL     1       0.798  10.574  19.812  0.00  0.00    +0.000 A 
ATOM      9  C   UNL     1       1.349   9.303  19.479  0.00  0.00    +0.000 A 
ATOM     10  H   UNL     1      -0.539  12.488  21.932  0.00  0.00    +0.000 HD
ENDROOT
BRANCH   1  17
ATOM     11  C   UNL     1       4.151   4.270  18.722  0.00  0.00    +0.000 A 
ATOM     12  C   UNL     1       4.107   2.929  19.228  0.00  0.00    +0.000 A 
ATOM     13  C   UNL     1       3.260   2.512  20.245  0.00  0.00    +0.000 A 
ATOM     14  C   UNL     1       2.417   3.422  20.854  0.00  0.00    +0.000 A 
ATOM     15  C   UNL     1       2.485   4.749  20.422  0.00  0.00    +0.000 A 
ATOM     16  N   UNL     1       1.787   5.832  20.881  0.00  0.00    +0.000 N 
ATOM     17  C   UNL     1       2.138   6.955  20.181  0.00  0.00    +0.000 A 
ATOM     18  N   UNL     1       3.047   6.611  19.258  0.00  0.00    +0.000 NA
ATOM     19  C   UNL     1       3.302   5.225  19.392  0.00  0.00    +0.000 A 
ATOM     20  H   UNL     1       1.089   5.798  21.604  0.00  0.00    +0.000 HD
BRANCH  11  24
ATOM     21  C   UNL     1       6.860   4.516  15.344  0.00  0.00    +0.000 A 
ATOM     22  C   UNL     1       5.500   4.340  15.146  0.00  0.00    +0.000 A 
ATOM     23  C   UNL     1       4.639   4.361  16.249  0.00  0.00    +0.000 A 
ATOM     24  C   UNL     1       5.094   4.511  17.591  0.00  0.00    +0.000 A 
ATOM     25  C   UNL     1       6.468   4.721  17.750  0.00  0.00    +0.000 A 
ATOM     26  C   UNL     1       7.337   4.722  16.640  0.00  0.00    +0.000 A 
ENDBRANCH  11  24
ENDBRANCH   1  17
BRANCH   6  27
ATOM     27  C   UNL     1      -0.241  14.090  19.723  0.00  0.00    +0.000 A 
ATOM     28  C   UNL     1       0.411  14.917  18.791  0.00  0.00    +0.000 A 
ATOM     29  C   UNL     1      -0.001  16.252  18.539  0.00  0.00    +0.000 A 
ATOM     30  C   UNL     1      -1.099  16.732  19.262  0.00  0.00    +0.000 A 
ATOM     31  N   UNL     1      -1.777  17.933  19.265  0.00  0.00    +0.000 N 
ATOM     32  C   UNL     1      -2.796  17.827  20.185  0.00  0.00    +0.000 A 
ATOM     33  N   UNL     1      -2.796  16.656  20.780  0.00  0.00    +0.000 NA
ATOM     34  C   UNL     1      -1.753  15.963  20.214  0.00  0.00    +0.000 A 
ATOM     35  C   UNL     1      -1.312  14.649  20.460  0.00  0.00    +0.000 A 
ATOM     36  H   UNL     1      -1.589  18.731  18.684  0.00  0.00    +0.000 HD
ENDBRANCH   6  27
TORSDOF 3
ENDMDL
MODEL 9
REMARK VINA RESULT:      -9.5      2.479     11.968
REMARK  Name = 
REMARK  3 active torsions:
REMARK  status: ('A' for Active; 'I' for Inactive)
REMARK    1  A    between atoms: C_4  and  C_5
REMARK    2  A    between atoms: C_11  and  C_12
REMARK    3  A    between atoms: C_17  and  C_18
REMARK                            x       y       z     vdW  Elec       q    Type
REMARK                         _______ _______ _______ _____ _____    ______ ____
ROOT
ATOM      1  C   UNL     1       0.072  10.416  20.779  0.00  0.00    +0.000 A 
ATOM      2  C   UNL     1       0.299   9.531  21.840  0.00  0.00    +0.000 A 
ATOM      3  C   UNL     1       1.091   8.375  21.698  0.00  0.00    +0.000 A 
ATOM      4  C   UNL     1       1.656   8.126  20.446  0.00  0.00    +0.000 A 
ATOM      5  N   UNL     1       2.444   7.104  19.991  0.00  0.00    +0.000 N 
ATOM      6  C   UNL     1       2.703   7.264  18.643  0.00  0.00    +0.000 A 
ATOM      7  N   UNL     1       2.170   8.418  18.244  0.00  0.00    +0.000 NA
ATOM      8  C   UNL     1       1.495   8.952  19.349  0.00  0.00    +0.000 A 
ATOM      9  C   UNL     1       0.699  10.122  19.523  0.00  0.00    +0.000 A 
ATOM     10  H   UNL     1       2.778   6.333  20.548  0.00  0.00    +0.000 HD
ENDROOT
BRANCH   1  17
ATOM     11  C   UNL     1      -3.809  13.637  21.641  0.00  0.00    +0.000 A 
ATOM     12  C   UNL     1      -3.818  15.047  21.382  0.00  0.00    +0.000 A 
ATOM     13  C   UNL     1      -2.765  15.732  20.792  0.00  0.00    +0.000 A 
ATOM     14  C   UNL     1      -1.610  15.056  20.451  0.00  0.00    +0.000 A 
ATOM     15  C   UNL     1      -1.552  13.693  20.750  0.00  0.00    +0.000 A 
ATOM     16  N   UNL     1      -0.521  12.817  20.544  0.00  0.00    +0.000 N 
ATOM     17  C   UNL     1      -0.871  11.564  20.967  0.00  0.00    +0.000 A 
ATOM     18  N   UNL     1      -2.127  11.609  21.432  0.00  0.00    +0.000 NA
ATOM     19  C   UNL     1      -2.584  12.945  21.324  0.00  0.00    +0.000 A 
ATOM     20  H   UNL     1       0.353  13.057  20.109  0.00  0.00    +0.000 HD
BRANCH  11  24
ATOM     21  C   UNL     1      -7.659  12.361  23.179  0.00  0.00    +0.000 A 
ATOM     22  C   UNL     1      -7.355  12.219  21.835  0.00  0.00    +0.000 A 
ATOM     23  C   UNL     1      -6.071  12.550  21.384  0.00  0.00    +0.000 A 
ATOM     24  C   UNL     1      -5.057  13.074  22.237  0.00  0.00    +0.000 A 
ATOM     25  C   UNL     1      -5.388  13.170  23.593  0.00  0.00    +0.000 A 
ATOM     26  C   UNL     1      -6.673  12.819  24.055  0.00  0.00    +0.000 A 
ENDBRANCH  11  24
ENDBRANCH   1  17
BRANCH   6  27
ATOM     27  C   UNL     1       3.484   6.234  17.898  0.00  0.00    +0.000 A 
ATOM     28  C   UNL     1       3.103   4.882  17.835  0.00  0.00    +0.000 A 
ATOM     29  C   UNL     1       3.793   3.933  17.036  0.00  0.00    +0.000 A 
ATOM     30  C   UNL     1       4.889   4.393  16.296  0.00  0.00    +0.000 A 
ATOM     31  N   UNL     1       5.758   3.784  15.416  0.00  0.00    +0.000 N 
ATOM     32  C   UNL     1       6.641   4.747  14.979  0.00  0.00    +0.000 A 
ATOM     33  N   UNL     1       6.407   5.913  15.536  0.00  0.00    +0.000 NA
ATOM     34  C   UNL     1       5.319   5.712  16.352  0.00  0.00    +0.000 A 
ATOM     35  C   UNL     1       4.630   6.628  17.167  0.00  0.00    +0.000 A 
ATOM     36  H   UNL     1       5.739   2.825  15.119  0.00  0.00    +0.000 HD
ENDBRANCH   6  27
TORSDOF 3
ENDMDL
