MODEL 1
REMARK VINA RESULT:      -7.7      0.000      0.000
REMARK  Name = 
REMARK  8 active torsions:
REMARK  status: ('A' for Active; 'I' for Inactive)
REMARK    1  A    between atoms: C_1  and  C_2
REMARK    2  A    between atoms: C_5  and  C_6
REMARK    3  A    between atoms: C_6  and  N_7
REMARK    4  A    between atoms: C_8  and  C_9
REMARK    5  A    between atoms: N_14  and  C_15
REMARK    6  A    between atoms: C_15  and  C_16
REMARK    7  A    between atoms: C_16  and  C_17
REMARK    8  A    between atoms: C_17  and  O_19
REMARK                            x       y       z     vdW  Elec       q    Type
REMARK                         _______ _______ _______ _____ _____    ______ ____
ROOT
ATOM      1  N   UNL     1       3.879   5.478  18.795  0.00  0.00    +0.000 N 
ATOM      2  C   UNL     1       2.645   6.094  18.718  0.00  0.00    +0.000 A 
ATOM      3  N   UNL     1       1.687   5.254  19.061  0.00  0.00    +0.000 NA
ATOM      4  C   UNL     1       2.311   4.074  19.389  0.00  0.00    +0.000 A 
ATOM      5  C   UNL     1       1.763   2.840  19.774  0.00  0.00    +0.000 A 
ATOM      6  C   UNL     1       2.626   1.763  20.020  0.00  0.00    +0.000 A 
ATOM      7  C   UNL     1       4.009   1.917  19.916  0.00  0.00    +0.000 A 
ATOM      8  C   UNL     1       4.573   3.144  19.558  0.00  0.00    +0.000 A 
ATOM      9  C   UNL     1       3.690   4.199  19.281  0.00  0.00    +0.000 A 
ENDROOT
BRANCH   2  10
ATOM     10  C   UNL     1       2.512   7.435  18.273  0.00  0.00    +0.000 C 
ATOM     11  C   UNL     1       1.953   8.392  19.026  0.00  0.00    +0.000 C 
ATOM     12  S   UNL     1       1.388   8.277  20.643  0.00  0.00    +0.000 S 
ATOM     13  C   UNL     1       0.681   9.889  20.613  0.00  0.00    +0.000 C 
ATOM     14  S   UNL     1      -0.186  10.478  21.911  0.00  0.00    +0.000 S 
ATOM     15  N   UNL     1       0.958  10.508  19.409  0.00  0.00    +0.000 N 
ATOM     16  C   UNL     1       1.702   9.763  18.505  0.00  0.00    +0.000 C 
ATOM     17  O   UNL     1       2.106  10.151  17.417  0.00  0.00    +0.000 OA
BRANCH  15  18
ATOM     18  C   UNL     1       0.618  11.909  19.079  0.00  0.00    +0.000 C 
BRANCH  18  19
ATOM     19  C   UNL     1       1.699  12.908  19.501  0.00  0.00    +0.000 C 
BRANCH  19  20
ATOM     20  C   UNL     1       2.210  13.710  18.332  0.00  0.00    +0.000 C 
ATOM     21  O   UNL     1       2.346  14.922  18.312  0.00  0.00    +0.000 OA
BRANCH  20  22
ATOM     22  O   UNL     1       2.518  12.929  17.269  0.00  0.00    +0.000 OA
ATOM     23  H   UNL     1       1.913  13.026  16.507  0.00  0.00    +0.000 HD
ENDBRANCH  20  22
ENDBRANCH  19  20
ENDBRANCH  18  19
ENDBRANCH  15  18
ENDBRANCH   2  10
BRANCH   1  24
ATOM     24  C   UNL     1       5.172   6.025  18.411  0.00  0.00    +0.000 C 
BRANCH  24  29
ATOM     25  C   UNL     1       6.751   4.022  13.157  0.00  0.00    +0.000 C 
ATOM     26  C   UNL     1       6.393   4.576  14.504  0.00  0.00    +0.000 A 
ATOM     27  C   UNL     1       6.982   4.093  15.670  0.00  0.00    +0.000 A 
ATOM     28  C   UNL     1       6.603   4.596  16.922  0.00  0.00    +0.000 A 
ATOM     29  C   UNL     1       5.629   5.599  17.029  0.00  0.00    +0.000 A 
ATOM     30  C   UNL     1       5.054   6.083  15.846  0.00  0.00    +0.000 A 
ATOM     31  C   UNL     1       5.429   5.580  14.600  0.00  0.00    +0.000 A 
ENDBRANCH  24  29
ENDBRANCH   1  24
TORSDOF 7
ENDMDL
MODEL 2
REMARK VINA RESULT:      -7.5      1.211      1.640
REMARK  Name = 
REMARK  8 active torsions:
REMARK  status: ('A' for Active; 'I' for Inactive)
REMARK    1  A    between atoms: C_1  and  C_2
REMARK    2  A    between atoms: C_5  and  C_6
REMARK    3  A    between atoms: C_6  and  N_7
REMARK    4  A    between atoms: C_8  and  C_9
REMARK    5  A    between atoms: N_14  and  C_15
REMARK    6  A    between atoms: C_15  and  C_16
REMARK    7  A    between atoms: C_16  and  C_17
REMARK    8  A    between atoms: C_17  and  O_19
REMARK                            x       y       z     vdW  Elec       q    Type
REMARK                         _______ _______ _______ _____ _____    ______ ____
ROOT
ATOM      1  N   UNL     1       3.776   5.590  18.940  0.00  0.00    +0.000 N 
ATOM      2  C   UNL     1       2.522   6.169  18.920  0.00  0.00    +0.000 A 
ATOM      3  N   UNL     1       1.592   5.264  19.163  0.00  0.00    +0.000 NA
ATOM      4  C   UNL     1       2.256   4.078  19.368  0.00  0.00    +0.000 A 
ATOM      5  C   UNL     1       1.749   2.792  19.614  0.00  0.00    +0.000 A 
ATOM      6  C   UNL     1       2.648   1.725  19.750  0.00  0.00    +0.000 A 
ATOM      7  C   UNL     1       4.025   1.936  19.673  0.00  0.00    +0.000 A 
ATOM      8  C   UNL     1       4.547   3.213  19.453  0.00  0.00    +0.000 A 
ATOM      9  C   UNL     1       3.629   4.260  19.284  0.00  0.00    +0.000 A 
ENDROOT
BRANCH   2  10
ATOM     10  C   UNL     1       2.345   7.545  18.620  0.00  0.00    +0.000 C 
ATOM     11  C   UNL     1       1.774   8.402  19.479  0.00  0.00    +0.000 C 
ATOM     12  S   UNL     1       1.244   8.101  21.084  0.00  0.00    +0.000 S 
ATOM     13  C   UNL     1       0.493   9.687  21.235  0.00  0.00    +0.000 C 
ATOM     14  S   UNL     1      -0.364  10.112  22.601  0.00  0.00    +0.000 S 
ATOM     15  N   UNL     1       0.730  10.436  20.098  0.00  0.00    +0.000 N 
ATOM     16  C   UNL     1       1.477   9.811  19.109  0.00  0.00    +0.000 C 
ATOM     17  O   UNL     1       1.850  10.322  18.061  0.00  0.00    +0.000 OA
BRANCH  15  18
ATOM     18  C   UNL     1       0.347  11.853  19.922  0.00  0.00    +0.000 C 
BRANCH  18  19
ATOM     19  C   UNL     1      -1.138  12.042  19.597  0.00  0.00    +0.000 C 
BRANCH  19  20
ATOM     20  C   UNL     1      -1.432  11.771  18.144  0.00  0.00    +0.000 C 
ATOM     21  O   UNL     1      -1.932  10.748  17.703  0.00  0.00    +0.000 OA
BRANCH  20  22
ATOM     22  O   UNL     1      -1.080  12.807  17.346  0.00  0.00    +0.000 OA
ATOM     23  H   UNL     1      -0.317  13.326  17.670  0.00  0.00    +0.000 HD
ENDBRANCH  20  22
ENDBRANCH  19  20
ENDBRANCH  18  19
ENDBRANCH  15  18
ENDBRANCH   2  10
BRANCH   1  24
ATOM     24  C   UNL     1       5.051   6.219  18.627  0.00  0.00    +0.000 C 
BRANCH  24  29
ATOM     25  C   UNL     1       7.045   4.378  13.455  0.00  0.00    +0.000 C 
ATOM     26  C   UNL     1       6.574   4.898  14.780  0.00  0.00    +0.000 A 
ATOM     27  C   UNL     1       7.212   4.549  15.969  0.00  0.00    +0.000 A 
ATOM     28  C   UNL     1       6.730   5.013  17.200  0.00  0.00    +0.000 A 
ATOM     29  C   UNL     1       5.599   5.842  17.264  0.00  0.00    +0.000 A 
ATOM     30  C   UNL     1       4.975   6.193  16.060  0.00  0.00    +0.000 A 
ATOM     31  C   UNL     1       5.453   5.728  14.834  0.00  0.00    +0.000 A 
ENDBRANCH  24  29
ENDBRANCH   1  24
TORSDOF 7
ENDMDL
MODEL 3
REMARK VINA RESULT:      -7.4      1.203      1.483
REMARK  Name = 
REMARK  8 active torsions:
REMARK  status: ('A' for Active; 'I' for Inactive)
REMARK    1  A    between atoms: C_1  and  C_2
REMARK    2  A    between atoms: C_5  and  C_6
REMARK    3  A    between atoms: C_6  and  N_7
REMARK    4  A    between atoms: C_8  and  C_9
REMARK    5  A    between atoms: N_14  and  C_15
REMARK    6  A    between atoms: C_15  and  C_16
REMARK    7  A    between atoms: C_16  and  C_17
REMARK    8  A    between atoms: C_17  and  O_19
REMARK                            x       y       z     vdW  Elec       q    Type
REMARK                         _______ _______ _______ _____ _____    ______ ____
ROOT
ATOM      1  N   UNL     1       3.655   5.185  18.324  0.00  0.00    +0.000 N 
ATOM      2  C   UNL     1       2.452   5.864  18.274  0.00  0.00    +0.000 A 
ATOM      3  N   UNL     1       1.443   5.025  18.409  0.00  0.00    +0.000 NA
ATOM      4  C   UNL     1       1.999   3.779  18.572  0.00  0.00    +0.000 A 
ATOM      5  C   UNL     1       1.381   2.526  18.708  0.00  0.00    +0.000 A 
ATOM      6  C   UNL     1       2.185   1.383  18.824  0.00  0.00    +0.000 A 
ATOM      7  C   UNL     1       3.576   1.486  18.835  0.00  0.00    +0.000 A 
ATOM      8  C   UNL     1       4.208   2.727  18.726  0.00  0.00    +0.000 A 
ATOM      9  C   UNL     1       3.385   3.854  18.575  0.00  0.00    +0.000 A 
ENDROOT
BRANCH   2  10
ATOM     10  C   UNL     1       2.400   7.265  18.054  0.00  0.00    +0.000 C 
ATOM     11  C   UNL     1       1.955   8.124  18.981  0.00  0.00    +0.000 C 
ATOM     12  S   UNL     1       1.467   7.788  20.592  0.00  0.00    +0.000 S 
ATOM     13  C   UNL     1       0.885   9.428  20.859  0.00  0.00    +0.000 C 
ATOM     14  S   UNL     1       0.133   9.858  22.285  0.00  0.00    +0.000 S 
ATOM     15  N   UNL     1       1.146  10.213  19.752  0.00  0.00    +0.000 N 
ATOM     16  C   UNL     1       1.784   9.574  18.698  0.00  0.00    +0.000 C 
ATOM     17  O   UNL     1       2.160  10.104  17.661  0.00  0.00    +0.000 OA
BRANCH  15  18
ATOM     18  C   UNL     1       0.899  11.668  19.667  0.00  0.00    +0.000 C 
BRANCH  18  19
ATOM     19  C   UNL     1      -0.556  12.016  19.339  0.00  0.00    +0.000 C 
BRANCH  19  20
ATOM     20  C   UNL     1      -0.653  13.109  18.306  0.00  0.00    +0.000 C 
ATOM     21  O   UNL     1      -0.279  14.260  18.459  0.00  0.00    +0.000 OA
BRANCH  20  22
ATOM     22  O   UNL     1      -1.212  12.676  17.151  0.00  0.00    +0.000 OA
ATOM     23  H   UNL     1      -2.139  12.374  17.238  0.00  0.00    +0.000 HD
ENDBRANCH  20  22
ENDBRANCH  19  20
ENDBRANCH  18  19
ENDBRANCH  15  18
ENDBRANCH   2  10
BRANCH   1  24
ATOM     24  C   UNL     1       4.991   5.726  18.121  0.00  0.00    +0.000 C 
BRANCH  24  29
ATOM     25  C   UNL     1       7.250   4.437  12.892  0.00  0.00    +0.000 C 
ATOM     26  C   UNL     1       6.676   4.708  14.250  0.00  0.00    +0.000 A 
ATOM     27  C   UNL     1       5.317   4.543  14.514  0.00  0.00    +0.000 A 
ATOM     28  C   UNL     1       4.795   4.842  15.779  0.00  0.00    +0.000 A 
ATOM     29  C   UNL     1       5.626   5.307  16.809  0.00  0.00    +0.000 A 
ATOM     30  C   UNL     1       6.991   5.457  16.532  0.00  0.00    +0.000 A 
ATOM     31  C   UNL     1       7.511   5.163  15.271  0.00  0.00    +0.000 A 
ENDBRANCH  24  29
ENDBRANCH   1  24
TORSDOF 7
ENDMDL
MODEL 4
REMARK VINA RESULT:      -7.4      3.276      8.287
REMARK  Name = 
REMARK  8 active torsions:
REMARK  status: ('A' for Active; 'I' for Inactive)
REMARK    1  A    between atoms: C_1  and  C_2
REMARK    2  A    between atoms: C_5  and  C_6
REMARK    3  A    between atoms: C_6  and  N_7
REMARK    4  A    between atoms: C_8  and  C_9
REMARK    5  A    between atoms: N_14  and  C_15
REMARK    6  A    between atoms: C_15  and  C_16
REMARK    7  A    between atoms: C_16  and  C_17
REMARK    8  A    between atoms: C_17  and  O_19
REMARK                            x       y       z     vdW  Elec       q    Type
REMARK                         _______ _______ _______ _____ _____    ______ ____
ROOT
ATOM      1  N   UNL     1       0.791   9.688  19.624  0.00  0.00    +0.000 N 
ATOM      2  C   UNL     1       1.589   8.578  19.825  0.00  0.00    +0.000 A 
ATOM      3  N   UNL     1       1.535   8.193  21.085  0.00  0.00    +0.000 NA
ATOM      4  C   UNL     1       0.667   9.054  21.713  0.00  0.00    +0.000 A 
ATOM      5  C   UNL     1       0.287   9.126  23.063  0.00  0.00    +0.000 A 
ATOM      6  C   UNL     1      -0.597  10.138  23.464  0.00  0.00    +0.000 A 
ATOM      7  C   UNL     1      -1.117  11.041  22.537  0.00  0.00    +0.000 A 
ATOM      8  C   UNL     1      -0.769  10.969  21.186  0.00  0.00    +0.000 A 
ATOM      9  C   UNL     1       0.145   9.972  20.812  0.00  0.00    +0.000 A 
ENDROOT
BRANCH   2  10
ATOM     10  C   UNL     1       2.366   8.025  18.774  0.00  0.00    +0.000 C 
ATOM     11  C   UNL     1       2.755   6.742  18.764  0.00  0.00    +0.000 C 
ATOM     12  S   UNL     1       2.356   5.504  19.884  0.00  0.00    +0.000 S 
ATOM     13  C   UNL     1       3.475   4.354  19.157  0.00  0.00    +0.000 C 
ATOM     14  S   UNL     1       3.712   2.841  19.819  0.00  0.00    +0.000 S 
ATOM     15  N   UNL     1       4.064   4.907  18.036  0.00  0.00    +0.000 N 
ATOM     16  C   UNL     1       3.675   6.203  17.728  0.00  0.00    +0.000 C 
ATOM     17  O   UNL     1       4.027   6.843  16.746  0.00  0.00    +0.000 OA
BRANCH  15  18
ATOM     18  C   UNL     1       4.969   4.189  17.113  0.00  0.00    +0.000 C 
BRANCH  18  19
ATOM     19  C   UNL     1       6.450   4.485  17.366  0.00  0.00    +0.000 C 
BRANCH  19  20
ATOM     20  C   UNL     1       7.062   5.283  16.244  0.00  0.00    +0.000 C 
ATOM     21  O   UNL     1       7.548   4.815  15.227  0.00  0.00    +0.000 OA
BRANCH  20  22
ATOM     22  O   UNL     1       7.019   6.616  16.478  0.00  0.00    +0.000 OA
ATOM     23  H   UNL     1       6.454   6.876  17.234  0.00  0.00    +0.000 HD
ENDBRANCH  20  22
ENDBRANCH  19  20
ENDBRANCH  18  19
ENDBRANCH  15  18
ENDBRANCH   2  10
BRANCH   1  24
ATOM     24  C   UNL     1       0.648  10.474  18.407  0.00  0.00    +0.000 C 
BRANCH  24  29
ATOM     25  C   UNL     1      -5.014  11.152  17.150  0.00  0.00    +0.000 C 
ATOM     26  C   UNL     1      -3.547  10.995  17.415  0.00  0.00    +0.000 A 
ATOM     27  C   UNL     1      -2.876   9.810  17.119  0.00  0.00    +0.000 A 
ATOM     28  C   UNL     1      -1.513   9.670  17.412  0.00  0.00    +0.000 A 
ATOM     29  C   UNL     1      -0.793  10.719  18.004  0.00  0.00    +0.000 A 
ATOM     30  C   UNL     1      -1.479  11.908  18.286  0.00  0.00    +0.000 A 
ATOM     31  C   UNL     1      -2.837  12.046  17.996  0.00  0.00    +0.000 A 
ENDBRANCH  24  29
ENDBRANCH   1  24
TORSDOF 7
ENDMDL
MODEL 5
REMARK VINA RESULT:      -7.3      2.807      8.190
REMARK  Name = 
REMARK  8 active torsions:
REMARK  status: ('A' for Active; 'I' for Inactive)
REMARK    1  A    between atoms: C_1  and  C_2
REMARK    2  A    between atoms: C_5  and  C_6
REMARK    3  A    between atoms: C_6  and  N_7
REMARK    4  A    between atoms: C_8  and  C_9
REMARK    5  A    between atoms: N_14  and  C_15
REMARK    6  A    between atoms: C_15  and  C_16
REMARK    7  A    between atoms: C_16  and  C_17
REMARK    8  A    between atoms: C_17  and  O_19
REMARK                            x       y       z     vdW  Elec       q    Type
REMARK                         _______ _______ _______ _____ _____    ______ ____
ROOT
ATOM      1  N   UNL     1       0.590   9.939  19.645  0.00  0.00    +0.000 N 
ATOM      2  C   UNL     1       1.372   8.830  19.904  0.00  0.00    +0.000 A 
ATOM      3  N   UNL     1       1.256   8.467  21.167  0.00  0.00    +0.000 NA
ATOM      4  C   UNL     1       0.362   9.342  21.737  0.00  0.00    +0.000 A 
ATOM      5  C   UNL     1      -0.084   9.440  23.064  0.00  0.00    +0.000 A 
ATOM      6  C   UNL     1      -0.982  10.462  23.404  0.00  0.00    +0.000 A 
ATOM      7  C   UNL     1      -1.452  11.350  22.436  0.00  0.00    +0.000 A 
ATOM      8  C   UNL     1      -1.039  11.252  21.106  0.00  0.00    +0.000 A 
ATOM      9  C   UNL     1      -0.112  10.246  20.795  0.00  0.00    +0.000 A 
ENDROOT
BRANCH   2  10
ATOM     10  C   UNL     1       2.198   8.255  18.903  0.00  0.00    +0.000 C 
ATOM     11  C   UNL     1       2.555   6.964  18.917  0.00  0.00    +0.000 C 
ATOM     12  S   UNL     1       2.060   5.738  20.012  0.00  0.00    +0.000 S 
ATOM     13  C   UNL     1       3.192   4.560  19.356  0.00  0.00    +0.000 C 
ATOM     14  S   UNL     1       3.352   3.043  20.032  0.00  0.00    +0.000 S 
ATOM     15  N   UNL     1       3.861   5.095  18.271  0.00  0.00    +0.000 N 
ATOM     16  C   UNL     1       3.522   6.399  17.938  0.00  0.00    +0.000 C 
ATOM     17  O   UNL     1       3.948   7.028  16.979  0.00  0.00    +0.000 OA
BRANCH  15  18
ATOM     18  C   UNL     1       4.801   4.353  17.405  0.00  0.00    +0.000 C 
BRANCH  18  19
ATOM     19  C   UNL     1       6.270   4.565  17.786  0.00  0.00    +0.000 C 
BRANCH  19  20
ATOM     20  C   UNL     1       7.057   5.187  16.662  0.00  0.00    +0.000 C 
ATOM     21  O   UNL     1       7.842   4.596  15.938  0.00  0.00    +0.000 OA
BRANCH  20  22
ATOM     22  O   UNL     1       6.799   6.509  16.524  0.00  0.00    +0.000 OA
ATOM     23  H   UNL     1       5.871   6.762  16.702  0.00  0.00    +0.000 HD
ENDBRANCH  20  22
ENDBRANCH  19  20
ENDBRANCH  18  19
ENDBRANCH  15  18
ENDBRANCH   2  10
BRANCH   1  24
ATOM     24  C   UNL     1       0.510  10.703  18.409  0.00  0.00    +0.000 C 
BRANCH  24  29
ATOM     25  C   UNL     1       2.787  16.081  18.428  0.00  0.00    +0.000 C 
ATOM     26  C   UNL     1       2.217  14.695  18.483  0.00  0.00    +0.000 A 
ATOM     27  C   UNL     1       3.017  13.570  18.291  0.00  0.00    +0.000 A 
ATOM     28  C   UNL     1       2.457  12.286  18.306  0.00  0.00    +0.000 A 
ATOM     29  C   UNL     1       1.082  12.103  18.519  0.00  0.00    +0.000 A 
ATOM     30  C   UNL     1       0.293  13.243  18.722  0.00  0.00    +0.000 A 
ATOM     31  C   UNL     1       0.850  14.522  18.704  0.00  0.00    +0.000 A 
ENDBRANCH  24  29
ENDBRANCH   1  24
TORSDOF 7
ENDMDL
MODEL 6
REMARK VINA RESULT:      -7.2      1.018      1.187
REMARK  Name = 
REMARK  8 active torsions:
REMARK  status: ('A' for Active; 'I' for Inactive)
REMARK    1  A    between atoms: C_1  and  C_2
REMARK    2  A    between atoms: C_5  and  C_6
REMARK    3  A    between atoms: C_6  and  N_7
REMARK    4  A    between atoms: C_8  and  C_9
REMARK    5  A    between atoms: N_14  and  C_15
REMARK    6  A    between atoms: C_15  and  C_16
REMARK    7  A    between atoms: C_16  and  C_17
REMARK    8  A    between atoms: C_17  and  O_19
REMARK                            x       y       z     vdW  Elec       q    Type
REMARK                         _______ _______ _______ _____ _____    ______ ____
ROOT
ATOM      1  N   UNL     1       3.716   5.459  18.649  0.00  0.00    +0.000 N 
ATOM      2  C   UNL     1       2.502   6.111  18.550  0.00  0.00    +0.000 A 
ATOM      3  N   UNL     1       1.508   5.270  18.763  0.00  0.00    +0.000 NA
ATOM      4  C   UNL     1       2.086   4.052  19.030  0.00  0.00    +0.000 A 
ATOM      5  C   UNL     1       1.490   2.806  19.277  0.00  0.00    +0.000 A 
ATOM      6  C   UNL     1       2.314   1.690  19.485  0.00  0.00    +0.000 A 
ATOM      7  C   UNL     1       3.703   1.817  19.478  0.00  0.00    +0.000 A 
ATOM      8  C   UNL     1       4.313   3.054  19.257  0.00  0.00    +0.000 A 
ATOM      9  C   UNL     1       3.471   4.150  19.016  0.00  0.00    +0.000 A 
ENDROOT
BRANCH   2  10
ATOM     10  C   UNL     1       2.425   7.487  18.210  0.00  0.00    +0.000 C 
ATOM     11  C   UNL     1       1.911   8.406  19.038  0.00  0.00    +0.000 C 
ATOM     12  S   UNL     1       1.350   8.190  20.646  0.00  0.00    +0.000 S 
ATOM     13  C   UNL     1       0.712   9.828  20.746  0.00  0.00    +0.000 C 
ATOM     14  S   UNL     1      -0.122  10.352  22.092  0.00  0.00    +0.000 S 
ATOM     15  N   UNL     1       1.009  10.526  19.591  0.00  0.00    +0.000 N 
ATOM     16  C   UNL     1       1.716   9.822  18.626  0.00  0.00    +0.000 C 
ATOM     17  O   UNL     1       2.132  10.275  17.568  0.00  0.00    +0.000 OA
BRANCH  15  18
ATOM     18  C   UNL     1       0.729  11.961  19.372  0.00  0.00    +0.000 C 
BRANCH  18  19
ATOM     19  C   UNL     1       1.974  12.845  19.486  0.00  0.00    +0.000 C 
BRANCH  19  20
ATOM     20  C   UNL     1       2.178  13.349  20.892  0.00  0.00    +0.000 C 
ATOM     21  O   UNL     1       3.259  13.556  21.419  0.00  0.00    +0.000 OA
BRANCH  20  22
ATOM     22  O   UNL     1       1.006  13.561  21.537  0.00  0.00    +0.000 OA
ATOM     23  H   UNL     1       0.862  12.983  22.313  0.00  0.00    +0.000 HD
ENDBRANCH  20  22
ENDBRANCH  19  20
ENDBRANCH  18  19
ENDBRANCH  15  18
ENDBRANCH   2  10
BRANCH   1  24
ATOM     24  C   UNL     1       5.042   6.002  18.391  0.00  0.00    +0.000 C 
BRANCH  24  29
ATOM     25  C   UNL     1       6.999   4.235  13.180  0.00  0.00    +0.000 C 
ATOM     26  C   UNL     1       6.542   4.729  14.520  0.00  0.00    +0.000 A 
ATOM     27  C   UNL     1       7.077   4.226  15.704  0.00  0.00    +0.000 A 
ATOM     28  C   UNL     1       6.607   4.673  16.945  0.00  0.00    +0.000 A 
ATOM     29  C   UNL     1       5.594   5.640  17.026  0.00  0.00    +0.000 A 
ATOM     30  C   UNL     1       5.074   6.146  15.827  0.00  0.00    +0.000 A 
ATOM     31  C   UNL     1       5.540   5.698  14.590  0.00  0.00    +0.000 A 
ENDBRANCH  24  29
ENDBRANCH   1  24
TORSDOF 7
ENDMDL
MODEL 7
REMARK VINA RESULT:      -7.2      1.650      2.094
REMARK  Name = 
REMARK  8 active torsions:
REMARK  status: ('A' for Active; 'I' for Inactive)
REMARK    1  A    between atoms: C_1  and  C_2
REMARK    2  A    between atoms: C_5  and  C_6
REMARK    3  A    between atoms: C_6  and  N_7
REMARK    4  A    between atoms: C_8  and  C_9
REMARK    5  A    between atoms: N_14  and  C_15
REMARK    6  A    between atoms: C_15  and  C_16
REMARK    7  A    between atoms: C_16  and  C_17
REMARK    8  A    between atoms: C_17  and  O_19
REMARK                            x       y       z     vdW  Elec       q    Type
REMARK                         _______ _______ _______ _____ _____    ______ ____
ROOT
ATOM      1  N   UNL     1       3.496   5.590  19.441  0.00  0.00    +0.000 N 
ATOM      2  C   UNL     1       2.327   6.325  19.406  0.00  0.00    +0.000 A 
ATOM      3  N   UNL     1       1.334   5.639  19.940  0.00  0.00    +0.000 NA
ATOM      4  C   UNL     1       1.873   4.443  20.351  0.00  0.00    +0.000 A 
ATOM      5  C   UNL     1       1.252   3.328  20.937  0.00  0.00    +0.000 A 
ATOM      6  C   UNL     1       2.028   2.198  21.231  0.00  0.00    +0.000 A 
ATOM      7  C   UNL     1       3.399   2.187  20.977  0.00  0.00    +0.000 A 
ATOM      8  C   UNL     1       4.038   3.296  20.418  0.00  0.00    +0.000 A 
ATOM      9  C   UNL     1       3.237   4.403  20.098  0.00  0.00    +0.000 A 
ENDROOT
BRANCH   2  10
ATOM     10  C   UNL     1       2.278   7.614  18.813  0.00  0.00    +0.000 C 
ATOM     11  C   UNL     1       1.727   8.669  19.427  0.00  0.00    +0.000 C 
ATOM     12  S   UNL     1       1.079   8.755  21.014  0.00  0.00    +0.000 S 
ATOM     13  C   UNL     1       0.449  10.381  20.773  0.00  0.00    +0.000 C 
ATOM     14  S   UNL     1      -0.452  11.144  21.952  0.00  0.00    +0.000 S 
ATOM     15  N   UNL     1       0.813  10.853  19.526  0.00  0.00    +0.000 N 
ATOM     16  C   UNL     1       1.565   9.983  18.749  0.00  0.00    +0.000 C 
ATOM     17  O   UNL     1       2.040  10.233  17.649  0.00  0.00    +0.000 OA
BRANCH  15  18
ATOM     18  C   UNL     1       0.555  12.221  19.029  0.00  0.00    +0.000 C 
BRANCH  18  19
ATOM     19  C   UNL     1      -0.683  12.315  18.132  0.00  0.00    +0.000 C 
BRANCH  19  20
ATOM     20  C   UNL     1      -1.952  12.423  18.935  0.00  0.00    +0.000 C 
ATOM     21  O   UNL     1      -2.837  11.583  18.974  0.00  0.00    +0.000 OA
BRANCH  20  22
ATOM     22  O   UNL     1      -2.020  13.578  19.638  0.00  0.00    +0.000 OA
ATOM     23  H   UNL     1      -1.735  14.371  19.141  0.00  0.00    +0.000 HD
ENDBRANCH  20  22
ENDBRANCH  19  20
ENDBRANCH  18  19
ENDBRANCH  15  18
ENDBRANCH   2  10
BRANCH   1  24
ATOM     24  C   UNL     1       4.788   5.945  18.871  0.00  0.00    +0.000 C 
BRANCH  24  29
ATOM     25  C   UNL     1       6.024   3.991  13.508  0.00  0.00    +0.000 C 
ATOM     26  C   UNL     1       5.647   4.485  14.872  0.00  0.00    +0.000 A 
ATOM     27  C   UNL     1       5.330   5.823  15.101  0.00  0.00    +0.000 A 
ATOM     28  C   UNL     1       5.019   6.272  16.391  0.00  0.00    +0.000 A 
ATOM     29  C   UNL     1       5.015   5.386  17.480  0.00  0.00    +0.000 A 
ATOM     30  C   UNL     1       5.325   4.042  17.232  0.00  0.00    +0.000 A 
ATOM     31  C   UNL     1       5.638   3.596  15.948  0.00  0.00    +0.000 A 
ENDBRANCH  24  29
ENDBRANCH   1  24
TORSDOF 7
ENDMDL
MODEL 8
REMARK VINA RESULT:      -7.2      1.147      1.526
REMARK  Name = 
REMARK  8 active torsions:
REMARK  status: ('A' for Active; 'I' for Inactive)
REMARK    1  A    between atoms: C_1  and  C_2
REMARK    2  A    between atoms: C_5  and  C_6
REMARK    3  A    between atoms: C_6  and  N_7
REMARK    4  A    between atoms: C_8  and  C_9
REMARK    5  A    between atoms: N_14  and  C_15
REMARK    6  A    between atoms: C_15  and  C_16
REMARK    7  A    between atoms: C_16  and  C_17
REMARK    8  A    between atoms: C_17  and  O_19
REMARK                            x       y       z     vdW  Elec       q    Type
REMARK                         _______ _______ _______ _____ _____    ______ ____
ROOT
ATOM      1  N   UNL     1       3.504   5.578  19.390  0.00  0.00    +0.000 N 
ATOM      2  C   UNL     1       2.352   6.338  19.325  0.00  0.00    +0.000 A 
ATOM      3  N   UNL     1       1.337   5.684  19.858  0.00  0.00    +0.000 NA
ATOM      4  C   UNL     1       1.843   4.484  20.299  0.00  0.00    +0.000 A 
ATOM      5  C   UNL     1       1.189   3.395  20.897  0.00  0.00    +0.000 A 
ATOM      6  C   UNL     1       1.935   2.254  21.224  0.00  0.00    +0.000 A 
ATOM      7  C   UNL     1       3.310   2.208  20.989  0.00  0.00    +0.000 A 
ATOM      8  C   UNL     1       3.981   3.291  20.418  0.00  0.00    +0.000 A 
ATOM      9  C   UNL     1       3.209   4.409  20.065  0.00  0.00    +0.000 A 
ENDROOT
BRANCH   2  10
ATOM     10  C   UNL     1       2.340   7.615  18.707  0.00  0.00    +0.000 C 
ATOM     11  C   UNL     1       1.785   8.690  19.284  0.00  0.00    +0.000 C 
ATOM     12  S   UNL     1       1.090   8.814  20.848  0.00  0.00    +0.000 S 
ATOM     13  C   UNL     1       0.490  10.444  20.557  0.00  0.00    +0.000 C 
ATOM     14  S   UNL     1      -0.436  11.241  21.693  0.00  0.00    +0.000 S 
ATOM     15  N   UNL     1       0.900  10.887  19.314  0.00  0.00    +0.000 N 
ATOM     16  C   UNL     1       1.663   9.992  18.577  0.00  0.00    +0.000 C 
ATOM     17  O   UNL     1       2.175  10.214  17.488  0.00  0.00    +0.000 OA
BRANCH  15  18
ATOM     18  C   UNL     1       0.677  12.249  18.784  0.00  0.00    +0.000 C 
BRANCH  18  19
ATOM     19  C   UNL     1       1.897  13.163  18.933  0.00  0.00    +0.000 C 
BRANCH  19  20
ATOM     20  C   UNL     1       1.990  13.754  20.316  0.00  0.00    +0.000 C 
ATOM     21  O   UNL     1       2.676  13.318  21.227  0.00  0.00    +0.000 OA
BRANCH  20  22
ATOM     22  O   UNL     1       1.215  14.855  20.458  0.00  0.00    +0.000 OA
ATOM     23  H   UNL     1       1.360  15.543  19.777  0.00  0.00    +0.000 HD
ENDBRANCH  20  22
ENDBRANCH  19  20
ENDBRANCH  18  19
ENDBRANCH  15  18
ENDBRANCH   2  10
BRANCH   1  24
ATOM     24  C   UNL     1       4.810   5.893  18.831  0.00  0.00    +0.000 C 
BRANCH  24  29
ATOM     25  C   UNL     1       6.007   3.957  13.453  0.00  0.00    +0.000 C 
ATOM     26  C   UNL     1       5.640   4.449  14.820  0.00  0.00    +0.000 A 
ATOM     27  C   UNL     1       5.382   5.797  15.065  0.00  0.00    +0.000 A 
ATOM     28  C   UNL     1       5.081   6.242  16.358  0.00  0.00    +0.000 A 
ATOM     29  C   UNL     1       5.025   5.342  17.434  0.00  0.00    +0.000 A 
ATOM     30  C   UNL     1       5.275   3.989  17.170  0.00  0.00    +0.000 A 
ATOM     31  C   UNL     1       5.579   3.546  15.882  0.00  0.00    +0.000 A 
ENDBRANCH  24  29
ENDBRANCH   1  24
TORSDOF 7
ENDMDL
MODEL 9
REMARK VINA RESULT:      -7.1      3.432      8.340
REMARK  Name = 
REMARK  8 active torsions:
REMARK  status: ('A' for Active; 'I' for Inactive)
REMARK    1  A    between atoms: C_1  and  C_2
REMARK    2  A    between atoms: C_5  and  C_6
REMARK    3  A    between atoms: C_6  and  N_7
REMARK    4  A    between atoms: C_8  and  C_9
REMARK    5  A    between atoms: N_14  and  C_15
REMARK    6  A    between atoms: C_15  and  C_16
REMARK    7  A    between atoms: C_16  and  C_17
REMARK    8  A    between atoms: C_17  and  O_19
REMARK                            x       y       z     vdW  Elec       q    Type
REMARK                         _______ _______ _______ _____ _____    ______ ____
ROOT
ATOM      1  N   UNL     1       0.913   9.472  19.562  0.00  0.00    +0.000 N 
ATOM      2  C   UNL     1       1.726   8.370  19.747  0.00  0.00    +0.000 A 
ATOM      3  N   UNL     1       1.716   7.997  21.012  0.00  0.00    +0.000 NA
ATOM      4  C   UNL     1       0.862   8.857  21.660  0.00  0.00    +0.000 A 
ATOM      5  C   UNL     1       0.525   8.940  23.020  0.00  0.00    +0.000 A 
ATOM      6  C   UNL     1      -0.354   9.948  23.440  0.00  0.00    +0.000 A 
ATOM      7  C   UNL     1      -0.911  10.839  22.521  0.00  0.00    +0.000 A 
ATOM      8  C   UNL     1      -0.606  10.756  21.161  0.00  0.00    +0.000 A 
ATOM      9  C   UNL     1       0.304   9.762  20.767  0.00  0.00    +0.000 A 
ENDROOT
BRANCH   2  10
ATOM     10  C   UNL     1       2.474   7.812  18.677  0.00  0.00    +0.000 C 
ATOM     11  C   UNL     1       2.853   6.527  18.656  0.00  0.00    +0.000 C 
ATOM     12  S   UNL     1       2.472   5.290  19.784  0.00  0.00    +0.000 S 
ATOM     13  C   UNL     1       3.564   4.133  19.029  0.00  0.00    +0.000 C 
ATOM     14  S   UNL     1       3.807   2.618  19.683  0.00  0.00    +0.000 S 
ATOM     15  N   UNL     1       4.130   4.683  17.894  0.00  0.00    +0.000 N 
ATOM     16  C   UNL     1       3.742   5.982  17.597  0.00  0.00    +0.000 C 
ATOM     17  O   UNL     1       4.075   6.621  16.607  0.00  0.00    +0.000 OA
BRANCH  15  18
ATOM     18  C   UNL     1       5.007   3.960  16.949  0.00  0.00    +0.000 C 
BRANCH  18  19
ATOM     19  C   UNL     1       6.409   4.567  16.839  0.00  0.00    +0.000 C 
BRANCH  19  20
ATOM     20  C   UNL     1       6.905   4.578  15.416  0.00  0.00    +0.000 C 
ATOM     21  O   UNL     1       7.680   5.395  14.945  0.00  0.00    +0.000 OA
BRANCH  20  22
ATOM     22  O   UNL     1       6.394   3.560  14.685  0.00  0.00    +0.000 OA
ATOM     23  H   UNL     1       5.639   3.099  15.104  0.00  0.00    +0.000 HD
ENDBRANCH  20  22
ENDBRANCH  19  20
ENDBRANCH  18  19
ENDBRANCH  15  18
ENDBRANCH   2  10
BRANCH   1  24
ATOM     24  C   UNL     1       0.725  10.245  18.343  0.00  0.00    +0.000 C 
BRANCH  24  29
ATOM     25  C   UNL     1      -4.753  11.390  16.676  0.00  0.00    +0.000 C 
ATOM     26  C   UNL     1      -3.369  11.076  17.158  0.00  0.00    +0.000 A 
ATOM     27  C   UNL     1      -2.633  11.992  17.906  0.00  0.00    +0.000 A 
ATOM     28  C   UNL     1      -1.325  11.695  18.312  0.00  0.00    +0.000 A 
ATOM     29  C   UNL     1      -0.730  10.468  17.980  0.00  0.00    +0.000 A 
ATOM     30  C   UNL     1      -1.487   9.553  17.237  0.00  0.00    +0.000 A 
ATOM     31  C   UNL     1      -2.788   9.850  16.830  0.00  0.00    +0.000 A 
ENDBRANCH  24  29
ENDBRANCH   1  24
TORSDOF 7
ENDMDL
