MODEL 1
REMARK VINA RESULT:      -8.1      0.000      0.000
REMARK  Name = 
REMARK  8 active torsions:
REMARK  status: ('A' for Active; 'I' for Inactive)
REMARK    1  A    between atoms: C_2  and  C_3
REMARK    2  A    between atoms: N_5  and  C_6
REMARK    3  A    between atoms: N_5  and  C_7
REMARK    4  A    between atoms: C_12  and  C_13
REMARK    5  A    between atoms: C_18  and  C_19
REMARK    6  A    between atoms: C_22  and  C_23
REMARK    7  A    between atoms: C_26  and  O_27
REMARK    8  A    between atoms: O_27  and  C_28
REMARK                            x       y       z     vdW  Elec       q    Type
REMARK                         _______ _______ _______ _____ _____    ______ ____
ROOT
ATOM      1  C   UNL     1      -2.954  13.065  20.520  0.00  0.00    +0.000 C 
ATOM      2  C   UNL     1      -3.034  14.588  20.270  0.00  0.00    +0.000 C 
ATOM      3  C   UNL     1      -1.987  15.351  21.081  0.00  0.00    +0.000 C 
ATOM      4  N   UNL     1      -0.667  14.811  20.808  0.00  0.00    +0.000 N 
ATOM      5  C   UNL     1      -0.483  13.473  20.727  0.00  0.00    +0.000 A 
ATOM      6  C   UNL     1       0.648  12.681  20.630  0.00  0.00    +0.000 A 
ATOM      7  C   UNL     1       0.123  11.349  20.472  0.00  0.00    +0.000 A 
ATOM      8  N   UNL     1      -1.209  11.327  20.661  0.00  0.00    +0.000 NA
ATOM      9  N   UNL     1      -1.555  12.627  20.664  0.00  0.00    +0.000 N 
ATOM     10  H   UNL     1       0.135  15.434  20.928  0.00  0.00    +0.000 HD
ENDROOT
BRANCH   1  16
ATOM     11  C   UNL     1      -5.068  12.264  19.262  0.00  0.00    +0.000 A 
ATOM     12  C   UNL     1      -5.652  11.588  18.174  0.00  0.00    +0.000 A 
ATOM     13  C   UNL     1      -4.864  10.922  17.236  0.00  0.00    +0.000 A 
ATOM     14  C   UNL     1      -3.482  10.945  17.359  0.00  0.00    +0.000 A 
ATOM     15  C   UNL     1      -2.893  11.652  18.406  0.00  0.00    +0.000 A 
ATOM     16  C   UNL     1      -3.666  12.305  19.394  0.00  0.00    +0.000 A 
BRANCH  11  19
ATOM     17  C   UNL     1      -6.835  13.845  19.967  0.00  0.00    +0.000 C 
ATOM     18  O   UNL     1      -7.911  13.991  20.547  0.00  0.00    +0.000 OA
ATOM     19  N   UNL     1      -5.927  12.817  20.259  0.00  0.00    +0.000 N 
ATOM     20  C   UNL     1      -6.380  11.834  21.247  0.00  0.00    +0.000 C 
BRANCH  17  22
ATOM     21  C   UNL     1      -7.219  15.333  18.027  0.00  0.00    +0.000 C 
ATOM     22  C   UNL     1      -6.381  14.847  18.952  0.00  0.00    +0.000 C 
ENDBRANCH  17  22
ENDBRANCH  11  19
ENDBRANCH   1  16
BRANCH   7  23
ATOM     23  C   UNL     1       0.819  10.118  20.082  0.00  0.00    +0.000 A 
ATOM     24  C   UNL     1       1.155   9.141  21.029  0.00  0.00    +0.000 A 
ATOM     25  C   UNL     1       1.802   7.962  20.636  0.00  0.00    +0.000 A 
ATOM     26  C   UNL     1       2.123   7.752  19.294  0.00  0.00    +0.000 A 
ATOM     27  C   UNL     1       1.823   8.735  18.354  0.00  0.00    +0.000 A 
ATOM     28  C   UNL     1       1.121   9.875  18.735  0.00  0.00    +0.000 A 
BRANCH  26  29
ATOM     29  O   UNL     1       2.763   6.572  18.985  0.00  0.00    +0.000 OA
BRANCH  29  30
ATOM     30  C   UNL     1       2.116   5.373  19.199  0.00  0.00    +0.000 A 
ATOM     31  C   UNL     1       1.860   4.601  18.065  0.00  0.00    +0.000 A 
ATOM     32  C   UNL     1       1.217   3.366  18.188  0.00  0.00    +0.000 A 
ATOM     33  C   UNL     1       0.826   2.904  19.444  0.00  0.00    +0.000 A 
ATOM     34  C   UNL     1       1.095   3.664  20.580  0.00  0.00    +0.000 A 
ATOM     35  C   UNL     1       1.764   4.882  20.462  0.00  0.00    +0.000 A 
ENDBRANCH  29  30
ENDBRANCH  26  29
ENDBRANCH   7  23
BRANCH   6  36
ATOM     36  C   UNL     1       2.007  13.187  20.611  0.00  0.00    +0.000 C 
ATOM     37  N   UNL     1       2.600  13.319  19.389  0.00  0.00    +0.000 N 
ATOM     38  O   UNL     1       2.644  13.476  21.626  0.00  0.00    +0.000 OA
ATOM     39  H   UNL     1       2.142  13.089  18.519  0.00  0.00    +0.000 HD
ATOM     40  H   UNL     1       3.524  13.725  19.360  0.00  0.00    +0.000 HD
ENDBRANCH   6  36
TORSDOF 7
ENDMDL
MODEL 2
REMARK VINA RESULT:      -8.0      0.144      1.129
REMARK  Name = 
REMARK  8 active torsions:
REMARK  status: ('A' for Active; 'I' for Inactive)
REMARK    1  A    between atoms: C_2  and  C_3
REMARK    2  A    between atoms: N_5  and  C_6
REMARK    3  A    between atoms: N_5  and  C_7
REMARK    4  A    between atoms: C_12  and  C_13
REMARK    5  A    between atoms: C_18  and  C_19
REMARK    6  A    between atoms: C_22  and  C_23
REMARK    7  A    between atoms: C_26  and  O_27
REMARK    8  A    between atoms: O_27  and  C_28
REMARK                            x       y       z     vdW  Elec       q    Type
REMARK                         _______ _______ _______ _____ _____    ______ ____
ROOT
ATOM      1  C   UNL     1      -2.952  13.087  20.526  0.00  0.00    +0.000 C 
ATOM      2  C   UNL     1      -3.020  14.607  20.248  0.00  0.00    +0.000 C 
ATOM      3  C   UNL     1      -1.962  15.375  21.041  0.00  0.00    +0.000 C 
ATOM      4  N   UNL     1      -0.649  14.819  20.773  0.00  0.00    +0.000 N 
ATOM      5  C   UNL     1      -0.476  13.478  20.715  0.00  0.00    +0.000 A 
ATOM      6  C   UNL     1       0.647  12.674  20.627  0.00  0.00    +0.000 A 
ATOM      7  C   UNL     1       0.110  11.344  20.495  0.00  0.00    +0.000 A 
ATOM      8  N   UNL     1      -1.221  11.338  20.690  0.00  0.00    +0.000 NA
ATOM      9  N   UNL     1      -1.556  12.640  20.671  0.00  0.00    +0.000 N 
ATOM     10  H   UNL     1       0.160  15.436  20.878  0.00  0.00    +0.000 HD
ENDROOT
BRANCH   1  16
ATOM     11  C   UNL     1      -5.078  12.263  19.305  0.00  0.00    +0.000 A 
ATOM     12  C   UNL     1      -5.674  11.574  18.231  0.00  0.00    +0.000 A 
ATOM     13  C   UNL     1      -4.895  10.906  17.288  0.00  0.00    +0.000 A 
ATOM     14  C   UNL     1      -3.513  10.938  17.391  0.00  0.00    +0.000 A 
ATOM     15  C   UNL     1      -2.913  11.658  18.422  0.00  0.00    +0.000 A 
ATOM     16  C   UNL     1      -3.676  12.314  19.417  0.00  0.00    +0.000 A 
BRANCH  11  19
ATOM     17  C   UNL     1      -6.847  13.838  20.022  0.00  0.00    +0.000 C 
ATOM     18  O   UNL     1      -7.915  13.981  20.617  0.00  0.00    +0.000 OA
ATOM     19  N   UNL     1      -5.927  12.820  20.310  0.00  0.00    +0.000 N 
ATOM     20  C   UNL     1      -6.357  11.843  21.314  0.00  0.00    +0.000 C 
BRANCH  17  22
ATOM     21  C   UNL     1      -7.235  15.811  18.578  0.00  0.00    +0.000 C 
ATOM     22  C   UNL     1      -6.415  14.834  18.991  0.00  0.00    +0.000 C 
ENDBRANCH  17  22
ENDBRANCH  11  19
ENDBRANCH   1  16
BRANCH   7  23
ATOM     23  C   UNL     1       0.794  10.100  20.124  0.00  0.00    +0.000 A 
ATOM     24  C   UNL     1       1.241   9.877  18.815  0.00  0.00    +0.000 A 
ATOM     25  C   UNL     1       1.909   8.692  18.483  0.00  0.00    +0.000 A 
ATOM     26  C   UNL     1       2.132   7.716  19.456  0.00  0.00    +0.000 A 
ATOM     27  C   UNL     1       1.659   7.918  20.751  0.00  0.00    +0.000 A 
ATOM     28  C   UNL     1       1.055   9.123  21.095  0.00  0.00    +0.000 A 
BRANCH  26  29
ATOM     29  O   UNL     1       2.791   6.576  19.054  0.00  0.00    +0.000 OA
BRANCH  29  30
ATOM     30  C   UNL     1       2.159   5.354  19.159  0.00  0.00    +0.000 A 
ATOM     31  C   UNL     1       1.827   4.942  20.451  0.00  0.00    +0.000 A 
ATOM     32  C   UNL     1       1.176   3.722  20.651  0.00  0.00    +0.000 A 
ATOM     33  C   UNL     1       0.861   2.911  19.561  0.00  0.00    +0.000 A 
ATOM     34  C   UNL     1       1.175   3.327  18.270  0.00  0.00    +0.000 A 
ATOM     35  C   UNL     1       1.797   4.559  18.066  0.00  0.00    +0.000 A 
ENDBRANCH  29  30
ENDBRANCH  26  29
ENDBRANCH   7  23
BRANCH   6  36
ATOM     36  C   UNL     1       2.011  13.168  20.593  0.00  0.00    +0.000 C 
ATOM     37  N   UNL     1       2.578  13.334  19.363  0.00  0.00    +0.000 N 
ATOM     38  O   UNL     1       2.673  13.419  21.603  0.00  0.00    +0.000 OA
ATOM     39  H   UNL     1       2.097  13.136  18.497  0.00  0.00    +0.000 HD
ATOM     40  H   UNL     1       3.504  13.732  19.326  0.00  0.00    +0.000 HD
ENDBRANCH   6  36
TORSDOF 7
ENDMDL
MODEL 3
REMARK VINA RESULT:      -7.9      2.658      4.752
REMARK  Name = 
REMARK  8 active torsions:
REMARK  status: ('A' for Active; 'I' for Inactive)
REMARK    1  A    between atoms: C_2  and  C_3
REMARK    2  A    between atoms: N_5  and  C_6
REMARK    3  A    between atoms: N_5  and  C_7
REMARK    4  A    between atoms: C_12  and  C_13
REMARK    5  A    between atoms: C_18  and  C_19
REMARK    6  A    between atoms: C_22  and  C_23
REMARK    7  A    between atoms: C_26  and  O_27
REMARK    8  A    between atoms: O_27  and  C_28
REMARK                            x       y       z     vdW  Elec       q    Type
REMARK                         _______ _______ _______ _____ _____    ______ ____
ROOT
ATOM      1  C   UNL     1      -4.246  14.154  20.896  0.00  0.00    +0.000 C 
ATOM      2  C   UNL     1      -5.766  14.197  20.620  0.00  0.00    +0.000 C 
ATOM      3  C   UNL     1      -6.075  14.076  19.128  0.00  0.00    +0.000 C 
ATOM      4  N   UNL     1      -5.446  12.883  18.592  0.00  0.00    +0.000 N 
ATOM      5  C   UNL     1      -4.184  12.557  18.957  0.00  0.00    +0.000 A 
ATOM      6  C   UNL     1      -3.294  11.594  18.515  0.00  0.00    +0.000 A 
ATOM      7  C   UNL     1      -2.171  11.726  19.407  0.00  0.00    +0.000 A 
ATOM      8  N   UNL     1      -2.300  12.813  20.189  0.00  0.00    +0.000 NA
ATOM      9  N   UNL     1      -3.574  13.199  19.998  0.00  0.00    +0.000 N 
ATOM     10  H   UNL     1      -5.871  12.451  17.768  0.00  0.00    +0.000 HD
ENDROOT
BRANCH   1  16
ATOM     11  C   UNL     1      -3.110  14.562  23.184  0.00  0.00    +0.000 A 
ATOM     12  C   UNL     1      -2.957  14.226  24.543  0.00  0.00    +0.000 A 
ATOM     13  C   UNL     1      -3.633  13.138  25.093  0.00  0.00    +0.000 A 
ATOM     14  C   UNL     1      -4.489  12.388  24.300  0.00  0.00    +0.000 A 
ATOM     15  C   UNL     1      -4.685  12.743  22.967  0.00  0.00    +0.000 A 
ATOM     16  C   UNL     1      -3.984  13.817  22.369  0.00  0.00    +0.000 A 
BRANCH  11  19
ATOM     17  C   UNL     1      -2.567  16.958  22.893  0.00  0.00    +0.000 C 
ATOM     18  O   UNL     1      -1.698  17.829  22.950  0.00  0.00    +0.000 OA
ATOM     19  N   UNL     1      -2.296  15.605  22.646  0.00  0.00    +0.000 N 
ATOM     20  C   UNL     1      -0.877  15.248  22.559  0.00  0.00    +0.000 C 
BRANCH  17  22
ATOM     21  C   UNL     1      -4.553  17.742  24.145  0.00  0.00    +0.000 C 
ATOM     22  C   UNL     1      -4.015  17.326  22.991  0.00  0.00    +0.000 C 
ENDBRANCH  17  22
ENDBRANCH  11  19
ENDBRANCH   1  16
BRANCH   7  23
ATOM     23  C   UNL     1      -1.025  10.831  19.595  0.00  0.00    +0.000 A 
ATOM     24  C   UNL     1      -0.717  10.296  20.854  0.00  0.00    +0.000 A 
ATOM     25  C   UNL     1       0.370   9.427  21.012  0.00  0.00    +0.000 A 
ATOM     26  C   UNL     1       1.162   9.088  19.913  0.00  0.00    +0.000 A 
ATOM     27  C   UNL     1       0.882   9.644  18.667  0.00  0.00    +0.000 A 
ATOM     28  C   UNL     1      -0.237  10.453  18.498  0.00  0.00    +0.000 A 
BRANCH  26  29
ATOM     29  O   UNL     1       2.215   8.233  20.147  0.00  0.00    +0.000 OA
BRANCH  29  30
ATOM     30  C   UNL     1       2.147   6.932  19.694  0.00  0.00    +0.000 A 
ATOM     31  C   UNL     1       1.714   5.980  20.620  0.00  0.00    +0.000 A 
ATOM     32  C   UNL     1       1.605   4.638  20.245  0.00  0.00    +0.000 A 
ATOM     33  C   UNL     1       1.932   4.246  18.947  0.00  0.00    +0.000 A 
ATOM     34  C   UNL     1       2.347   5.195  18.017  0.00  0.00    +0.000 A 
ATOM     35  C   UNL     1       2.427   6.539  18.380  0.00  0.00    +0.000 A 
ENDBRANCH  29  30
ENDBRANCH  26  29
ENDBRANCH   7  23
BRANCH   6  36
ATOM     36  C   UNL     1      -3.565  10.652  17.444  0.00  0.00    +0.000 C 
ATOM     37  N   UNL     1      -3.633  11.157  16.179  0.00  0.00    +0.000 N 
ATOM     38  O   UNL     1      -3.753   9.447  17.626  0.00  0.00    +0.000 OA
ATOM     39  H   UNL     1      -3.501  12.135  15.961  0.00  0.00    +0.000 HD
ATOM     40  H   UNL     1      -3.762  10.503  15.421  0.00  0.00    +0.000 HD
ENDBRANCH   6  36
TORSDOF 7
ENDMDL
MODEL 4
REMARK VINA RESULT:      -7.9      2.613      4.774
REMARK  Name = 
REMARK  8 active torsions:
REMARK  status: ('A' for Active; 'I' for Inactive)
REMARK    1  A    between atoms: C_2  and  C_3
REMARK    2  A    between atoms: N_5  and  C_6
REMARK    3  A    between atoms: N_5  and  C_7
REMARK    4  A    between atoms: C_12  and  C_13
REMARK    5  A    between atoms: C_18  and  C_19
REMARK    6  A    between atoms: C_22  and  C_23
REMARK    7  A    between atoms: C_26  and  O_27
REMARK    8  A    between atoms: O_27  and  C_28
REMARK                            x       y       z     vdW  Elec       q    Type
REMARK                         _______ _______ _______ _____ _____    ______ ____
ROOT
ATOM      1  C   UNL     1      -4.223  14.089  20.819  0.00  0.00    +0.000 C 
ATOM      2  C   UNL     1      -5.755  14.125  20.618  0.00  0.00    +0.000 C 
ATOM      3  C   UNL     1      -6.137  13.952  19.148  0.00  0.00    +0.000 C 
ATOM      4  N   UNL     1      -5.536  12.740  18.624  0.00  0.00    +0.000 N 
ATOM      5  C   UNL     1      -4.258  12.425  18.937  0.00  0.00    +0.000 A 
ATOM      6  C   UNL     1      -3.391  11.445  18.485  0.00  0.00    +0.000 A 
ATOM      7  C   UNL     1      -2.225  11.607  19.315  0.00  0.00    +0.000 A 
ATOM      8  N   UNL     1      -2.314  12.722  20.064  0.00  0.00    +0.000 NA
ATOM      9  N   UNL     1      -3.596  13.102  19.923  0.00  0.00    +0.000 N 
ATOM     10  H   UNL     1      -6.001  12.279  17.838  0.00  0.00    +0.000 HD
ENDROOT
BRANCH   1  16
ATOM     11  C   UNL     1      -2.979  14.580  23.033  0.00  0.00    +0.000 A 
ATOM     12  C   UNL     1      -2.757  14.291  24.394  0.00  0.00    +0.000 A 
ATOM     13  C   UNL     1      -3.400  13.220  25.013  0.00  0.00    +0.000 A 
ATOM     14  C   UNL     1      -4.290  12.441  24.289  0.00  0.00    +0.000 A 
ATOM     15  C   UNL     1      -4.553  12.749  22.956  0.00  0.00    +0.000 A 
ATOM     16  C   UNL     1      -3.888  13.805  22.288  0.00  0.00    +0.000 A 
BRANCH  11  19
ATOM     17  C   UNL     1      -2.461  16.967  22.637  0.00  0.00    +0.000 C 
ATOM     18  O   UNL     1      -1.595  17.841  22.622  0.00  0.00    +0.000 OA
ATOM     19  N   UNL     1      -2.198  15.607  22.421  0.00  0.00    +0.000 N 
ATOM     20  C   UNL     1      -0.783  15.252  22.274  0.00  0.00    +0.000 C 
BRANCH  17  22
ATOM     21  C   UNL     1      -4.376  17.822  23.952  0.00  0.00    +0.000 C 
ATOM     22  C   UNL     1      -3.904  17.334  22.797  0.00  0.00    +0.000 C 
ENDBRANCH  17  22
ENDBRANCH  11  19
ENDBRANCH   1  16
BRANCH   7  23
ATOM     23  C   UNL     1      -1.070  10.717  19.477  0.00  0.00    +0.000 A 
ATOM     24  C   UNL     1      -0.229  10.411  18.399  0.00  0.00    +0.000 A 
ATOM     25  C   UNL     1       0.880   9.575  18.576  0.00  0.00    +0.000 A 
ATOM     26  C   UNL     1       1.157   9.033  19.832  0.00  0.00    +0.000 A 
ATOM     27  C   UNL     1       0.305   9.305  20.900  0.00  0.00    +0.000 A 
ATOM     28  C   UNL     1      -0.758  10.189  20.738  0.00  0.00    +0.000 A 
BRANCH  26  29
ATOM     29  O   UNL     1       2.261   8.216  19.928  0.00  0.00    +0.000 OA
BRANCH  29  30
ATOM     30  C   UNL     1       2.139   6.872  19.642  0.00  0.00    +0.000 A 
ATOM     31  C   UNL     1       2.518   6.479  18.357  0.00  0.00    +0.000 A 
ATOM     32  C   UNL     1       2.437   5.135  17.984  0.00  0.00    +0.000 A 
ATOM     33  C   UNL     1       1.972   4.184  18.892  0.00  0.00    +0.000 A 
ATOM     34  C   UNL     1       1.609   4.570  20.180  0.00  0.00    +0.000 A 
ATOM     35  C   UNL     1       1.719   5.906  20.564  0.00  0.00    +0.000 A 
ENDBRANCH  29  30
ENDBRANCH  26  29
ENDBRANCH   7  23
BRANCH   6  36
ATOM     36  C   UNL     1      -3.714  10.467  17.463  0.00  0.00    +0.000 C 
ATOM     37  N   UNL     1      -3.951  10.941  16.206  0.00  0.00    +0.000 N 
ATOM     38  O   UNL     1      -3.804   9.257  17.680  0.00  0.00    +0.000 OA
ATOM     39  H   UNL     1      -3.907  11.920  15.962  0.00  0.00    +0.000 HD
ATOM     40  H   UNL     1      -4.119  10.265  15.476  0.00  0.00    +0.000 HD
ENDBRANCH   6  36
TORSDOF 7
ENDMDL
MODEL 5
REMARK VINA RESULT:      -7.8      5.607     10.610
REMARK  Name = 
REMARK  8 active torsions:
REMARK  status: ('A' for Active; 'I' for Inactive)
REMARK    1  A    between atoms: C_2  and  C_3
REMARK    2  A    between atoms: N_5  and  C_6
REMARK    3  A    between atoms: N_5  and  C_7
REMARK    4  A    between atoms: C_12  and  C_13
REMARK    5  A    between atoms: C_18  and  C_19
REMARK    6  A    between atoms: C_22  and  C_23
REMARK    7  A    between atoms: C_26  and  O_27
REMARK    8  A    between atoms: O_27  and  C_28
REMARK                            x       y       z     vdW  Elec       q    Type
REMARK                         _______ _______ _______ _____ _____    ______ ____
ROOT
ATOM      1  C   UNL     1       7.920  15.782  19.710  0.00  0.00    +0.000 C 
ATOM      2  C   UNL     1       8.555  16.968  20.471  0.00  0.00    +0.000 C 
ATOM      3  C   UNL     1       7.862  18.290  20.142  0.00  0.00    +0.000 C 
ATOM      4  N   UNL     1       6.437  18.170  20.390  0.00  0.00    +0.000 N 
ATOM      5  C   UNL     1       5.773  17.052  20.015  0.00  0.00    +0.000 A 
ATOM      6  C   UNL     1       4.430  16.718  19.984  0.00  0.00    +0.000 A 
ATOM      7  C   UNL     1       4.427  15.335  19.582  0.00  0.00    +0.000 A 
ATOM      8  N   UNL     1       5.657  14.936  19.210  0.00  0.00    +0.000 NA
ATOM      9  N   UNL     1       6.458  15.936  19.620  0.00  0.00    +0.000 N 
ATOM     10  H   UNL     1       5.919  19.023  20.614  0.00  0.00    +0.000 HD
ENDROOT
BRANCH   1  16
ATOM     11  C   UNL     1       8.995  13.430  19.707  0.00  0.00    +0.000 A 
ATOM     12  C   UNL     1       9.359  12.258  20.399  0.00  0.00    +0.000 A 
ATOM     13  C   UNL     1       9.015  12.080  21.738  0.00  0.00    +0.000 A 
ATOM     14  C   UNL     1       8.325  13.078  22.409  0.00  0.00    +0.000 A 
ATOM     15  C   UNL     1       8.003  14.261  21.747  0.00  0.00    +0.000 A 
ATOM     16  C   UNL     1       8.304  14.457  20.378  0.00  0.00    +0.000 A 
BRANCH  11  19
ATOM     17  C   UNL     1      10.543  13.782  17.809  0.00  0.00    +0.000 C 
ATOM     18  O   UNL     1      10.969  13.352  16.737  0.00  0.00    +0.000 OA
ATOM     19  N   UNL     1       9.262  13.502  18.306  0.00  0.00    +0.000 N 
ATOM     20  C   UNL     1       8.467  12.559  17.514  0.00  0.00    +0.000 C 
BRANCH  17  22
ATOM     21  C   UNL     1      12.332  14.307  19.436  0.00  0.00    +0.000 C 
ATOM     22  C   UNL     1      11.361  14.738  18.619  0.00  0.00    +0.000 C 
ENDBRANCH  17  22
ENDBRANCH  11  19
ENDBRANCH   1  16
BRANCH   7  23
ATOM     23  C   UNL     1       3.327  14.364  19.603  0.00  0.00    +0.000 A 
ATOM     24  C   UNL     1       2.764  13.929  20.810  0.00  0.00    +0.000 A 
ATOM     25  C   UNL     1       1.701  13.016  20.811  0.00  0.00    +0.000 A 
ATOM     26  C   UNL     1       1.195  12.528  19.606  0.00  0.00    +0.000 A 
ATOM     27  C   UNL     1       1.774  12.931  18.404  0.00  0.00    +0.000 A 
ATOM     28  C   UNL     1       2.785  13.887  18.402  0.00  0.00    +0.000 A 
BRANCH  26  29
ATOM     29  O   UNL     1       0.154  11.630  19.687  0.00  0.00    +0.000 OA
BRANCH  29  30
ATOM     30  C   UNL     1      -0.062  10.945  20.864  0.00  0.00    +0.000 A 
ATOM     31  C   UNL     1       0.657   9.759  21.026  0.00  0.00    +0.000 A 
ATOM     32  C   UNL     1       0.509   9.004  22.192  0.00  0.00    +0.000 A 
ATOM     33  C   UNL     1      -0.360   9.431  23.196  0.00  0.00    +0.000 A 
ATOM     34  C   UNL     1      -1.065  10.623  23.046  0.00  0.00    +0.000 A 
ATOM     35  C   UNL     1      -0.895  11.393  21.896  0.00  0.00    +0.000 A 
ENDBRANCH  29  30
ENDBRANCH  26  29
ENDBRANCH   7  23
BRANCH   6  36
ATOM     36  C   UNL     1       3.352  17.607  20.375  0.00  0.00    +0.000 C 
ATOM     37  N   UNL     1       2.304  17.727  19.510  0.00  0.00    +0.000 N 
ATOM     38  O   UNL     1       3.350  18.260  21.421  0.00  0.00    +0.000 OA
ATOM     39  H   UNL     1       2.248  17.232  18.631  0.00  0.00    +0.000 HD
ATOM     40  H   UNL     1       1.523  18.297  19.798  0.00  0.00    +0.000 HD
ENDBRANCH   6  36
TORSDOF 7
ENDMDL
MODEL 6
REMARK VINA RESULT:      -7.7      2.389      4.927
REMARK  Name = 
REMARK  8 active torsions:
REMARK  status: ('A' for Active; 'I' for Inactive)
REMARK    1  A    between atoms: C_2  and  C_3
REMARK    2  A    between atoms: N_5  and  C_6
REMARK    3  A    between atoms: N_5  and  C_7
REMARK    4  A    between atoms: C_12  and  C_13
REMARK    5  A    between atoms: C_18  and  C_19
REMARK    6  A    between atoms: C_22  and  C_23
REMARK    7  A    between atoms: C_26  and  O_27
REMARK    8  A    between atoms: O_27  and  C_28
REMARK                            x       y       z     vdW  Elec       q    Type
REMARK                         _______ _______ _______ _____ _____    ______ ____
ROOT
ATOM      1  C   UNL     1      -4.178  14.119  20.825  0.00  0.00    +0.000 C 
ATOM      2  C   UNL     1      -5.707  14.162  20.603  0.00  0.00    +0.000 C 
ATOM      3  C   UNL     1      -6.069  13.987  19.128  0.00  0.00    +0.000 C 
ATOM      4  N   UNL     1      -5.468  12.770  18.617  0.00  0.00    +0.000 N 
ATOM      5  C   UNL     1      -4.195  12.449  18.948  0.00  0.00    +0.000 A 
ATOM      6  C   UNL     1      -3.327  11.463  18.512  0.00  0.00    +0.000 A 
ATOM      7  C   UNL     1      -2.172  11.621  19.358  0.00  0.00    +0.000 A 
ATOM      8  N   UNL     1      -2.266  12.738  20.102  0.00  0.00    +0.000 NA
ATOM      9  N   UNL     1      -3.544  13.126  19.942  0.00  0.00    +0.000 N 
ATOM     10  H   UNL     1      -5.924  12.309  17.826  0.00  0.00    +0.000 HD
ENDROOT
BRANCH   1  16
ATOM     11  C   UNL     1      -3.067  14.686  23.092  0.00  0.00    +0.000 A 
ATOM     12  C   UNL     1      -2.864  14.390  24.454  0.00  0.00    +0.000 A 
ATOM     13  C   UNL     1      -3.413  13.245  25.029  0.00  0.00    +0.000 A 
ATOM     14  C   UNL     1      -4.192  12.395  24.259  0.00  0.00    +0.000 A 
ATOM     15  C   UNL     1      -4.439  12.704  22.923  0.00  0.00    +0.000 A 
ATOM     16  C   UNL     1      -3.865  13.837  22.300  0.00  0.00    +0.000 A 
BRANCH  11  19
ATOM     17  C   UNL     1      -1.164  15.651  21.840  0.00  0.00    +0.000 C 
ATOM     18  O   UNL     1      -0.807  16.383  20.918  0.00  0.00    +0.000 OA
ATOM     19  N   UNL     1      -2.377  15.801  22.528  0.00  0.00    +0.000 N 
ATOM     20  C   UNL     1      -3.273  16.839  22.012  0.00  0.00    +0.000 C 
BRANCH  17  22
ATOM     21  C   UNL     1       0.706  14.049  21.586  0.00  0.00    +0.000 C 
ATOM     22  C   UNL     1      -0.248  14.585  22.359  0.00  0.00    +0.000 C 
ENDBRANCH  17  22
ENDBRANCH  11  19
ENDBRANCH   1  16
BRANCH   7  23
ATOM     23  C   UNL     1      -1.025  10.725  19.540  0.00  0.00    +0.000 A 
ATOM     24  C   UNL     1      -0.210  10.359  18.461  0.00  0.00    +0.000 A 
ATOM     25  C   UNL     1       0.893   9.518  18.655  0.00  0.00    +0.000 A 
ATOM     26  C   UNL     1       1.188   9.031  19.930  0.00  0.00    +0.000 A 
ATOM     27  C   UNL     1       0.361   9.364  21.001  0.00  0.00    +0.000 A 
ATOM     28  C   UNL     1      -0.695  10.253  20.818  0.00  0.00    +0.000 A 
BRANCH  26  29
ATOM     29  O   UNL     1       2.285   8.206  20.043  0.00  0.00    +0.000 OA
BRANCH  29  30
ATOM     30  C   UNL     1       2.187   6.889  19.645  0.00  0.00    +0.000 A 
ATOM     31  C   UNL     1       1.707   5.992  20.601  0.00  0.00    +0.000 A 
ATOM     32  C   UNL     1       1.565   4.639  20.283  0.00  0.00    +0.000 A 
ATOM     33  C   UNL     1       1.907   4.180  19.012  0.00  0.00    +0.000 A 
ATOM     34  C   UNL     1       2.371   5.075  18.050  0.00  0.00    +0.000 A 
ATOM     35  C   UNL     1       2.483   6.431  18.357  0.00  0.00    +0.000 A 
ENDBRANCH  29  30
ENDBRANCH  26  29
ENDBRANCH   7  23
BRANCH   6  36
ATOM     36  C   UNL     1      -3.642  10.483  17.489  0.00  0.00    +0.000 C 
ATOM     37  N   UNL     1      -3.842  10.952  16.224  0.00  0.00    +0.000 N 
ATOM     38  O   UNL     1      -3.755   9.276  17.712  0.00  0.00    +0.000 OA
ATOM     39  H   UNL     1      -3.777  11.929  15.975  0.00  0.00    +0.000 HD
ATOM     40  H   UNL     1      -4.003  10.274  15.494  0.00  0.00    +0.000 HD
ENDBRANCH   6  36
TORSDOF 7
ENDMDL
MODEL 7
REMARK VINA RESULT:      -7.7      2.581      4.699
REMARK  Name = 
REMARK  8 active torsions:
REMARK  status: ('A' for Active; 'I' for Inactive)
REMARK    1  A    between atoms: C_2  and  C_3
REMARK    2  A    between atoms: N_5  and  C_6
REMARK    3  A    between atoms: N_5  and  C_7
REMARK    4  A    between atoms: C_12  and  C_13
REMARK    5  A    between atoms: C_18  and  C_19
REMARK    6  A    between atoms: C_22  and  C_23
REMARK    7  A    between atoms: C_26  and  O_27
REMARK    8  A    between atoms: O_27  and  C_28
REMARK                            x       y       z     vdW  Elec       q    Type
REMARK                         _______ _______ _______ _____ _____    ______ ____
ROOT
ATOM      1  C   UNL     1      -4.266  14.193  20.856  0.00  0.00    +0.000 C 
ATOM      2  C   UNL     1      -5.795  14.221  20.634  0.00  0.00    +0.000 C 
ATOM      3  C   UNL     1      -6.156  14.057  19.158  0.00  0.00    +0.000 C 
ATOM      4  N   UNL     1      -5.541  12.852  18.633  0.00  0.00    +0.000 N 
ATOM      5  C   UNL     1      -4.265  12.542  18.961  0.00  0.00    +0.000 A 
ATOM      6  C   UNL     1      -3.386  11.571  18.515  0.00  0.00    +0.000 A 
ATOM      7  C   UNL     1      -2.233  11.733  19.362  0.00  0.00    +0.000 A 
ATOM      8  N   UNL     1      -2.339  12.842  20.118  0.00  0.00    +0.000 NA
ATOM      9  N   UNL     1      -3.621  13.216  19.962  0.00  0.00    +0.000 N 
ATOM     10  H   UNL     1      -5.992  12.395  17.838  0.00  0.00    +0.000 HD
ENDROOT
BRANCH   1  16
ATOM     11  C   UNL     1      -3.061  14.679  23.093  0.00  0.00    +0.000 A 
ATOM     12  C   UNL     1      -2.857  14.381  24.454  0.00  0.00    +0.000 A 
ATOM     13  C   UNL     1      -3.497  13.297  25.054  0.00  0.00    +0.000 A 
ATOM     14  C   UNL     1      -4.367  12.514  24.311  0.00  0.00    +0.000 A 
ATOM     15  C   UNL     1      -4.613  12.831  22.976  0.00  0.00    +0.000 A 
ATOM     16  C   UNL     1      -3.950  13.899  22.328  0.00  0.00    +0.000 A 
BRANCH  11  19
ATOM     17  C   UNL     1      -2.570  17.075  22.718  0.00  0.00    +0.000 C 
ATOM     18  O   UNL     1      -1.717  17.962  22.724  0.00  0.00    +0.000 OA
ATOM     19  N   UNL     1      -2.283  15.720  22.501  0.00  0.00    +0.000 N 
ATOM     20  C   UNL     1      -0.861  15.385  22.381  0.00  0.00    +0.000 C 
BRANCH  17  22
ATOM     21  C   UNL     1      -4.519  18.551  22.330  0.00  0.00    +0.000 C 
ATOM     22  C   UNL     1      -4.021  17.420  22.849  0.00  0.00    +0.000 C 
ENDBRANCH  17  22
ENDBRANCH  11  19
ENDBRANCH   1  16
BRANCH   7  23
ATOM     23  C   UNL     1      -1.075  10.849  19.534  0.00  0.00    +0.000 A 
ATOM     24  C   UNL     1      -0.745  10.317  20.788  0.00  0.00    +0.000 A 
ATOM     25  C   UNL     1       0.352   9.458  20.930  0.00  0.00    +0.000 A 
ATOM     26  C   UNL     1       1.132   9.127  19.821  0.00  0.00    +0.000 A 
ATOM     27  C   UNL     1       0.830   9.680  18.579  0.00  0.00    +0.000 A 
ATOM     28  C   UNL     1      -0.300  10.479  18.426  0.00  0.00    +0.000 A 
BRANCH  26  29
ATOM     29  O   UNL     1       2.197   8.282  20.040  0.00  0.00    +0.000 OA
BRANCH  29  30
ATOM     30  C   UNL     1       2.078   6.944  19.724  0.00  0.00    +0.000 A 
ATOM     31  C   UNL     1       2.498   6.574  18.445  0.00  0.00    +0.000 A 
ATOM     32  C   UNL     1       2.423   5.238  18.043  0.00  0.00    +0.000 A 
ATOM     33  C   UNL     1       1.924   4.272  18.916  0.00  0.00    +0.000 A 
ATOM     34  C   UNL     1       1.520   4.634  20.199  0.00  0.00    +0.000 A 
ATOM     35  C   UNL     1       1.624   5.962  20.612  0.00  0.00    +0.000 A 
ENDBRANCH  29  30
ENDBRANCH  26  29
ENDBRANCH   7  23
BRANCH   6  36
ATOM     36  C   UNL     1      -3.690  10.599  17.482  0.00  0.00    +0.000 C 
ATOM     37  N   UNL     1      -3.588   9.282  17.823  0.00  0.00    +0.000 N 
ATOM     38  O   UNL     1      -4.008  10.902  16.330  0.00  0.00    +0.000 OA
ATOM     39  H   UNL     1      -3.320   8.964  18.744  0.00  0.00    +0.000 HD
ATOM     40  H   UNL     1      -3.854   8.598  17.130  0.00  0.00    +0.000 HD
ENDBRANCH   6  36
TORSDOF 7
ENDMDL
MODEL 8
REMARK VINA RESULT:      -7.7      2.341      4.835
REMARK  Name = 
REMARK  8 active torsions:
REMARK  status: ('A' for Active; 'I' for Inactive)
REMARK    1  A    between atoms: C_2  and  C_3
REMARK    2  A    between atoms: N_5  and  C_6
REMARK    3  A    between atoms: N_5  and  C_7
REMARK    4  A    between atoms: C_12  and  C_13
REMARK    5  A    between atoms: C_18  and  C_19
REMARK    6  A    between atoms: C_22  and  C_23
REMARK    7  A    between atoms: C_26  and  O_27
REMARK    8  A    between atoms: O_27  and  C_28
REMARK                            x       y       z     vdW  Elec       q    Type
REMARK                         _______ _______ _______ _____ _____    ______ ____
ROOT
ATOM      1  C   UNL     1      -4.167  14.194  20.914  0.00  0.00    +0.000 C 
ATOM      2  C   UNL     1      -5.697  14.240  20.700  0.00  0.00    +0.000 C 
ATOM      3  C   UNL     1      -6.068  14.102  19.223  0.00  0.00    +0.000 C 
ATOM      4  N   UNL     1      -5.466  12.900  18.677  0.00  0.00    +0.000 N 
ATOM      5  C   UNL     1      -4.191  12.573  18.994  0.00  0.00    +0.000 A 
ATOM      6  C   UNL     1      -3.324  11.601  18.528  0.00  0.00    +0.000 A 
ATOM      7  C   UNL     1      -2.165  11.739  19.372  0.00  0.00    +0.000 A 
ATOM      8  N   UNL     1      -2.257  12.837  20.145  0.00  0.00    +0.000 NA
ATOM      9  N   UNL     1      -3.536  13.225  20.001  0.00  0.00    +0.000 N 
ATOM     10  H   UNL     1      -5.926  12.459  17.877  0.00  0.00    +0.000 HD
ENDROOT
BRANCH   1  16
ATOM     11  C   UNL     1      -3.029  14.693  23.182  0.00  0.00    +0.000 A 
ATOM     12  C   UNL     1      -2.818  14.365  24.535  0.00  0.00    +0.000 A 
ATOM     13  C   UNL     1      -3.380  13.216  25.090  0.00  0.00    +0.000 A 
ATOM     14  C   UNL     1      -4.179  12.395  24.309  0.00  0.00    +0.000 A 
ATOM     15  C   UNL     1      -4.433  12.738  22.982  0.00  0.00    +0.000 A 
ATOM     16  C   UNL     1      -3.847  13.875  22.379  0.00  0.00    +0.000 A 
BRANCH  11  19
ATOM     17  C   UNL     1      -1.134  15.653  21.913  0.00  0.00    +0.000 C 
ATOM     18  O   UNL     1      -0.782  16.406  21.005  0.00  0.00    +0.000 OA
ATOM     19  N   UNL     1      -2.325  15.809  22.636  0.00  0.00    +0.000 N 
ATOM     20  C   UNL     1      -3.208  16.885  22.177  0.00  0.00    +0.000 C 
BRANCH  17  22
ATOM     21  C   UNL     1       0.713  14.041  21.571  0.00  0.00    +0.000 C 
ATOM     22  C   UNL     1      -0.232  14.550  22.373  0.00  0.00    +0.000 C 
ENDBRANCH  17  22
ENDBRANCH  11  19
ENDBRANCH   1  16
BRANCH   7  23
ATOM     23  C   UNL     1      -1.015  10.841  19.524  0.00  0.00    +0.000 A 
ATOM     24  C   UNL     1      -0.647  10.335  20.778  0.00  0.00    +0.000 A 
ATOM     25  C   UNL     1       0.442   9.464  20.903  0.00  0.00    +0.000 A 
ATOM     26  C   UNL     1       1.176   9.093  19.775  0.00  0.00    +0.000 A 
ATOM     27  C   UNL     1       0.837   9.620  18.530  0.00  0.00    +0.000 A 
ATOM     28  C   UNL     1      -0.286  10.432  18.399  0.00  0.00    +0.000 A 
BRANCH  26  29
ATOM     29  O   UNL     1       2.236   8.237  19.976  0.00  0.00    +0.000 OA
BRANCH  29  30
ATOM     30  C   UNL     1       2.084   6.893  19.705  0.00  0.00    +0.000 A 
ATOM     31  C   UNL     1       2.423   6.484  18.414  0.00  0.00    +0.000 A 
ATOM     32  C   UNL     1       2.310   5.139  18.053  0.00  0.00    +0.000 A 
ATOM     33  C   UNL     1       1.854   4.203  18.981  0.00  0.00    +0.000 A 
ATOM     34  C   UNL     1       1.531   4.604  20.275  0.00  0.00    +0.000 A 
ATOM     35  C   UNL     1       1.673   5.941  20.645  0.00  0.00    +0.000 A 
ENDBRANCH  29  30
ENDBRANCH  26  29
ENDBRANCH   7  23
BRANCH   6  36
ATOM     36  C   UNL     1      -3.642  10.647  17.482  0.00  0.00    +0.000 C 
ATOM     37  N   UNL     1      -3.609   9.326  17.818  0.00  0.00    +0.000 N 
ATOM     38  O   UNL     1      -3.915  10.969  16.323  0.00  0.00    +0.000 OA
ATOM     39  H   UNL     1      -3.381   8.992  18.745  0.00  0.00    +0.000 HD
ATOM     40  H   UNL     1      -3.885   8.657  17.115  0.00  0.00    +0.000 HD
ENDBRANCH   6  36
TORSDOF 7
ENDMDL
MODEL 9
REMARK VINA RESULT:      -7.7      2.769      4.692
REMARK  Name = 
REMARK  8 active torsions:
REMARK  status: ('A' for Active; 'I' for Inactive)
REMARK    1  A    between atoms: C_2  and  C_3
REMARK    2  A    between atoms: N_5  and  C_6
REMARK    3  A    between atoms: N_5  and  C_7
REMARK    4  A    between atoms: C_12  and  C_13
REMARK    5  A    between atoms: C_18  and  C_19
REMARK    6  A    between atoms: C_22  and  C_23
REMARK    7  A    between atoms: C_26  and  O_27
REMARK    8  A    between atoms: O_27  and  C_28
REMARK                            x       y       z     vdW  Elec       q    Type
REMARK                         _______ _______ _______ _____ _____    ______ ____
ROOT
ATOM      1  C   UNL     1      -4.204  14.141  20.766  0.00  0.00    +0.000 C 
ATOM      2  C   UNL     1      -5.734  14.184  20.545  0.00  0.00    +0.000 C 
ATOM      3  C   UNL     1      -6.099  13.975  19.075  0.00  0.00    +0.000 C 
ATOM      4  N   UNL     1      -5.502  12.744  18.591  0.00  0.00    +0.000 N 
ATOM      5  C   UNL     1      -4.230  12.427  18.928  0.00  0.00    +0.000 A 
ATOM      6  C   UNL     1      -3.366  11.429  18.514  0.00  0.00    +0.000 A 
ATOM      7  C   UNL     1      -2.209  11.603  19.354  0.00  0.00    +0.000 A 
ATOM      8  N   UNL     1      -2.299  12.737  20.071  0.00  0.00    +0.000 NA
ATOM      9  N   UNL     1      -3.575  13.125  19.904  0.00  0.00    +0.000 N 
ATOM     10  H   UNL     1      -5.961  12.267  17.812  0.00  0.00    +0.000 HD
ENDROOT
BRANCH   1  16
ATOM     11  C   UNL     1      -3.390  14.892  23.103  0.00  0.00    +0.000 A 
ATOM     12  C   UNL     1      -3.172  14.606  24.465  0.00  0.00    +0.000 A 
ATOM     13  C   UNL     1      -3.410  13.331  24.977  0.00  0.00    +0.000 A 
ATOM     14  C   UNL     1      -3.893  12.334  24.143  0.00  0.00    +0.000 A 
ATOM     15  C   UNL     1      -4.158  12.621  22.805  0.00  0.00    +0.000 A 
ATOM     16  C   UNL     1      -3.890  13.893  22.246  0.00  0.00    +0.000 A 
BRANCH  11  19
ATOM     17  C   UNL     1      -3.755  17.329  22.885  0.00  0.00    +0.000 C 
ATOM     18  O   UNL     1      -3.265  18.454  22.983  0.00  0.00    +0.000 OA
ATOM     19  N   UNL     1      -3.008  16.176  22.609  0.00  0.00    +0.000 N 
ATOM     20  C   UNL     1      -1.556  16.363  22.541  0.00  0.00    +0.000 C 
BRANCH  17  22
ATOM     21  C   UNL     1      -6.085  18.037  22.438  0.00  0.00    +0.000 C 
ATOM     22  C   UNL     1      -5.239  17.141  22.964  0.00  0.00    +0.000 C 
ENDBRANCH  17  22
ENDBRANCH  11  19
ENDBRANCH   1  16
BRANCH   7  23
ATOM     23  C   UNL     1      -1.065  10.707  19.554  0.00  0.00    +0.000 A 
ATOM     24  C   UNL     1      -0.198  10.386  18.501  0.00  0.00    +0.000 A 
ATOM     25  C   UNL     1       0.901   9.545  18.714  0.00  0.00    +0.000 A 
ATOM     26  C   UNL     1       1.142   9.014  19.983  0.00  0.00    +0.000 A 
ATOM     27  C   UNL     1       0.265   9.302  21.026  0.00  0.00    +0.000 A 
ATOM     28  C   UNL     1      -0.788  10.191  20.828  0.00  0.00    +0.000 A 
BRANCH  26  29
ATOM     29  O   UNL     1       2.239   8.192  20.114  0.00  0.00    +0.000 OA
BRANCH  29  30
ATOM     30  C   UNL     1       2.168   6.889  19.670  0.00  0.00    +0.000 A 
ATOM     31  C   UNL     1       1.673   5.954  20.581  0.00  0.00    +0.000 A 
ATOM     32  C   UNL     1       1.557   4.611  20.213  0.00  0.00    +0.000 A 
ATOM     33  C   UNL     1       1.938   4.201  18.936  0.00  0.00    +0.000 A 
ATOM     34  C   UNL     1       2.415   5.133  18.018  0.00  0.00    +0.000 A 
ATOM     35  C   UNL     1       2.503   6.479  18.374  0.00  0.00    +0.000 A 
ENDBRANCH  29  30
ENDBRANCH  26  29
ENDBRANCH   7  23
BRANCH   6  36
ATOM     36  C   UNL     1      -3.686  10.426  17.515  0.00  0.00    +0.000 C 
ATOM     37  N   UNL     1      -4.031  10.877  16.274  0.00  0.00    +0.000 N 
ATOM     38  O   UNL     1      -3.680   9.213  17.737  0.00  0.00    +0.000 OA
ATOM     39  H   UNL     1      -4.069  11.856  16.028  0.00  0.00    +0.000 HD
ATOM     40  H   UNL     1      -4.198  10.188  15.556  0.00  0.00    +0.000 HD
ENDBRANCH   6  36
TORSDOF 7
ENDMDL
