MODEL 1
REMARK VINA RESULT:      -7.4      0.000      0.000
REMARK  Name = 
REMARK  8 active torsions:
REMARK  status: ('A' for Active; 'I' for Inactive)
REMARK    1  A    between atoms: O_1  and  C_2
REMARK    2  A    between atoms: C_2  and  C_3
REMARK    3  A    between atoms: C_5  and  C_6
REMARK    4  A    between atoms: C_6  and  N_7
REMARK    5  A    between atoms: N_7  and  C_8
REMARK    6  A    between atoms: C_8  and  C_9
REMARK    7  A    between atoms: C_16  and  O_17
REMARK    8  A    between atoms: C_18  and  O_19
REMARK                            x       y       z     vdW  Elec       q    Type
REMARK                         _______ _______ _______ _____ _____    ______ ____
ROOT
ATOM      1  C   UNL     1       5.593   4.669  14.689  0.00  0.00    +0.000 C 
ATOM      2  O   UNL     1       4.757   4.239  15.792  0.00  0.00    +0.000 OA
ATOM      3  C   UNL     1       5.631   3.890  16.884  0.00  0.00    +0.000 C 
ATOM      4  C   UNL     1       6.908   4.683  16.655  0.00  0.00    +0.000 C 
ATOM      5  C   UNL     1       7.048   4.536  15.143  0.00  0.00    +0.000 C 
ENDROOT
BRANCH   4   6
ATOM      6  O   UNL     1       8.020   4.178  17.379  0.00  0.00    +0.000 OA
ATOM      7  H   UNL     1       8.443   3.477  16.848  0.00  0.00    +0.000 HD
ENDBRANCH   4   6
BRANCH   5   8
ATOM      8  O   UNL     1       7.890   5.520  14.553  0.00  0.00    +0.000 OA
ATOM      9  H   UNL     1       7.533   6.401  14.764  0.00  0.00    +0.000 HD
ENDBRANCH   5   8
BRANCH   1  10
ATOM     10  C   UNL     1       5.268   3.858  13.434  0.00  0.00    +0.000 C 
BRANCH  10  11
ATOM     11  O   UNL     1       6.417   3.157  12.961  0.00  0.00    +0.000 OA
ATOM     12  H   UNL     1       7.147   3.376  13.565  0.00  0.00    +0.000 HD
ENDBRANCH  10  11
ENDBRANCH   1  10
BRANCH   3  13
ATOM     13  C   UNL     1       4.957   4.184  18.232  0.00  0.00    +0.000 C 
BRANCH  13  14
ATOM     14  N   UNL     1       5.448   3.343  19.339  0.00  0.00    +0.000 NA
ATOM     15  H   UNL     1       5.404   3.905  20.193  0.00  0.00    +0.000 HD
BRANCH  14  16
ATOM     16  C   UNL     1       4.606   2.159  19.541  0.00  0.00    +0.000 C 
BRANCH  16  17
ATOM     17  C   UNL     1       3.155   2.526  19.700  0.00  0.00    +0.000 A 
ATOM     18  C   UNL     1       2.679   3.091  20.891  0.00  0.00    +0.000 A 
ATOM     19  C   UNL     1       1.324   3.396  21.038  0.00  0.00    +0.000 A 
ATOM     20  C   UNL     1       0.430   3.144  19.997  0.00  0.00    +0.000 A 
ATOM     21  C   UNL     1       0.893   2.588  18.806  0.00  0.00    +0.000 A 
ATOM     22  C   UNL     1       2.244   2.283  18.667  0.00  0.00    +0.000 A 
ATOM     23  F   UNL     1       2.661   1.739  17.514  0.00  0.00    +0.000 F 
ENDBRANCH  16  17
ENDBRANCH  14  16
ENDBRANCH  13  14
ENDBRANCH   3  13
TORSDOF 8
ENDMDL
MODEL 2
REMARK VINA RESULT:      -7.1      2.286      2.855
REMARK  Name = 
REMARK  8 active torsions:
REMARK  status: ('A' for Active; 'I' for Inactive)
REMARK    1  A    between atoms: O_1  and  C_2
REMARK    2  A    between atoms: C_2  and  C_3
REMARK    3  A    between atoms: C_5  and  C_6
REMARK    4  A    between atoms: C_6  and  N_7
REMARK    5  A    between atoms: N_7  and  C_8
REMARK    6  A    between atoms: C_8  and  C_9
REMARK    7  A    between atoms: C_16  and  O_17
REMARK    8  A    between atoms: C_18  and  O_19
REMARK                            x       y       z     vdW  Elec       q    Type
REMARK                         _______ _______ _______ _____ _____    ______ ____
ROOT
ATOM      1  C   UNL     1       6.876   5.405  15.529  0.00  0.00    +0.000 C 
ATOM      2  O   UNL     1       5.687   6.229  15.611  0.00  0.00    +0.000 OA
ATOM      3  C   UNL     1       4.960   5.822  16.788  0.00  0.00    +0.000 C 
ATOM      4  C   UNL     1       5.997   5.209  17.717  0.00  0.00    +0.000 C 
ATOM      5  C   UNL     1       6.835   4.430  16.708  0.00  0.00    +0.000 C 
ENDROOT
BRANCH   4   6
ATOM      6  O   UNL     1       5.430   4.395  18.732  0.00  0.00    +0.000 OA
ATOM      7  H   UNL     1       5.884   4.587  19.573  0.00  0.00    +0.000 HD
ENDBRANCH   4   6
BRANCH   5   8
ATOM      8  O   UNL     1       8.135   4.102  17.183  0.00  0.00    +0.000 OA
ATOM      9  H   UNL     1       8.786   4.646  16.707  0.00  0.00    +0.000 HD
ENDBRANCH   5   8
BRANCH   1  10
ATOM     10  C   UNL     1       6.945   4.714  14.167  0.00  0.00    +0.000 C 
BRANCH  10  11
ATOM     11  O   UNL     1       6.310   3.437  14.203  0.00  0.00    +0.000 OA
ATOM     12  H   UNL     1       7.000   2.787  14.422  0.00  0.00    +0.000 HD
ENDBRANCH  10  11
ENDBRANCH   1  10
BRANCH   3  13
ATOM     13  C   UNL     1       4.211   7.014  17.402  0.00  0.00    +0.000 C 
BRANCH  13  14
ATOM     14  N   UNL     1       3.376   6.656  18.564  0.00  0.00    +0.000 NA
ATOM     15  H   UNL     1       3.198   7.517  19.088  0.00  0.00    +0.000 HD
BRANCH  14  16
ATOM     16  C   UNL     1       2.079   6.106  18.155  0.00  0.00    +0.000 C 
BRANCH  16  17
ATOM     17  C   UNL     1       1.901   4.688  18.624  0.00  0.00    +0.000 A 
ATOM     18  C   UNL     1       2.118   3.608  17.758  0.00  0.00    +0.000 A 
ATOM     19  C   UNL     1       1.916   2.297  18.196  0.00  0.00    +0.000 A 
ATOM     20  C   UNL     1       1.499   2.050  19.505  0.00  0.00    +0.000 A 
ATOM     21  C   UNL     1       1.285   3.116  20.376  0.00  0.00    +0.000 A 
ATOM     22  C   UNL     1       1.485   4.419  19.932  0.00  0.00    +0.000 A 
ATOM     23  F   UNL     1       1.262   5.427  20.789  0.00  0.00    +0.000 F 
ENDBRANCH  16  17
ENDBRANCH  14  16
ENDBRANCH  13  14
ENDBRANCH   3  13
TORSDOF 8
ENDMDL
MODEL 3
REMARK VINA RESULT:      -6.9      1.964      2.379
REMARK  Name = 
REMARK  8 active torsions:
REMARK  status: ('A' for Active; 'I' for Inactive)
REMARK    1  A    between atoms: O_1  and  C_2
REMARK    2  A    between atoms: C_2  and  C_3
REMARK    3  A    between atoms: C_5  and  C_6
REMARK    4  A    between atoms: C_6  and  N_7
REMARK    5  A    between atoms: N_7  and  C_8
REMARK    6  A    between atoms: C_8  and  C_9
REMARK    7  A    between atoms: C_16  and  O_17
REMARK    8  A    between atoms: C_18  and  O_19
REMARK                            x       y       z     vdW  Elec       q    Type
REMARK                         _______ _______ _______ _____ _____    ______ ____
ROOT
ATOM      1  C   UNL     1       6.552   5.066  15.759  0.00  0.00    +0.000 C 
ATOM      2  O   UNL     1       5.285   5.747  15.932  0.00  0.00    +0.000 OA
ATOM      3  C   UNL     1       4.783   5.401  17.238  0.00  0.00    +0.000 C 
ATOM      4  C   UNL     1       6.008   5.033  18.061  0.00  0.00    +0.000 C 
ATOM      5  C   UNL     1       6.801   4.244  17.025  0.00  0.00    +0.000 C 
ENDROOT
BRANCH   4   6
ATOM      6  O   UNL     1       5.697   4.285  19.227  0.00  0.00    +0.000 OA
ATOM      7  H   UNL     1       4.755   4.038  19.195  0.00  0.00    +0.000 HD
ENDBRANCH   4   6
BRANCH   5   8
ATOM      8  O   UNL     1       8.186   4.133  17.333  0.00  0.00    +0.000 OA
ATOM      9  H   UNL     1       8.345   4.550  18.198  0.00  0.00    +0.000 HD
ENDBRANCH   5   8
BRANCH   1  10
ATOM     10  C   UNL     1       6.531   4.230  14.480  0.00  0.00    +0.000 C 
BRANCH  10  11
ATOM     11  O   UNL     1       5.241   4.251  13.871  0.00  0.00    +0.000 OA
ATOM     12  H   UNL     1       4.993   3.324  13.708  0.00  0.00    +0.000 HD
ENDBRANCH  10  11
ENDBRANCH   1  10
BRANCH   3  13
ATOM     13  C   UNL     1       3.969   6.560  17.831  0.00  0.00    +0.000 C 
BRANCH  13  14
ATOM     14  N   UNL     1       3.783   6.471  19.291  0.00  0.00    +0.000 NA
ATOM     15  H   UNL     1       4.143   7.337  19.699  0.00  0.00    +0.000 HD
BRANCH  14  16
ATOM     16  C   UNL     1       2.366   6.363  19.655  0.00  0.00    +0.000 C 
BRANCH  16  17
ATOM     17  C   UNL     1       1.973   4.943  19.962  0.00  0.00    +0.000 A 
ATOM     18  C   UNL     1       2.145   4.408  21.246  0.00  0.00    +0.000 A 
ATOM     19  C   UNL     1       1.808   3.077  21.508  0.00  0.00    +0.000 A 
ATOM     20  C   UNL     1       1.293   2.270  20.494  0.00  0.00    +0.000 A 
ATOM     21  C   UNL     1       1.113   2.793  19.215  0.00  0.00    +0.000 A 
ATOM     22  C   UNL     1       1.453   4.118  18.959  0.00  0.00    +0.000 A 
ATOM     23  F   UNL     1       1.280   4.594  17.717  0.00  0.00    +0.000 F 
ENDBRANCH  16  17
ENDBRANCH  14  16
ENDBRANCH  13  14
ENDBRANCH   3  13
TORSDOF 8
ENDMDL
MODEL 4
REMARK VINA RESULT:      -6.8      1.871      2.404
REMARK  Name = 
REMARK  8 active torsions:
REMARK  status: ('A' for Active; 'I' for Inactive)
REMARK    1  A    between atoms: O_1  and  C_2
REMARK    2  A    between atoms: C_2  and  C_3
REMARK    3  A    between atoms: C_5  and  C_6
REMARK    4  A    between atoms: C_6  and  N_7
REMARK    5  A    between atoms: N_7  and  C_8
REMARK    6  A    between atoms: C_8  and  C_9
REMARK    7  A    between atoms: C_16  and  O_17
REMARK    8  A    between atoms: C_18  and  O_19
REMARK                            x       y       z     vdW  Elec       q    Type
REMARK                         _______ _______ _______ _____ _____    ______ ____
ROOT
ATOM      1  C   UNL     1       6.844   5.448  15.930  0.00  0.00    +0.000 C 
ATOM      2  O   UNL     1       5.620   6.205  16.097  0.00  0.00    +0.000 OA
ATOM      3  C   UNL     1       4.950   5.691  17.266  0.00  0.00    +0.000 C 
ATOM      4  C   UNL     1       6.045   5.076  18.125  0.00  0.00    +0.000 C 
ATOM      5  C   UNL     1       6.886   4.403  17.046  0.00  0.00    +0.000 C 
ENDROOT
BRANCH   4   6
ATOM      6  O   UNL     1       5.549   4.174  19.103  0.00  0.00    +0.000 OA
ATOM      7  H   UNL     1       4.639   4.436  19.333  0.00  0.00    +0.000 HD
ENDBRANCH   4   6
BRANCH   5   8
ATOM      8  O   UNL     1       8.216   4.112  17.463  0.00  0.00    +0.000 OA
ATOM      9  H   UNL     1       8.810   4.792  17.101  0.00  0.00    +0.000 HD
ENDBRANCH   5   8
BRANCH   1  10
ATOM     10  C   UNL     1       6.903   4.846  14.525  0.00  0.00    +0.000 C 
BRANCH  10  11
ATOM     11  O   UNL     1       7.905   5.482  13.733  0.00  0.00    +0.000 OA
ATOM     12  H   UNL     1       7.869   6.431  13.945  0.00  0.00    +0.000 HD
ENDBRANCH  10  11
ENDBRANCH   1  10
BRANCH   3  13
ATOM     13  C   UNL     1       4.164   6.805  17.973  0.00  0.00    +0.000 C 
BRANCH  13  14
ATOM     14  N   UNL     1       2.733   6.498  18.156  0.00  0.00    +0.000 NA
ATOM     15  H   UNL     1       2.205   7.141  17.561  0.00  0.00    +0.000 HD
BRANCH  14  16
ATOM     16  C   UNL     1       2.410   5.132  17.733  0.00  0.00    +0.000 C 
BRANCH  16  17
ATOM     17  C   UNL     1       2.090   4.244  18.905  0.00  0.00    +0.000 A 
ATOM     18  C   UNL     1       1.968   4.771  20.198  0.00  0.00    +0.000 A 
ATOM     19  C   UNL     1       1.705   3.930  21.283  0.00  0.00    +0.000 A 
ATOM     20  C   UNL     1       1.556   2.557  21.087  0.00  0.00    +0.000 A 
ATOM     21  C   UNL     1       1.669   2.023  19.806  0.00  0.00    +0.000 A 
ATOM     22  C   UNL     1       1.935   2.865  18.730  0.00  0.00    +0.000 A 
ATOM     23  F   UNL     1       2.049   2.323  17.508  0.00  0.00    +0.000 F 
ENDBRANCH  16  17
ENDBRANCH  14  16
ENDBRANCH  13  14
ENDBRANCH   3  13
TORSDOF 8
ENDMDL
MODEL 5
REMARK VINA RESULT:      -6.8      1.487      1.723
REMARK  Name = 
REMARK  8 active torsions:
REMARK  status: ('A' for Active; 'I' for Inactive)
REMARK    1  A    between atoms: O_1  and  C_2
REMARK    2  A    between atoms: C_2  and  C_3
REMARK    3  A    between atoms: C_5  and  C_6
REMARK    4  A    between atoms: C_6  and  N_7
REMARK    5  A    between atoms: N_7  and  C_8
REMARK    6  A    between atoms: C_8  and  C_9
REMARK    7  A    between atoms: C_16  and  O_17
REMARK    8  A    between atoms: C_18  and  O_19
REMARK                            x       y       z     vdW  Elec       q    Type
REMARK                         _______ _______ _______ _____ _____    ______ ____
ROOT
ATOM      1  C   UNL     1       5.652   4.664  14.470  0.00  0.00    +0.000 C 
ATOM      2  O   UNL     1       4.730   4.425  15.562  0.00  0.00    +0.000 OA
ATOM      3  C   UNL     1       5.515   4.250  16.759  0.00  0.00    +0.000 C 
ATOM      4  C   UNL     1       6.822   4.985  16.501  0.00  0.00    +0.000 C 
ATOM      5  C   UNL     1       7.067   4.594  15.047  0.00  0.00    +0.000 C 
ENDROOT
BRANCH   4   6
ATOM      6  O   UNL     1       7.868   4.595  17.378  0.00  0.00    +0.000 OA
ATOM      7  H   UNL     1       7.471   4.231  18.191  0.00  0.00    +0.000 HD
ENDBRANCH   4   6
BRANCH   5   8
ATOM      8  O   UNL     1       7.970   5.463  14.371  0.00  0.00    +0.000 OA
ATOM      9  H   UNL     1       8.077   5.148  13.457  0.00  0.00    +0.000 HD
ENDBRANCH   5   8
BRANCH   1  10
ATOM     10  C   UNL     1       5.403   3.663  13.341  0.00  0.00    +0.000 C 
BRANCH  10  11
ATOM     11  O   UNL     1       6.627   3.254  12.734  0.00  0.00    +0.000 OA
ATOM     12  H   UNL     1       6.485   3.280  11.771  0.00  0.00    +0.000 HD
ENDBRANCH  10  11
ENDBRANCH   1  10
BRANCH   3  13
ATOM     13  C   UNL     1       4.751   4.765  17.988  0.00  0.00    +0.000 C 
BRANCH  13  14
ATOM     14  N   UNL     1       3.638   5.674  17.658  0.00  0.00    +0.000 NA
ATOM     15  H   UNL     1       2.991   5.159  17.055  0.00  0.00    +0.000 HD
BRANCH  14  16
ATOM     16  C   UNL     1       2.898   6.087  18.855  0.00  0.00    +0.000 C 
BRANCH  16  17
ATOM     17  C   UNL     1       2.292   4.911  19.571  0.00  0.00    +0.000 A 
ATOM     18  C   UNL     1       2.616   4.634  20.907  0.00  0.00    +0.000 A 
ATOM     19  C   UNL     1       2.073   3.518  21.549  0.00  0.00    +0.000 A 
ATOM     20  C   UNL     1       1.197   2.672  20.869  0.00  0.00    +0.000 A 
ATOM     21  C   UNL     1       0.864   2.942  19.544  0.00  0.00    +0.000 A 
ATOM     22  C   UNL     1       1.410   4.052  18.908  0.00  0.00    +0.000 A 
ATOM     23  F   UNL     1       1.080   4.283  17.628  0.00  0.00    +0.000 F 
ENDBRANCH  16  17
ENDBRANCH  14  16
ENDBRANCH  13  14
ENDBRANCH   3  13
TORSDOF 8
ENDMDL
MODEL 6
REMARK VINA RESULT:      -6.8      2.141      3.396
REMARK  Name = 
REMARK  8 active torsions:
REMARK  status: ('A' for Active; 'I' for Inactive)
REMARK    1  A    between atoms: O_1  and  C_2
REMARK    2  A    between atoms: C_2  and  C_3
REMARK    3  A    between atoms: C_5  and  C_6
REMARK    4  A    between atoms: C_6  and  N_7
REMARK    5  A    between atoms: N_7  and  C_8
REMARK    6  A    between atoms: C_8  and  C_9
REMARK    7  A    between atoms: C_16  and  O_17
REMARK    8  A    between atoms: C_18  and  O_19
REMARK                            x       y       z     vdW  Elec       q    Type
REMARK                         _______ _______ _______ _____ _____    ______ ____
ROOT
ATOM      1  C   UNL     1       7.300   5.464  18.183  0.00  0.00    +0.000 C 
ATOM      2  O   UNL     1       6.192   4.532  18.245  0.00  0.00    +0.000 OA
ATOM      3  C   UNL     1       5.153   5.039  17.383  0.00  0.00    +0.000 C 
ATOM      4  C   UNL     1       5.863   5.911  16.358  0.00  0.00    +0.000 C 
ATOM      5  C   UNL     1       6.881   6.606  17.255  0.00  0.00    +0.000 C 
ENDROOT
BRANCH   4   6
ATOM      6  O   UNL     1       4.993   6.809  15.685  0.00  0.00    +0.000 OA
ATOM      7  H   UNL     1       4.231   6.994  16.265  0.00  0.00    +0.000 HD
ENDBRANCH   4   6
BRANCH   5   8
ATOM      8  O   UNL     1       7.984   7.154  16.543  0.00  0.00    +0.000 OA
ATOM      9  H   UNL     1       8.014   8.113  16.706  0.00  0.00    +0.000 HD
ENDBRANCH   5   8
BRANCH   1  10
ATOM     10  C   UNL     1       7.679   5.926  19.591  0.00  0.00    +0.000 C 
BRANCH  10  11
ATOM     11  O   UNL     1       8.660   5.068  20.169  0.00  0.00    +0.000 OA
ATOM     12  H   UNL     1       8.343   4.839  21.060  0.00  0.00    +0.000 HD
ENDBRANCH  10  11
ENDBRANCH   1  10
BRANCH   3  13
ATOM     13  C   UNL     1       4.353   3.885  16.762  0.00  0.00    +0.000 C 
BRANCH  13  14
ATOM     14  N   UNL     1       4.545   2.593  17.445  0.00  0.00    +0.000 NA
ATOM     15  H   UNL     1       4.998   2.786  18.342  0.00  0.00    +0.000 HD
BRANCH  14  16
ATOM     16  C   UNL     1       3.268   1.928  17.725  0.00  0.00    +0.000 C 
BRANCH  16  17
ATOM     17  C   UNL     1       2.613   2.474  18.965  0.00  0.00    +0.000 A 
ATOM     18  C   UNL     1       1.337   3.051  18.913  0.00  0.00    +0.000 A 
ATOM     19  C   UNL     1       0.755   3.585  20.065  0.00  0.00    +0.000 A 
ATOM     20  C   UNL     1       1.437   3.544  21.281  0.00  0.00    +0.000 A 
ATOM     21  C   UNL     1       2.704   2.967  21.345  0.00  0.00    +0.000 A 
ATOM     22  C   UNL     1       3.280   2.440  20.194  0.00  0.00    +0.000 A 
ATOM     23  F   UNL     1       4.504   1.900  20.282  0.00  0.00    +0.000 F 
ENDBRANCH  16  17
ENDBRANCH  14  16
ENDBRANCH  13  14
ENDBRANCH   3  13
TORSDOF 8
ENDMDL
MODEL 7
REMARK VINA RESULT:      -6.7      1.410      1.832
REMARK  Name = 
REMARK  8 active torsions:
REMARK  status: ('A' for Active; 'I' for Inactive)
REMARK    1  A    between atoms: O_1  and  C_2
REMARK    2  A    between atoms: C_2  and  C_3
REMARK    3  A    between atoms: C_5  and  C_6
REMARK    4  A    between atoms: C_6  and  N_7
REMARK    5  A    between atoms: N_7  and  C_8
REMARK    6  A    between atoms: C_8  and  C_9
REMARK    7  A    between atoms: C_16  and  O_17
REMARK    8  A    between atoms: C_18  and  O_19
REMARK                            x       y       z     vdW  Elec       q    Type
REMARK                         _______ _______ _______ _____ _____    ______ ____
ROOT
ATOM      1  C   UNL     1       6.362   4.543  13.290  0.00  0.00    +0.000 C 
ATOM      2  O   UNL     1       5.287   4.011  14.103  0.00  0.00    +0.000 OA
ATOM      3  C   UNL     1       5.795   3.857  15.443  0.00  0.00    +0.000 C 
ATOM      4  C   UNL     1       6.939   4.853  15.563  0.00  0.00    +0.000 C 
ATOM      5  C   UNL     1       7.588   4.682  14.194  0.00  0.00    +0.000 C 
ENDROOT
BRANCH   4   6
ATOM      6  O   UNL     1       7.815   4.574  16.645  0.00  0.00    +0.000 OA
ATOM      7  H   UNL     1       7.379   4.846  17.474  0.00  0.00    +0.000 HD
ENDBRANCH   4   6
BRANCH   5   8
ATOM      8  O   UNL     1       8.415   5.777  13.818  0.00  0.00    +0.000 OA
ATOM      9  H   UNL     1       8.241   5.992  12.885  0.00  0.00    +0.000 HD
ENDBRANCH   5   8
BRANCH   1  10
ATOM     10  C   UNL     1       6.597   3.646  12.074  0.00  0.00    +0.000 C 
BRANCH  10  11
ATOM     11  O   UNL     1       6.034   2.350  12.273  0.00  0.00    +0.000 OA
ATOM     12  H   UNL     1       5.890   2.251  13.230  0.00  0.00    +0.000 HD
ENDBRANCH  10  11
ENDBRANCH   1  10
BRANCH   3  13
ATOM     13  C   UNL     1       4.678   4.074  16.475  0.00  0.00    +0.000 C 
BRANCH  13  14
ATOM     14  N   UNL     1       4.896   3.359  17.746  0.00  0.00    +0.000 NA
ATOM     15  H   UNL     1       4.769   4.036  18.503  0.00  0.00    +0.000 HD
BRANCH  14  16
ATOM     16  C   UNL     1       3.917   2.284  17.942  0.00  0.00    +0.000 C 
BRANCH  16  17
ATOM     17  C   UNL     1       2.981   2.581  19.081  0.00  0.00    +0.000 A 
ATOM     18  C   UNL     1       1.668   3.012  18.844  0.00  0.00    +0.000 A 
ATOM     19  C   UNL     1       0.819   3.317  19.911  0.00  0.00    +0.000 A 
ATOM     20  C   UNL     1       1.270   3.192  21.225  0.00  0.00    +0.000 A 
ATOM     21  C   UNL     1       2.571   2.760  21.473  0.00  0.00    +0.000 A 
ATOM     22  C   UNL     1       3.413   2.461  20.406  0.00  0.00    +0.000 A 
ATOM     23  F   UNL     1       4.664   2.056  20.672  0.00  0.00    +0.000 F 
ENDBRANCH  16  17
ENDBRANCH  14  16
ENDBRANCH  13  14
ENDBRANCH   3  13
TORSDOF 8
ENDMDL
MODEL 8
REMARK VINA RESULT:      -6.7      1.774      2.259
REMARK  Name = 
REMARK  8 active torsions:
REMARK  status: ('A' for Active; 'I' for Inactive)
REMARK    1  A    between atoms: O_1  and  C_2
REMARK    2  A    between atoms: C_2  and  C_3
REMARK    3  A    between atoms: C_5  and  C_6
REMARK    4  A    between atoms: C_6  and  N_7
REMARK    5  A    between atoms: N_7  and  C_8
REMARK    6  A    between atoms: C_8  and  C_9
REMARK    7  A    between atoms: C_16  and  O_17
REMARK    8  A    between atoms: C_18  and  O_19
REMARK                            x       y       z     vdW  Elec       q    Type
REMARK                         _______ _______ _______ _____ _____    ______ ____
ROOT
ATOM      1  C   UNL     1       5.582   4.780  14.806  0.00  0.00    +0.000 C 
ATOM      2  O   UNL     1       4.666   4.471  15.885  0.00  0.00    +0.000 OA
ATOM      3  C   UNL     1       5.459   4.123  17.038  0.00  0.00    +0.000 C 
ATOM      4  C   UNL     1       6.800   4.811  16.833  0.00  0.00    +0.000 C 
ATOM      5  C   UNL     1       6.999   4.571  15.340  0.00  0.00    +0.000 C 
ENDROOT
BRANCH   4   6
ATOM      6  O   UNL     1       7.837   4.270  17.638  0.00  0.00    +0.000 OA
ATOM      7  H   UNL     1       8.632   4.158  17.085  0.00  0.00    +0.000 HD
ENDBRANCH   4   6
BRANCH   5   8
ATOM      8  O   UNL     1       7.938   5.459  14.744  0.00  0.00    +0.000 OA
ATOM      9  H   UNL     1       7.471   6.014  14.095  0.00  0.00    +0.000 HD
ENDBRANCH   5   8
BRANCH   1  10
ATOM     10  C   UNL     1       5.258   3.925  13.580  0.00  0.00    +0.000 C 
BRANCH  10  11
ATOM     11  O   UNL     1       6.437   3.330  13.040  0.00  0.00    +0.000 OA
ATOM     12  H   UNL     1       7.120   4.023  13.028  0.00  0.00    +0.000 HD
ENDBRANCH  10  11
ENDBRANCH   1  10
BRANCH   3  13
ATOM     13  C   UNL     1       4.745   4.538  18.333  0.00  0.00    +0.000 C 
BRANCH  13  14
ATOM     14  N   UNL     1       4.280   5.938  18.332  0.00  0.00    +0.000 NA
ATOM     15  H   UNL     1       4.720   6.406  17.536  0.00  0.00    +0.000 HD
BRANCH  14  16
ATOM     16  C   UNL     1       2.826   6.030  18.155  0.00  0.00    +0.000 C 
BRANCH  16  17
ATOM     17  C   UNL     1       2.113   4.855  18.768  0.00  0.00    +0.000 A 
ATOM     18  C   UNL     1       1.709   3.766  17.984  0.00  0.00    +0.000 A 
ATOM     19  C   UNL     1       1.018   2.697  18.560  0.00  0.00    +0.000 A 
ATOM     20  C   UNL     1       0.727   2.702  19.924  0.00  0.00    +0.000 A 
ATOM     21  C   UNL     1       1.128   3.777  20.714  0.00  0.00    +0.000 A 
ATOM     22  C   UNL     1       1.814   4.840  20.134  0.00  0.00    +0.000 A 
ATOM     23  F   UNL     1       2.180   5.867  20.916  0.00  0.00    +0.000 F 
ENDBRANCH  16  17
ENDBRANCH  14  16
ENDBRANCH  13  14
ENDBRANCH   3  13
TORSDOF 8
ENDMDL
MODEL 9
REMARK VINA RESULT:      -6.7      3.698      4.276
REMARK  Name = 
REMARK  8 active torsions:
REMARK  status: ('A' for Active; 'I' for Inactive)
REMARK    1  A    between atoms: O_1  and  C_2
REMARK    2  A    between atoms: C_2  and  C_3
REMARK    3  A    between atoms: C_5  and  C_6
REMARK    4  A    between atoms: C_6  and  N_7
REMARK    5  A    between atoms: N_7  and  C_8
REMARK    6  A    between atoms: C_8  and  C_9
REMARK    7  A    between atoms: C_16  and  O_17
REMARK    8  A    between atoms: C_18  and  O_19
REMARK                            x       y       z     vdW  Elec       q    Type
REMARK                         _______ _______ _______ _____ _____    ______ ____
ROOT
ATOM      1  C   UNL     1       5.985   5.501  16.236  0.00  0.00    +0.000 C 
ATOM      2  O   UNL     1       5.008   4.645  16.878  0.00  0.00    +0.000 OA
ATOM      3  C   UNL     1       5.439   4.444  18.239  0.00  0.00    +0.000 C 
ATOM      4  C   UNL     1       6.305   5.649  18.575  0.00  0.00    +0.000 C 
ATOM      5  C   UNL     1       7.075   5.799  17.267  0.00  0.00    +0.000 C 
ENDROOT
BRANCH   4   6
ATOM      6  O   UNL     1       7.140   5.443  19.704  0.00  0.00    +0.000 OA
ATOM      7  H   UNL     1       8.029   5.191  19.391  0.00  0.00    +0.000 HD
ENDBRANCH   4   6
BRANCH   5   8
ATOM      8  O   UNL     1       7.647   7.090  17.091  0.00  0.00    +0.000 OA
ATOM      9  H   UNL     1       7.744   7.259  16.137  0.00  0.00    +0.000 HD
ENDBRANCH   5   8
BRANCH   1  10
ATOM     10  C   UNL     1       6.512   4.837  14.963  0.00  0.00    +0.000 C 
BRANCH  10  11
ATOM     11  O   UNL     1       7.749   5.418  14.552  0.00  0.00    +0.000 OA
ATOM     12  H   UNL     1       7.637   5.687  13.624  0.00  0.00    +0.000 HD
ENDBRANCH  10  11
ENDBRANCH   1  10
BRANCH   3  13
ATOM     13  C   UNL     1       4.230   4.275  19.171  0.00  0.00    +0.000 C 
BRANCH  13  14
ATOM     14  N   UNL     1       3.923   5.477  19.969  0.00  0.00    +0.000 NA
ATOM     15  H   UNL     1       4.367   6.273  19.505  0.00  0.00    +0.000 HD
BRANCH  14  16
ATOM     16  C   UNL     1       2.481   5.741  20.023  0.00  0.00    +0.000 C 
BRANCH  16  17
ATOM     17  C   UNL     1       2.140   7.097  19.467  0.00  0.00    +0.000 A 
ATOM     18  C   UNL     1       2.488   7.449  18.156  0.00  0.00    +0.000 A 
ATOM     19  C   UNL     1       2.195   8.724  17.664  0.00  0.00    +0.000 A 
ATOM     20  C   UNL     1       1.549   9.658  18.474  0.00  0.00    +0.000 A 
ATOM     21  C   UNL     1       1.194   9.317  19.777  0.00  0.00    +0.000 A 
ATOM     22  C   UNL     1       1.491   8.048  20.262  0.00  0.00    +0.000 A 
ATOM     23  F   UNL     1       1.146   7.749  21.524  0.00  0.00    +0.000 F 
ENDBRANCH  16  17
ENDBRANCH  14  16
ENDBRANCH  13  14
ENDBRANCH   3  13
TORSDOF 8
ENDMDL
