MODEL 1
REMARK VINA RESULT:      -9.7      0.000      0.000
REMARK  Name = 
REMARK  8 active torsions:
REMARK  status: ('A' for Active; 'I' for Inactive)
REMARK    1  A    between atoms: C_1  and  C_2
REMARK    2  A    between atoms: C_2  and  C_3
REMARK    3  A    between atoms: C_14  and  C_15
REMARK    4  A    between atoms: C_15  and  C_16
REMARK    5  A    between atoms: C_16  and  C_17
REMARK    6  A    between atoms: N_23  and  C_24
REMARK    7  A    between atoms: C_24  and  C_25
REMARK    8  A    between atoms: C_25  and  C_26
REMARK                            x       y       z     vdW  Elec       q    Type
REMARK                         _______ _______ _______ _____ _____    ______ ____
ROOT
ATOM      1  C   UNL     1       2.227   3.467  20.851  0.00  0.00    +0.000 A 
ATOM      2  C   UNL     1       0.928   3.050  20.551  0.00  0.00    +0.000 A 
ATOM      3  C   UNL     1       0.557   3.056  19.204  0.00  0.00    +0.000 A 
ATOM      4  C   UNL     1       1.533   3.370  18.222  0.00  0.00    +0.000 A 
ATOM      5  C   UNL     1       2.799   3.870  18.627  0.00  0.00    +0.000 A 
ATOM      6  C   UNL     1       2.740   4.336  19.915  0.00  0.00    +0.000 A 
ATOM      7  N   UNL     1       2.366   5.714  19.698  0.00  0.00    +0.000 N 
ATOM      8  C   UNL     1       2.580   6.055  18.293  0.00  0.00    +0.000 C 
ATOM      9  O   UNL     1       2.059   6.955  17.662  0.00  0.00    +0.000 OA
ATOM     10  C   UNL     1       3.570   4.948  17.869  0.00  0.00    +0.000 C 
ATOM     11  N   UNL     1       4.028   4.472  16.546  0.00  0.00    +0.000 NA
ATOM     12  C   UNL     1       5.406   3.854  16.818  0.00  0.00    +0.000 C 
ATOM     13  C   UNL     1       5.912   4.403  18.174  0.00  0.00    +0.000 C 
ATOM     14  C   UNL     1       7.134   5.295  18.252  0.00  0.00    +0.000 C 
ATOM     15  O   UNL     1       8.235   4.934  18.641  0.00  0.00    +0.000 OA
ATOM     16  N   UNL     1       6.787   6.555  17.866  0.00  0.00    +0.000 N 
ATOM     17  C   UNL     1       5.434   6.654  17.794  0.00  0.00    +0.000 C 
ATOM     18  O   UNL     1       4.785   7.535  17.264  0.00  0.00    +0.000 OA
ATOM     19  C   UNL     1       4.874   5.436  18.493  0.00  0.00    +0.000 C 
ATOM     20  H   UNL     1       1.679   6.197  20.254  0.00  0.00    +0.000 HD
ATOM     21  H   UNL     1       4.120   5.273  15.915  0.00  0.00    +0.000 HD
ENDROOT
BRANCH   1  23
ATOM     22  C   UNL     1       4.419   2.111  20.469  0.00  0.00    +0.000 C 
ATOM     23  C   UNL     1       3.143   2.296  21.272  0.00  0.00    +0.000 C 
ENDBRANCH   1  23
BRANCH  12  24
ATOM     24  C   UNL     1       6.400   3.995  15.648  0.00  0.00    +0.000 C 
BRANCH  24  25
ATOM     25  C   UNL     1       5.797   4.577  14.351  0.00  0.00    +0.000 C 
BRANCH  25  26
ATOM     26  C   UNL     1       6.524   4.092  13.121  0.00  0.00    +0.000 C 
ATOM     27  N   UNL     1       6.140   2.860  12.671  0.00  0.00    +0.000 N 
ATOM     28  O   UNL     1       7.396   4.724  12.533  0.00  0.00    +0.000 OA
ATOM     29  H   UNL     1       5.513   2.253  13.182  0.00  0.00    +0.000 HD
ATOM     30  H   UNL     1       6.643   2.468  11.881  0.00  0.00    +0.000 HD
ENDBRANCH  25  26
ENDBRANCH  24  25
ENDBRANCH  12  24
BRANCH  16  31
ATOM     31  C   UNL     1       7.759   7.588  17.537  0.00  0.00    +0.000 C 
BRANCH  31  32
ATOM     32  C   UNL     1       8.508   8.193  18.730  0.00  0.00    +0.000 C 
BRANCH  32  33
ATOM     33  C   UNL     1       8.760   9.681  18.679  0.00  0.00    +0.000 A 
ATOM     34  C   UNL     1       9.562  10.252  19.683  0.00  0.00    +0.000 A 
ATOM     35  C   UNL     1       9.851  11.614  19.674  0.00  0.00    +0.000 A 
ATOM     36  C   UNL     1       9.352  12.423  18.658  0.00  0.00    +0.000 A 
ATOM     37  C   UNL     1       8.576  11.866  17.645  0.00  0.00    +0.000 A 
ATOM     38  C   UNL     1       8.287  10.501  17.649  0.00  0.00    +0.000 A 
ENDBRANCH  32  33
ENDBRANCH  31  32
ENDBRANCH  16  31
TORSDOF 7
ENDMDL
MODEL 2
REMARK VINA RESULT:      -9.6      0.596      1.018
REMARK  Name = 
REMARK  8 active torsions:
REMARK  status: ('A' for Active; 'I' for Inactive)
REMARK    1  A    between atoms: C_1  and  C_2
REMARK    2  A    between atoms: C_2  and  C_3
REMARK    3  A    between atoms: C_14  and  C_15
REMARK    4  A    between atoms: C_15  and  C_16
REMARK    5  A    between atoms: C_16  and  C_17
REMARK    6  A    between atoms: N_23  and  C_24
REMARK    7  A    between atoms: C_24  and  C_25
REMARK    8  A    between atoms: C_25  and  C_26
REMARK                            x       y       z     vdW  Elec       q    Type
REMARK                         _______ _______ _______ _____ _____    ______ ____
ROOT
ATOM      1  C   UNL     1       2.213   3.573  20.834  0.00  0.00    +0.000 A 
ATOM      2  C   UNL     1       0.926   3.137  20.507  0.00  0.00    +0.000 A 
ATOM      3  C   UNL     1       0.590   3.120  19.151  0.00  0.00    +0.000 A 
ATOM      4  C   UNL     1       1.587   3.431  18.189  0.00  0.00    +0.000 A 
ATOM      5  C   UNL     1       2.837   3.950  18.619  0.00  0.00    +0.000 A 
ATOM      6  C   UNL     1       2.741   4.434  19.899  0.00  0.00    +0.000 A 
ATOM      7  N   UNL     1       2.358   5.804  19.653  0.00  0.00    +0.000 N 
ATOM      8  C   UNL     1       2.604   6.128  18.249  0.00  0.00    +0.000 C 
ATOM      9  O   UNL     1       2.090   7.013  17.592  0.00  0.00    +0.000 OA
ATOM     10  C   UNL     1       3.616   5.026  17.866  0.00  0.00    +0.000 C 
ATOM     11  N   UNL     1       4.113   4.536  16.562  0.00  0.00    +0.000 NA
ATOM     12  C   UNL     1       5.490   3.937  16.878  0.00  0.00    +0.000 C 
ATOM     13  C   UNL     1       5.955   4.511  18.238  0.00  0.00    +0.000 C 
ATOM     14  C   UNL     1       7.165   5.417  18.334  0.00  0.00    +0.000 C 
ATOM     15  O   UNL     1       8.260   5.073  18.756  0.00  0.00    +0.000 OA
ATOM     16  N   UNL     1       6.815   6.668  17.922  0.00  0.00    +0.000 N 
ATOM     17  C   UNL     1       5.463   6.751  17.814  0.00  0.00    +0.000 C 
ATOM     18  O   UNL     1       4.819   7.617  17.255  0.00  0.00    +0.000 OA
ATOM     19  C   UNL     1       4.899   5.537  18.515  0.00  0.00    +0.000 C 
ATOM     20  H   UNL     1       1.652   6.288  20.184  0.00  0.00    +0.000 HD
ATOM     21  H   UNL     1       4.212   5.329  15.922  0.00  0.00    +0.000 HD
ENDROOT
BRANCH   1  23
ATOM     22  C   UNL     1       4.312   2.091  20.398  0.00  0.00    +0.000 C 
ATOM     23  C   UNL     1       3.130   2.417  21.295  0.00  0.00    +0.000 C 
ENDBRANCH   1  23
BRANCH  12  24
ATOM     24  C   UNL     1       6.511   4.073  15.732  0.00  0.00    +0.000 C 
BRANCH  24  25
ATOM     25  C   UNL     1       5.912   3.974  14.312  0.00  0.00    +0.000 C 
BRANCH  25  26
ATOM     26  C   UNL     1       6.880   4.441  13.254  0.00  0.00    +0.000 C 
ATOM     27  N   UNL     1       7.776   5.387  13.667  0.00  0.00    +0.000 N 
ATOM     28  O   UNL     1       6.904   4.027  12.099  0.00  0.00    +0.000 OA
ATOM     29  H   UNL     1       7.725   5.843  14.569  0.00  0.00    +0.000 HD
ATOM     30  H   UNL     1       8.408   5.774  12.973  0.00  0.00    +0.000 HD
ENDBRANCH  25  26
ENDBRANCH  24  25
ENDBRANCH  12  24
BRANCH  16  31
ATOM     31  C   UNL     1       7.785   7.706  17.602  0.00  0.00    +0.000 C 
BRANCH  31  32
ATOM     32  C   UNL     1       8.545   8.289  18.800  0.00  0.00    +0.000 C 
BRANCH  32  33
ATOM     33  C   UNL     1       8.869   9.762  18.735  0.00  0.00    +0.000 A 
ATOM     34  C   UNL     1       8.263  10.531  17.727  0.00  0.00    +0.000 A 
ATOM     35  C   UNL     1       8.503  11.899  17.633  0.00  0.00    +0.000 A 
ATOM     36  C   UNL     1       9.344  12.521  18.550  0.00  0.00    +0.000 A 
ATOM     37  C   UNL     1       9.934  11.775  19.567  0.00  0.00    +0.000 A 
ATOM     38  C   UNL     1       9.692  10.405  19.667  0.00  0.00    +0.000 A 
ENDBRANCH  32  33
ENDBRANCH  31  32
ENDBRANCH  16  31
TORSDOF 7
ENDMDL
MODEL 3
REMARK VINA RESULT:      -9.4      2.329      6.319
REMARK  Name = 
REMARK  8 active torsions:
REMARK  status: ('A' for Active; 'I' for Inactive)
REMARK    1  A    between atoms: C_1  and  C_2
REMARK    2  A    between atoms: C_2  and  C_3
REMARK    3  A    between atoms: C_14  and  C_15
REMARK    4  A    between atoms: C_15  and  C_16
REMARK    5  A    between atoms: C_16  and  C_17
REMARK    6  A    between atoms: N_23  and  C_24
REMARK    7  A    between atoms: C_24  and  C_25
REMARK    8  A    between atoms: C_25  and  C_26
REMARK                            x       y       z     vdW  Elec       q    Type
REMARK                         _______ _______ _______ _____ _____    ______ ____
ROOT
ATOM      1  C   UNL     1       1.166   4.043  20.076  0.00  0.00    +0.000 A 
ATOM      2  C   UNL     1       1.032   3.193  21.177  0.00  0.00    +0.000 A 
ATOM      3  C   UNL     1       2.181   2.520  21.600  0.00  0.00    +0.000 A 
ATOM      4  C   UNL     1       3.421   2.815  20.977  0.00  0.00    +0.000 A 
ATOM      5  C   UNL     1       3.444   3.622  19.809  0.00  0.00    +0.000 A 
ATOM      6  C   UNL     1       2.197   3.678  19.240  0.00  0.00    +0.000 A 
ATOM      7  N   UNL     1       2.244   2.543  18.348  0.00  0.00    +0.000 N 
ATOM      8  C   UNL     1       3.632   2.114  18.188  0.00  0.00    +0.000 C 
ATOM      9  O   UNL     1       4.033   1.020  17.839  0.00  0.00    +0.000 OA
ATOM     10  C   UNL     1       4.387   3.387  18.630  0.00  0.00    +0.000 C 
ATOM     11  N   UNL     1       5.798   3.634  18.994  0.00  0.00    +0.000 NA
ATOM     12  C   UNL     1       6.011   5.126  18.706  0.00  0.00    +0.000 C 
ATOM     13  C   UNL     1       4.885   5.590  17.751  0.00  0.00    +0.000 C 
ATOM     14  C   UNL     1       5.192   6.046  16.340  0.00  0.00    +0.000 C 
ATOM     15  O   UNL     1       5.197   7.212  15.971  0.00  0.00    +0.000 OA
ATOM     16  N   UNL     1       5.410   4.952  15.558  0.00  0.00    +0.000 N 
ATOM     17  C   UNL     1       5.029   3.831  16.226  0.00  0.00    +0.000 C 
ATOM     18  O   UNL     1       5.293   2.678  15.945  0.00  0.00    +0.000 OA
ATOM     19  C   UNL     1       4.216   4.292  17.414  0.00  0.00    +0.000 C 
ATOM     20  H   UNL     1       1.480   1.896  18.232  0.00  0.00    +0.000 HD
ATOM     21  H   UNL     1       6.404   3.070  18.393  0.00  0.00    +0.000 HD
ENDROOT
BRANCH   1  23
ATOM     22  C   UNL     1       2.130   6.452  19.828  0.00  0.00    +0.000 C 
ATOM     23  C   UNL     1       1.100   5.536  20.469  0.00  0.00    +0.000 C 
ENDBRANCH   1  23
BRANCH  12  24
ATOM     24  C   UNL     1       7.439   5.479  18.246  0.00  0.00    +0.000 C 
BRANCH  24  25
ATOM     25  C   UNL     1       8.128   6.595  19.062  0.00  0.00    +0.000 C 
BRANCH  25  26
ATOM     26  C   UNL     1       8.252   7.877  18.276  0.00  0.00    +0.000 C 
ATOM     27  N   UNL     1       8.828   8.916  18.953  0.00  0.00    +0.000 N 
ATOM     28  O   UNL     1       7.884   8.020  17.115  0.00  0.00    +0.000 OA
ATOM     29  H   UNL     1       9.041   8.885  19.941  0.00  0.00    +0.000 HD
ATOM     30  H   UNL     1       8.877   9.815  18.483  0.00  0.00    +0.000 HD
ENDBRANCH  25  26
ENDBRANCH  24  25
ENDBRANCH  12  24
BRANCH  16  31
ATOM     31  C   UNL     1       6.015   5.019  14.235  0.00  0.00    +0.000 C 
BRANCH  31  32
ATOM     32  C   UNL     1       5.191   4.401  13.101  0.00  0.00    +0.000 C 
BRANCH  32  33
ATOM     33  C   UNL     1       5.868   3.321  12.292  0.00  0.00    +0.000 A 
ATOM     34  C   UNL     1       5.080   2.265  11.804  0.00  0.00    +0.000 A 
ATOM     35  C   UNL     1       5.643   1.254  11.031  0.00  0.00    +0.000 A 
ATOM     36  C   UNL     1       6.999   1.288  10.724  0.00  0.00    +0.000 A 
ATOM     37  C   UNL     1       7.788   2.340  11.183  0.00  0.00    +0.000 A 
ATOM     38  C   UNL     1       7.226   3.356  11.955  0.00  0.00    +0.000 A 
ENDBRANCH  32  33
ENDBRANCH  31  32
ENDBRANCH  16  31
TORSDOF 7
ENDMDL
MODEL 4
REMARK VINA RESULT:      -8.6      1.172      1.457
REMARK  Name = 
REMARK  8 active torsions:
REMARK  status: ('A' for Active; 'I' for Inactive)
REMARK    1  A    between atoms: C_1  and  C_2
REMARK    2  A    between atoms: C_2  and  C_3
REMARK    3  A    between atoms: C_14  and  C_15
REMARK    4  A    between atoms: C_15  and  C_16
REMARK    5  A    between atoms: C_16  and  C_17
REMARK    6  A    between atoms: N_23  and  C_24
REMARK    7  A    between atoms: C_24  and  C_25
REMARK    8  A    between atoms: C_25  and  C_26
REMARK                            x       y       z     vdW  Elec       q    Type
REMARK                         _______ _______ _______ _____ _____    ______ ____
ROOT
ATOM      1  C   UNL     1       2.012   4.350  20.698  0.00  0.00    +0.000 A 
ATOM      2  C   UNL     1       0.765   3.955  20.207  0.00  0.00    +0.000 A 
ATOM      3  C   UNL     1       0.650   3.801  18.823  0.00  0.00    +0.000 A 
ATOM      4  C   UNL     1       1.809   3.939  18.015  0.00  0.00    +0.000 A 
ATOM      5  C   UNL     1       3.010   4.431  18.592  0.00  0.00    +0.000 A 
ATOM      6  C   UNL     1       2.747   5.065  19.780  0.00  0.00    +0.000 A 
ATOM      7  N   UNL     1       2.515   6.417  19.331  0.00  0.00    +0.000 N 
ATOM      8  C   UNL     1       3.007   6.561  17.961  0.00  0.00    +0.000 C 
ATOM      9  O   UNL     1       2.673   7.393  17.138  0.00  0.00    +0.000 OA
ATOM     10  C   UNL     1       3.979   5.366  17.871  0.00  0.00    +0.000 C 
ATOM     11  N   UNL     1       4.640   4.700  16.728  0.00  0.00    +0.000 NA
ATOM     12  C   UNL     1       5.898   4.062  17.330  0.00  0.00    +0.000 C 
ATOM     13  C   UNL     1       6.183   4.762  18.682  0.00  0.00    +0.000 C 
ATOM     14  C   UNL     1       7.427   5.601  18.884  0.00  0.00    +0.000 C 
ATOM     15  O   UNL     1       8.411   5.246  19.517  0.00  0.00    +0.000 OA
ATOM     16  N   UNL     1       7.244   6.814  18.290  0.00  0.00    +0.000 N 
ATOM     17  C   UNL     1       5.938   6.963  17.949  0.00  0.00    +0.000 C 
ATOM     18  O   UNL     1       5.459   7.795  17.203  0.00  0.00    +0.000 OA
ATOM     19  C   UNL     1       5.177   5.873  18.669  0.00  0.00    +0.000 C 
ATOM     20  H   UNL     1       1.772   7.000  19.682  0.00  0.00    +0.000 HD
ATOM     21  H   UNL     1       4.901   5.406  16.033  0.00  0.00    +0.000 HD
ENDROOT
BRANCH   1  23
ATOM     22  C   UNL     1       1.884   2.134  22.063  0.00  0.00    +0.000 C 
ATOM     23  C   UNL     1       2.753   3.205  21.424  0.00  0.00    +0.000 C 
ENDBRANCH   1  23
BRANCH  12  24
ATOM     24  C   UNL     1       7.098   4.005  16.364  0.00  0.00    +0.000 C 
BRANCH  24  25
ATOM     25  C   UNL     1       6.723   3.890  14.870  0.00  0.00    +0.000 C 
BRANCH  25  26
ATOM     26  C   UNL     1       6.798   5.220  14.163  0.00  0.00    +0.000 C 
ATOM     27  N   UNL     1       5.788   6.090  14.461  0.00  0.00    +0.000 N 
ATOM     28  O   UNL     1       7.684   5.542  13.377  0.00  0.00    +0.000 OA
ATOM     29  H   UNL     1       4.977   5.834  15.009  0.00  0.00    +0.000 HD
ATOM     30  H   UNL     1       5.765   6.975  13.963  0.00  0.00    +0.000 HD
ENDBRANCH  25  26
ENDBRANCH  24  25
ENDBRANCH  12  24
BRANCH  16  31
ATOM     31  C   UNL     1       8.329   7.751  18.031  0.00  0.00    +0.000 C 
BRANCH  31  32
ATOM     32  C   UNL     1       7.959   9.234  18.139  0.00  0.00    +0.000 C 
BRANCH  32  33
ATOM     33  C   UNL     1       9.037  10.159  18.650  0.00  0.00    +0.000 A 
ATOM     34  C   UNL     1       9.869  10.791  17.711  0.00  0.00    +0.000 A 
ATOM     35  C   UNL     1      10.864  11.674  18.120  0.00  0.00    +0.000 A 
ATOM     36  C   UNL     1      11.037  11.947  19.473  0.00  0.00    +0.000 A 
ATOM     37  C   UNL     1      10.205  11.344  20.413  0.00  0.00    +0.000 A 
ATOM     38  C   UNL     1       9.204  10.462  20.006  0.00  0.00    +0.000 A 
ENDBRANCH  32  33
ENDBRANCH  31  32
ENDBRANCH  16  31
TORSDOF 7
ENDMDL
MODEL 5
REMARK VINA RESULT:      -8.3      6.804     10.228
REMARK  Name = 
REMARK  8 active torsions:
REMARK  status: ('A' for Active; 'I' for Inactive)
REMARK    1  A    between atoms: C_1  and  C_2
REMARK    2  A    between atoms: C_2  and  C_3
REMARK    3  A    between atoms: C_14  and  C_15
REMARK    4  A    between atoms: C_15  and  C_16
REMARK    5  A    between atoms: C_16  and  C_17
REMARK    6  A    between atoms: N_23  and  C_24
REMARK    7  A    between atoms: C_24  and  C_25
REMARK    8  A    between atoms: C_25  and  C_26
REMARK                            x       y       z     vdW  Elec       q    Type
REMARK                         _______ _______ _______ _____ _____    ______ ____
ROOT
ATOM      1  C   UNL     1       0.497  15.001  21.869  0.00  0.00    +0.000 A 
ATOM      2  C   UNL     1       0.241  16.308  21.447  0.00  0.00    +0.000 A 
ATOM      3  C   UNL     1      -0.189  16.474  20.128  0.00  0.00    +0.000 A 
ATOM      4  C   UNL     1      -0.448  15.324  19.338  0.00  0.00    +0.000 A 
ATOM      5  C   UNL     1      -0.072  14.043  19.821  0.00  0.00    +0.000 A 
ATOM      6  C   UNL     1       0.844  14.162  20.835  0.00  0.00    +0.000 A 
ATOM      7  N   UNL     1       2.084  14.147  20.095  0.00  0.00    +0.000 N 
ATOM      8  C   UNL     1       1.830  13.661  18.740  0.00  0.00    +0.000 C 
ATOM      9  O   UNL     1       2.507  13.848  17.747  0.00  0.00    +0.000 OA
ATOM     10  C   UNL     1       0.485  12.929  18.937  0.00  0.00    +0.000 C 
ATOM     11  N   UNL     1      -0.526  12.424  17.983  0.00  0.00    +0.000 NA
ATOM     12  C   UNL     1      -1.237  11.295  18.741  0.00  0.00    +0.000 C 
ATOM     13  C   UNL     1      -0.323  10.862  19.912  0.00  0.00    +0.000 C 
ATOM     14  C   UNL     1       0.295   9.481  19.956  0.00  0.00    +0.000 C 
ATOM     15  O   UNL     1      -0.088   8.569  20.674  0.00  0.00    +0.000 OA
ATOM     16  N   UNL     1       1.360   9.445  19.106  0.00  0.00    +0.000 N 
ATOM     17  C   UNL     1       1.669  10.707  18.710  0.00  0.00    +0.000 C 
ATOM     18  O   UNL     1       2.391  11.036  17.788  0.00  0.00    +0.000 OA
ATOM     19  C   UNL     1       0.925  11.645  19.633  0.00  0.00    +0.000 C 
ATOM     20  H   UNL     1       2.856  14.763  20.293  0.00  0.00    +0.000 HD
ATOM     21  H   UNL     1      -0.051  12.049  17.157  0.00  0.00    +0.000 HD
ENDROOT
BRANCH   1  23
ATOM     22  C   UNL     1      -1.711  15.427  23.187  0.00  0.00    +0.000 C 
ATOM     23  C   UNL     1      -0.578  14.473  22.847  0.00  0.00    +0.000 C 
ENDBRANCH   1  23
BRANCH  12  24
ATOM     24  C   UNL     1      -1.727  10.145  17.840  0.00  0.00    +0.000 C 
BRANCH  24  25
ATOM     25  C   UNL     1      -3.256  10.091  17.628  0.00  0.00    +0.000 C 
BRANCH  25  26
ATOM     26  C   UNL     1      -3.741  11.195  16.722  0.00  0.00    +0.000 C 
ATOM     27  N   UNL     1      -2.893  11.520  15.701  0.00  0.00    +0.000 N 
ATOM     28  O   UNL     1      -4.812  11.780  16.850  0.00  0.00    +0.000 OA
ATOM     29  H   UNL     1      -1.955  11.151  15.619  0.00  0.00    +0.000 HD
ATOM     30  H   UNL     1      -3.153  12.298  15.102  0.00  0.00    +0.000 HD
ENDBRANCH  25  26
ENDBRANCH  24  25
ENDBRANCH  12  24
BRANCH  16  31
ATOM     31  C   UNL     1       2.000   8.210  18.674  0.00  0.00    +0.000 C 
BRANCH  31  32
ATOM     32  C   UNL     1       2.322   7.209  19.790  0.00  0.00    +0.000 C 
BRANCH  32  33
ATOM     33  C   UNL     1       1.961   5.768  19.523  0.00  0.00    +0.000 A 
ATOM     34  C   UNL     1       1.476   4.996  20.592  0.00  0.00    +0.000 A 
ATOM     35  C   UNL     1       1.103   3.669  20.401  0.00  0.00    +0.000 A 
ATOM     36  C   UNL     1       1.199   3.096  19.137  0.00  0.00    +0.000 A 
ATOM     37  C   UNL     1       1.657   3.856  18.064  0.00  0.00    +0.000 A 
ATOM     38  C   UNL     1       2.028   5.187  18.251  0.00  0.00    +0.000 A 
ENDBRANCH  32  33
ENDBRANCH  31  32
ENDBRANCH  16  31
TORSDOF 7
ENDMDL
MODEL 6
REMARK VINA RESULT:      -8.2      6.783      9.872
REMARK  Name = 
REMARK  8 active torsions:
REMARK  status: ('A' for Active; 'I' for Inactive)
REMARK    1  A    between atoms: C_1  and  C_2
REMARK    2  A    between atoms: C_2  and  C_3
REMARK    3  A    between atoms: C_14  and  C_15
REMARK    4  A    between atoms: C_15  and  C_16
REMARK    5  A    between atoms: C_16  and  C_17
REMARK    6  A    between atoms: N_23  and  C_24
REMARK    7  A    between atoms: C_24  and  C_25
REMARK    8  A    between atoms: C_25  and  C_26
REMARK                            x       y       z     vdW  Elec       q    Type
REMARK                         _______ _______ _______ _____ _____    ______ ____
ROOT
ATOM      1  C   UNL     1       0.329  15.313  21.660  0.00  0.00    +0.000 A 
ATOM      2  C   UNL     1       0.130  16.576  21.096  0.00  0.00    +0.000 A 
ATOM      3  C   UNL     1      -0.231  16.617  19.747  0.00  0.00    +0.000 A 
ATOM      4  C   UNL     1      -0.482  15.399  19.063  0.00  0.00    +0.000 A 
ATOM      5  C   UNL     1      -0.165  14.165  19.691  0.00  0.00    +0.000 A 
ATOM      6  C   UNL     1       0.703  14.367  20.734  0.00  0.00    +0.000 A 
ATOM      7  N   UNL     1       1.977  14.250  20.064  0.00  0.00    +0.000 N 
ATOM      8  C   UNL     1       1.777  13.635  18.753  0.00  0.00    +0.000 C 
ATOM      9  O   UNL     1       2.508  13.706  17.782  0.00  0.00    +0.000 OA
ATOM     10  C   UNL     1       0.405  12.956  18.952  0.00  0.00    +0.000 C 
ATOM     11  N   UNL     1      -0.571  12.379  18.003  0.00  0.00    +0.000 NA
ATOM     12  C   UNL     1      -1.349  11.349  18.832  0.00  0.00    +0.000 C 
ATOM     13  C   UNL     1      -0.505  11.017  20.087  0.00  0.00    +0.000 C 
ATOM     14  C   UNL     1       0.073   9.634  20.300  0.00  0.00    +0.000 C 
ATOM     15  O   UNL     1      -0.370   8.808  21.086  0.00  0.00    +0.000 OA
ATOM     16  N   UNL     1       1.177   9.489  19.515  0.00  0.00    +0.000 N 
ATOM     17  C   UNL     1       1.539  10.697  19.010  0.00  0.00    +0.000 C 
ATOM     18  O   UNL     1       2.313  10.916  18.099  0.00  0.00    +0.000 OA
ATOM     19  C   UNL     1       0.776  11.739  19.795  0.00  0.00    +0.000 C 
ATOM     20  H   UNL     1       2.755  14.865  20.239  0.00  0.00    +0.000 HD
ATOM     21  H   UNL     1      -0.066  11.912  17.245  0.00  0.00    +0.000 HD
ENDROOT
BRANCH   1  23
ATOM     22  C   UNL     1      -0.903  13.437  22.984  0.00  0.00    +0.000 C 
ATOM     23  C   UNL     1      -0.806  14.911  22.628  0.00  0.00    +0.000 C 
ENDBRANCH   1  23
BRANCH  12  24
ATOM     24  C   UNL     1      -1.824  10.124  18.027  0.00  0.00    +0.000 C 
BRANCH  24  25
ATOM     25  C   UNL     1      -3.328  10.122  17.674  0.00  0.00    +0.000 C 
BRANCH  25  26
ATOM     26  C   UNL     1      -3.660  11.129  16.602  0.00  0.00    +0.000 C 
ATOM     27  N   UNL     1      -2.672  11.339  15.680  0.00  0.00    +0.000 N 
ATOM     28  O   UNL     1      -4.725  11.732  16.519  0.00  0.00    +0.000 OA
ATOM     29  H   UNL     1      -1.740  10.957  15.769  0.00  0.00    +0.000 HD
ATOM     30  H   UNL     1      -2.830  12.052  14.975  0.00  0.00    +0.000 HD
ENDBRANCH  25  26
ENDBRANCH  24  25
ENDBRANCH  12  24
BRANCH  16  31
ATOM     31  C   UNL     1       1.803   8.203  19.242  0.00  0.00    +0.000 C 
BRANCH  31  32
ATOM     32  C   UNL     1       2.715   8.162  18.010  0.00  0.00    +0.000 C 
BRANCH  32  33
ATOM     33  C   UNL     1       3.314   6.820  17.664  0.00  0.00    +0.000 A 
ATOM     34  C   UNL     1       2.619   5.663  18.054  0.00  0.00    +0.000 A 
ATOM     35  C   UNL     1       3.109   4.398  17.740  0.00  0.00    +0.000 A 
ATOM     36  C   UNL     1       4.295   4.271  17.024  0.00  0.00    +0.000 A 
ATOM     37  C   UNL     1       4.982   5.409  16.613  0.00  0.00    +0.000 A 
ATOM     38  C   UNL     1       4.492   6.678  16.922  0.00  0.00    +0.000 A 
ENDBRANCH  32  33
ENDBRANCH  31  32
ENDBRANCH  16  31
TORSDOF 7
ENDMDL
MODEL 7
REMARK VINA RESULT:      -7.8      7.637     10.463
REMARK  Name = 
REMARK  8 active torsions:
REMARK  status: ('A' for Active; 'I' for Inactive)
REMARK    1  A    between atoms: C_1  and  C_2
REMARK    2  A    between atoms: C_2  and  C_3
REMARK    3  A    between atoms: C_14  and  C_15
REMARK    4  A    between atoms: C_15  and  C_16
REMARK    5  A    between atoms: C_16  and  C_17
REMARK    6  A    between atoms: N_23  and  C_24
REMARK    7  A    between atoms: C_24  and  C_25
REMARK    8  A    between atoms: C_25  and  C_26
REMARK                            x       y       z     vdW  Elec       q    Type
REMARK                         _______ _______ _______ _____ _____    ______ ____
ROOT
ATOM      1  C   UNL     1      -4.310  13.382  22.985  0.00  0.00    +0.000 A 
ATOM      2  C   UNL     1      -4.147  14.028  24.213  0.00  0.00    +0.000 A 
ATOM      3  C   UNL     1      -2.850  14.418  24.556  0.00  0.00    +0.000 A 
ATOM      4  C   UNL     1      -1.805  14.243  23.610  0.00  0.00    +0.000 A 
ATOM      5  C   UNL     1      -2.049  13.495  22.428  0.00  0.00    +0.000 A 
ATOM      6  C   UNL     1      -3.174  12.725  22.571  0.00  0.00    +0.000 A 
ATOM      7  N   UNL     1      -2.614  11.510  23.116  0.00  0.00    +0.000 N 
ATOM      8  C   UNL     1      -1.165  11.518  22.921  0.00  0.00    +0.000 C 
ATOM      9  O   UNL     1      -0.331  10.887  23.543  0.00  0.00    +0.000 OA
ATOM     10  C   UNL     1      -1.026  12.558  21.788  0.00  0.00    +0.000 C 
ATOM     11  N   UNL     1       0.135  13.295  21.247  0.00  0.00    +0.000 NA
ATOM     12  C   UNL     1      -0.266  13.637  19.806  0.00  0.00    +0.000 C 
ATOM     13  C   UNL     1      -1.426  12.695  19.402  0.00  0.00    +0.000 C 
ATOM     14  C   UNL     1      -1.253  11.663  18.308  0.00  0.00    +0.000 C 
ATOM     15  O   UNL     1      -1.705  11.764  17.177  0.00  0.00    +0.000 OA
ATOM     16  N   UNL     1      -0.561  10.600  18.808  0.00  0.00    +0.000 N 
ATOM     17  C   UNL     1      -0.485  10.701  20.160  0.00  0.00    +0.000 C 
ATOM     18  O   UNL     1       0.244  10.078  20.908  0.00  0.00    +0.000 OA
ATOM     19  C   UNL     1      -1.483  11.760  20.571  0.00  0.00    +0.000 C 
ATOM     20  H   UNL     1      -3.037  10.994  23.871  0.00  0.00    +0.000 HD
ATOM     21  H   UNL     1       0.954  12.679  21.248  0.00  0.00    +0.000 HD
ENDROOT
BRANCH   1  23
ATOM     22  C   UNL     1      -5.179  13.680  20.546  0.00  0.00    +0.000 C 
ATOM     23  C   UNL     1      -5.005  14.275  21.933  0.00  0.00    +0.000 C 
ENDBRANCH   1  23
BRANCH  12  24
ATOM     24  C   UNL     1       0.916  13.674  18.817  0.00  0.00    +0.000 C 
BRANCH  24  25
ATOM     25  C   UNL     1       2.228  13.059  19.350  0.00  0.00    +0.000 C 
BRANCH  25  26
ATOM     26  C   UNL     1       3.228  14.116  19.749  0.00  0.00    +0.000 C 
ATOM     27  N   UNL     1       3.084  14.596  21.021  0.00  0.00    +0.000 N 
ATOM     28  O   UNL     1       4.123  14.537  19.024  0.00  0.00    +0.000 OA
ATOM     29  H   UNL     1       2.298  14.368  21.614  0.00  0.00    +0.000 HD
ATOM     30  H   UNL     1       3.697  15.351  21.312  0.00  0.00    +0.000 HD
ENDBRANCH  25  26
ENDBRANCH  24  25
ENDBRANCH  12  24
BRANCH  16  31
ATOM     31  C   UNL     1       0.039   9.570  17.971  0.00  0.00    +0.000 C 
BRANCH  31  32
ATOM     32  C   UNL     1       1.571   9.563  17.930  0.00  0.00    +0.000 C 
BRANCH  32  33
ATOM     33  C   UNL     1       2.246   8.261  18.290  0.00  0.00    +0.000 A 
ATOM     34  C   UNL     1       3.246   7.773  17.432  0.00  0.00    +0.000 A 
ATOM     35  C   UNL     1       3.921   6.592  17.724  0.00  0.00    +0.000 A 
ATOM     36  C   UNL     1       3.615   5.886  18.883  0.00  0.00    +0.000 A 
ATOM     37  C   UNL     1       2.642   6.370  19.754  0.00  0.00    +0.000 A 
ATOM     38  C   UNL     1       1.966   7.555  19.465  0.00  0.00    +0.000 A 
ENDBRANCH  32  33
ENDBRANCH  31  32
ENDBRANCH  16  31
TORSDOF 7
ENDMDL
MODEL 8
REMARK VINA RESULT:      -7.7      7.713     11.912
REMARK  Name = 
REMARK  8 active torsions:
REMARK  status: ('A' for Active; 'I' for Inactive)
REMARK    1  A    between atoms: C_1  and  C_2
REMARK    2  A    between atoms: C_2  and  C_3
REMARK    3  A    between atoms: C_14  and  C_15
REMARK    4  A    between atoms: C_15  and  C_16
REMARK    5  A    between atoms: C_16  and  C_17
REMARK    6  A    between atoms: N_23  and  C_24
REMARK    7  A    between atoms: C_24  and  C_25
REMARK    8  A    between atoms: C_25  and  C_26
REMARK                            x       y       z     vdW  Elec       q    Type
REMARK                         _______ _______ _______ _____ _____    ______ ____
ROOT
ATOM      1  C   UNL     1      10.235  11.832  18.405  0.00  0.00    +0.000 A 
ATOM      2  C   UNL     1      11.625  11.812  18.545  0.00  0.00    +0.000 A 
ATOM      3  C   UNL     1      12.204  12.868  19.253  0.00  0.00    +0.000 A 
ATOM      4  C   UNL     1      11.361  13.823  19.879  0.00  0.00    +0.000 A 
ATOM      5  C   UNL     1       9.967  13.812  19.606  0.00  0.00    +0.000 A 
ATOM      6  C   UNL     1       9.708  13.102  18.462  0.00  0.00    +0.000 A 
ATOM      7  N   UNL     1       9.806  14.137  17.460  0.00  0.00    +0.000 N 
ATOM      8  C   UNL     1       9.760  15.445  18.113  0.00  0.00    +0.000 C 
ATOM      9  O   UNL     1      10.171  16.504  17.680  0.00  0.00    +0.000 OA
ATOM     10  C   UNL     1       9.118  15.074  19.468  0.00  0.00    +0.000 C 
ATOM     11  N   UNL     1       9.000  15.803  20.749  0.00  0.00    +0.000 NA
ATOM     12  C   UNL     1       7.763  15.194  21.423  0.00  0.00    +0.000 C 
ATOM     13  C   UNL     1       6.932  14.480  20.330  0.00  0.00    +0.000 C 
ATOM     14  C   UNL     1       5.551  14.970  19.950  0.00  0.00    +0.000 C 
ATOM     15  O   UNL     1       4.505  14.434  20.285  0.00  0.00    +0.000 OA
ATOM     16  N   UNL     1       5.675  16.063  19.145  0.00  0.00    +0.000 N 
ATOM     17  C   UNL     1       6.968  16.191  18.746  0.00  0.00    +0.000 C 
ATOM     18  O   UNL     1       7.489  17.160  18.230  0.00  0.00    +0.000 OA
ATOM     19  C   UNL     1       7.654  14.886  19.081  0.00  0.00    +0.000 C 
ATOM     20  H   UNL     1      10.270  14.012  16.575  0.00  0.00    +0.000 HD
ATOM     21  H   UNL     1       8.843  16.796  20.557  0.00  0.00    +0.000 HD
ENDROOT
BRANCH   1  23
ATOM     22  C   UNL     1       8.762   9.685  18.538  0.00  0.00    +0.000 C 
ATOM     23  C   UNL     1       9.538  10.763  19.277  0.00  0.00    +0.000 C 
ENDBRANCH   1  23
BRANCH  12  24
ATOM     24  C   UNL     1       6.971  16.187  22.296  0.00  0.00    +0.000 C 
BRANCH  24  25
ATOM     25  C   UNL     1       6.569  15.652  23.688  0.00  0.00    +0.000 C 
BRANCH  25  26
ATOM     26  C   UNL     1       5.202  15.014  23.677  0.00  0.00    +0.000 C 
ATOM     27  N   UNL     1       4.195  15.814  23.212  0.00  0.00    +0.000 N 
ATOM     28  O   UNL     1       4.966  13.866  24.041  0.00  0.00    +0.000 OA
ATOM     29  H   UNL     1       4.316  16.797  23.010  0.00  0.00    +0.000 HD
ATOM     30  H   UNL     1       3.249  15.446  23.242  0.00  0.00    +0.000 HD
ENDBRANCH  25  26
ENDBRANCH  24  25
ENDBRANCH  12  24
BRANCH  16  31
ATOM     31  C   UNL     1       4.571  16.961  18.837  0.00  0.00    +0.000 C 
BRANCH  31  32
ATOM     32  C   UNL     1       3.694  16.544  17.651  0.00  0.00    +0.000 C 
BRANCH  32  33
ATOM     33  C   UNL     1       2.229  16.896  17.744  0.00  0.00    +0.000 A 
ATOM     34  C   UNL     1       1.435  16.194  18.668  0.00  0.00    +0.000 A 
ATOM     35  C   UNL     1       0.084  16.492  18.818  0.00  0.00    +0.000 A 
ATOM     36  C   UNL     1      -0.493  17.502  18.055  0.00  0.00    +0.000 A 
ATOM     37  C   UNL     1       0.286  18.220  17.152  0.00  0.00    +0.000 A 
ATOM     38  C   UNL     1       1.642  17.926  17.002  0.00  0.00    +0.000 A 
ENDBRANCH  32  33
ENDBRANCH  31  32
ENDBRANCH  16  31
TORSDOF 7
ENDMDL
MODEL 9
REMARK VINA RESULT:      -7.6      7.839     10.643
REMARK  Name = 
REMARK  8 active torsions:
REMARK  status: ('A' for Active; 'I' for Inactive)
REMARK    1  A    between atoms: C_1  and  C_2
REMARK    2  A    between atoms: C_2  and  C_3
REMARK    3  A    between atoms: C_14  and  C_15
REMARK    4  A    between atoms: C_15  and  C_16
REMARK    5  A    between atoms: C_16  and  C_17
REMARK    6  A    between atoms: N_23  and  C_24
REMARK    7  A    between atoms: C_24  and  C_25
REMARK    8  A    between atoms: C_25  and  C_26
REMARK                            x       y       z     vdW  Elec       q    Type
REMARK                         _______ _______ _______ _____ _____    ______ ____
ROOT
ATOM      1  C   UNL     1      -5.151  12.887  22.636  0.00  0.00    +0.000 A 
ATOM      2  C   UNL     1      -5.493  14.061  23.311  0.00  0.00    +0.000 A 
ATOM      3  C   UNL     1      -4.612  15.139  23.190  0.00  0.00    +0.000 A 
ATOM      4  C   UNL     1      -3.500  15.027  22.316  0.00  0.00    +0.000 A 
ATOM      5  C   UNL     1      -3.184  13.766  21.744  0.00  0.00    +0.000 A 
ATOM      6  C   UNL     1      -3.795  12.756  22.442  0.00  0.00    +0.000 A 
ATOM      7  N   UNL     1      -2.791  12.455  23.436  0.00  0.00    +0.000 N 
ATOM      8  C   UNL     1      -1.521  13.057  23.035  0.00  0.00    +0.000 C 
ATOM      9  O   UNL     1      -0.577  13.340  23.749  0.00  0.00    +0.000 OA
ATOM     10  C   UNL     1      -1.758  13.265  21.523  0.00  0.00    +0.000 C 
ATOM     11  N   UNL     1      -1.045  14.061  20.501  0.00  0.00    +0.000 NA
ATOM     12  C   UNL     1      -1.364  13.356  19.176  0.00  0.00    +0.000 C 
ATOM     13  C   UNL     1      -1.848  11.923  19.507  0.00  0.00    +0.000 C 
ATOM     14  C   UNL     1      -1.046  10.709  19.089  0.00  0.00    +0.000 C 
ATOM     15  O   UNL     1      -1.332   9.972  18.157  0.00  0.00    +0.000 OA
ATOM     16  N   UNL     1       0.004  10.556  19.945  0.00  0.00    +0.000 N 
ATOM     17  C   UNL     1      -0.163  11.369  21.021  0.00  0.00    +0.000 C 
ATOM     18  O   UNL     1       0.669  11.673  21.854  0.00  0.00    +0.000 OA
ATOM     19  C   UNL     1      -1.596  11.847  20.982  0.00  0.00    +0.000 C 
ATOM     20  H   UNL     1      -3.004  12.282  24.405  0.00  0.00    +0.000 HD
ATOM     21  H   UNL     1      -0.039  14.022  20.687  0.00  0.00    +0.000 HD
ENDROOT
BRANCH   1  23
ATOM     22  C   UNL     1      -5.335  12.223  20.122  0.00  0.00    +0.000 C 
ATOM     23  C   UNL     1      -6.046  12.631  21.401  0.00  0.00    +0.000 C 
ENDBRANCH   1  23
BRANCH  12  24
ATOM     24  C   UNL     1      -0.231  13.435  18.134  0.00  0.00    +0.000 C 
BRANCH  24  25
ATOM     25  C   UNL     1       1.019  14.218  18.592  0.00  0.00    +0.000 C 
BRANCH  25  26
ATOM     26  C   UNL     1       2.175  13.303  18.911  0.00  0.00    +0.000 C 
ATOM     27  N   UNL     1       2.674  13.422  20.178  0.00  0.00    +0.000 N 
ATOM     28  O   UNL     1       2.659  12.494  18.126  0.00  0.00    +0.000 OA
ATOM     29  H   UNL     1       2.389  14.149  20.820  0.00  0.00    +0.000 HD
ATOM     30  H   UNL     1       3.491  12.869  20.417  0.00  0.00    +0.000 HD
ENDBRANCH  25  26
ENDBRANCH  24  25
ENDBRANCH  12  24
BRANCH  16  31
ATOM     31  C   UNL     1       1.138   9.683  19.675  0.00  0.00    +0.000 C 
BRANCH  31  32
ATOM     32  C   UNL     1       1.270   8.469  20.601  0.00  0.00    +0.000 C 
BRANCH  32  33
ATOM     33  C   UNL     1       1.869   7.224  19.993  0.00  0.00    +0.000 A 
ATOM     34  C   UNL     1       1.702   6.006  20.674  0.00  0.00    +0.000 A 
ATOM     35  C   UNL     1       2.209   4.821  20.149  0.00  0.00    +0.000 A 
ATOM     36  C   UNL     1       2.881   4.832  18.932  0.00  0.00    +0.000 A 
ATOM     37  C   UNL     1       3.035   6.028  18.235  0.00  0.00    +0.000 A 
ATOM     38  C   UNL     1       2.524   7.217  18.756  0.00  0.00    +0.000 A 
ENDBRANCH  32  33
ENDBRANCH  31  32
ENDBRANCH  16  31
TORSDOF 7
ENDMDL
