MODEL 1
REMARK VINA RESULT:      -7.8      0.000      0.000
REMARK  Name = 
REMARK  7 active torsions:
REMARK  status: ('A' for Active; 'I' for Inactive)
REMARK    1  A    between atoms: N_4  and  C_5
REMARK    2  A    between atoms: C_5  and  C_6
REMARK    3  A    between atoms: C_6  and  C_7
REMARK    4  A    between atoms: C_7  and  N_8
REMARK    5  A    between atoms: N_8  and  C_9
REMARK    6  A    between atoms: N_8  and  C_16
REMARK    7  A    between atoms: C_9  and  C_10
REMARK                            x       y       z     vdW  Elec       q    Type
REMARK                         _______ _______ _______ _____ _____    ______ ____
ROOT
ATOM      1  N   UNL     1       3.642   6.012  17.996  0.00  0.00    +0.000 N 
ENDROOT
BRANCH   1   2
ATOM      2  C   UNL     1       2.830   7.019  18.513  0.00  0.00    +0.000 A 
ATOM      3  C   UNL     1       2.388   8.100  17.727  0.00  0.00    +0.000 A 
ATOM      4  C   UNL     1       1.589   9.129  18.249  0.00  0.00    +0.000 A 
ATOM      5  C   UNL     1       1.202   9.100  19.581  0.00  0.00    +0.000 A 
ATOM      6 CL   UNL     1       0.241  10.370  20.229  0.00  0.00    +0.000 Cl
ATOM      7  C   UNL     1       1.586   8.039  20.384  0.00  0.00    +0.000 A 
ATOM      8  C   UNL     1       2.381   7.014  19.849  0.00  0.00    +0.000 A 
ENDBRANCH   1   2
BRANCH   1   9
ATOM      9  C   UNL     1       5.053   6.262  17.638  0.00  0.00    +0.000 C 
BRANCH   9  10
ATOM     10  C   UNL     1       6.083   5.502  18.489  0.00  0.00    +0.000 C 
BRANCH  10  11
ATOM     11  C   UNL     1       7.269   4.948  17.704  0.00  0.00    +0.000 C 
BRANCH  11  15
ATOM     12  N   UNL     1       6.229   3.596  14.459  0.00  0.00    +0.000 NA
ATOM     13  C   UNL     1       6.876   4.369  15.259  0.00  0.00    +0.000 C 
ATOM     14  N   UNL     1       7.620   5.402  14.830  0.00  0.00    +0.000 N 
ATOM     15  N   UNL     1       6.826   4.139  16.583  0.00  0.00    +0.000 N 
ATOM     16  H   UNL     1       6.364   3.901  13.495  0.00  0.00    +0.000 HD
ATOM     17  H   UNL     1       7.847   5.373  13.844  0.00  0.00    +0.000 HD
ATOM     18  H   UNL     1       8.448   5.558  15.386  0.00  0.00    +0.000 HD
ATOM     19  H   UNL     1       6.164   3.400  16.808  0.00  0.00    +0.000 HD
ENDBRANCH  11  15
ENDBRANCH  10  11
ENDBRANCH   9  10
ENDBRANCH   1   9
BRANCH   1  20
ATOM     20  C   UNL     1       3.090   4.688  17.649  0.00  0.00    +0.000 C 
BRANCH  20  21
ATOM     21  C   UNL     1       2.525   3.876  18.807  0.00  0.00    +0.000 A 
ATOM     22  C   UNL     1       3.392   3.439  19.827  0.00  0.00    +0.000 A 
ATOM     23  C   UNL     1       2.895   2.901  21.019  0.00  0.00    +0.000 A 
ATOM     24  C   UNL     1       1.522   2.784  21.208  0.00  0.00    +0.000 A 
ATOM     25  C   UNL     1       0.650   3.159  20.187  0.00  0.00    +0.000 A 
ATOM     26  C   UNL     1       1.148   3.698  18.993  0.00  0.00    +0.000 A 
ENDBRANCH  20  21
ENDBRANCH   1  20
TORSDOF 7
ENDMDL
MODEL 2
REMARK VINA RESULT:      -7.7      0.087      1.023
REMARK  Name = 
REMARK  7 active torsions:
REMARK  status: ('A' for Active; 'I' for Inactive)
REMARK    1  A    between atoms: N_4  and  C_5
REMARK    2  A    between atoms: C_5  and  C_6
REMARK    3  A    between atoms: C_6  and  C_7
REMARK    4  A    between atoms: C_7  and  N_8
REMARK    5  A    between atoms: N_8  and  C_9
REMARK    6  A    between atoms: N_8  and  C_16
REMARK    7  A    between atoms: C_9  and  C_10
REMARK                            x       y       z     vdW  Elec       q    Type
REMARK                         _______ _______ _______ _____ _____    ______ ____
ROOT
ATOM      1  N   UNL     1       3.556   6.034  17.984  0.00  0.00    +0.000 N 
ENDROOT
BRANCH   1   2
ATOM      2  C   UNL     1       2.769   7.064  18.495  0.00  0.00    +0.000 A 
ATOM      3  C   UNL     1       2.360   7.093  19.841  0.00  0.00    +0.000 A 
ATOM      4  C   UNL     1       1.547   8.115  20.355  0.00  0.00    +0.000 A 
ATOM      5  C   UNL     1       1.125   9.148  19.531  0.00  0.00    +0.000 A 
ATOM      6 CL   UNL     1       0.112  10.391  20.152  0.00  0.00    +0.000 Cl
ATOM      7  C   UNL     1       1.531   9.177  18.207  0.00  0.00    +0.000 A 
ATOM      8  C   UNL     1       2.347   8.152  17.706  0.00  0.00    +0.000 A 
ENDBRANCH   1   2
BRANCH   1   9
ATOM      9  C   UNL     1       4.973   6.248  17.624  0.00  0.00    +0.000 C 
BRANCH   9  10
ATOM     10  C   UNL     1       5.986   5.491  18.499  0.00  0.00    +0.000 C 
BRANCH  10  11
ATOM     11  C   UNL     1       7.189   4.936  17.741  0.00  0.00    +0.000 C 
BRANCH  11  15
ATOM     12  N   UNL     1       6.221   3.597  14.468  0.00  0.00    +0.000 NA
ATOM     13  C   UNL     1       6.851   4.366  15.285  0.00  0.00    +0.000 C 
ATOM     14  N   UNL     1       7.608   5.398  14.877  0.00  0.00    +0.000 N 
ATOM     15  N   UNL     1       6.769   4.131  16.608  0.00  0.00    +0.000 N 
ATOM     16  H   UNL     1       6.379   3.905  13.508  0.00  0.00    +0.000 HD
ATOM     17  H   UNL     1       7.858   5.372  13.897  0.00  0.00    +0.000 HD
ATOM     18  H   UNL     1       8.423   5.550  15.453  0.00  0.00    +0.000 HD
ATOM     19  H   UNL     1       6.101   3.394  16.814  0.00  0.00    +0.000 HD
ENDBRANCH  11  15
ENDBRANCH  10  11
ENDBRANCH   9  10
ENDBRANCH   1   9
BRANCH   1  20
ATOM     20  C   UNL     1       2.973   4.721  17.645  0.00  0.00    +0.000 C 
BRANCH  20  21
ATOM     21  C   UNL     1       2.463   3.895  18.818  0.00  0.00    +0.000 A 
ATOM     22  C   UNL     1       3.381   3.416  19.773  0.00  0.00    +0.000 A 
ATOM     23  C   UNL     1       2.945   2.862  20.981  0.00  0.00    +0.000 A 
ATOM     24  C   UNL     1       1.584   2.770  21.252  0.00  0.00    +0.000 A 
ATOM     25  C   UNL     1       0.660   3.186  20.296  0.00  0.00    +0.000 A 
ATOM     26  C   UNL     1       1.095   3.742  19.086  0.00  0.00    +0.000 A 
ENDBRANCH  20  21
ENDBRANCH   1  20
TORSDOF 7
ENDMDL
MODEL 3
REMARK VINA RESULT:      -7.7      3.120      5.850
REMARK  Name = 
REMARK  7 active torsions:
REMARK  status: ('A' for Active; 'I' for Inactive)
REMARK    1  A    between atoms: N_4  and  C_5
REMARK    2  A    between atoms: C_5  and  C_6
REMARK    3  A    between atoms: C_6  and  C_7
REMARK    4  A    between atoms: C_7  and  N_8
REMARK    5  A    between atoms: N_8  and  C_9
REMARK    6  A    between atoms: N_8  and  C_16
REMARK    7  A    between atoms: C_9  and  C_10
REMARK                            x       y       z     vdW  Elec       q    Type
REMARK                         _______ _______ _______ _____ _____    ______ ____
ROOT
ATOM      1  N   UNL     1       4.958   4.726  16.600  0.00  0.00    +0.000 N 
ENDROOT
BRANCH   1   2
ATOM      2  C   UNL     1       4.046   4.316  17.571  0.00  0.00    +0.000 A 
ATOM      3  C   UNL     1       4.423   4.117  18.912  0.00  0.00    +0.000 A 
ATOM      4  C   UNL     1       3.514   3.682  19.889  0.00  0.00    +0.000 A 
ATOM      5  C   UNL     1       2.191   3.441  19.549  0.00  0.00    +0.000 A 
ATOM      6 CL   UNL     1       1.079   2.888  20.739  0.00  0.00    +0.000 Cl
ATOM      7  C   UNL     1       1.768   3.655  18.248  0.00  0.00    +0.000 A 
ATOM      8  C   UNL     1       2.685   4.094  17.281  0.00  0.00    +0.000 A 
ENDBRANCH   1   2
BRANCH   1   9
ATOM      9  C   UNL     1       5.011   6.125  16.129  0.00  0.00    +0.000 C 
BRANCH   9  10
ATOM     10  C   UNL     1       5.707   7.106  17.086  0.00  0.00    +0.000 C 
BRANCH  10  11
ATOM     11  C   UNL     1       7.223   6.949  17.162  0.00  0.00    +0.000 C 
BRANCH  11  15
ATOM     12  N   UNL     1       8.068   5.449  20.398  0.00  0.00    +0.000 NA
ATOM     13  C   UNL     1       7.896   5.477  19.123  0.00  0.00    +0.000 C 
ATOM     14  N   UNL     1       7.961   4.376  18.356  0.00  0.00    +0.000 N 
ATOM     15  N   UNL     1       7.654   6.653  18.516  0.00  0.00    +0.000 N 
ATOM     16  H   UNL     1       8.238   4.491  20.706  0.00  0.00    +0.000 HD
ATOM     17  H   UNL     1       8.406   3.582  18.799  0.00  0.00    +0.000 HD
ATOM     18  H   UNL     1       8.357   4.547  17.443  0.00  0.00    +0.000 HD
ATOM     19  H   UNL     1       7.530   7.402  19.191  0.00  0.00    +0.000 HD
ENDBRANCH  11  15
ENDBRANCH  10  11
ENDBRANCH   9  10
ENDBRANCH   1   9
BRANCH   1  20
ATOM     20  C   UNL     1       5.814   3.752  15.896  0.00  0.00    +0.000 C 
BRANCH  20  21
ATOM     21  C   UNL     1       6.184   4.103  14.461  0.00  0.00    +0.000 A 
ATOM     22  C   UNL     1       7.313   4.909  14.219  0.00  0.00    +0.000 A 
ATOM     23  C   UNL     1       7.829   5.064  12.928  0.00  0.00    +0.000 A 
ATOM     24  C   UNL     1       7.220   4.421  11.856  0.00  0.00    +0.000 A 
ATOM     25  C   UNL     1       6.068   3.664  12.067  0.00  0.00    +0.000 A 
ATOM     26  C   UNL     1       5.552   3.508  13.360  0.00  0.00    +0.000 A 
ENDBRANCH  20  21
ENDBRANCH   1  20
TORSDOF 7
ENDMDL
MODEL 4
REMARK VINA RESULT:      -7.7      2.208      4.479
REMARK  Name = 
REMARK  7 active torsions:
REMARK  status: ('A' for Active; 'I' for Inactive)
REMARK    1  A    between atoms: N_4  and  C_5
REMARK    2  A    between atoms: C_5  and  C_6
REMARK    3  A    between atoms: C_6  and  C_7
REMARK    4  A    between atoms: C_7  and  N_8
REMARK    5  A    between atoms: N_8  and  C_9
REMARK    6  A    between atoms: N_8  and  C_16
REMARK    7  A    between atoms: C_9  and  C_10
REMARK                            x       y       z     vdW  Elec       q    Type
REMARK                         _______ _______ _______ _____ _____    ______ ____
ROOT
ATOM      1  N   UNL     1       2.875   6.000  19.120  0.00  0.00    +0.000 N 
ENDROOT
BRANCH   1   2
ATOM      2  C   UNL     1       2.316   7.276  19.078  0.00  0.00    +0.000 A 
ATOM      3  C   UNL     1       2.312   8.051  17.903  0.00  0.00    +0.000 A 
ATOM      4  C   UNL     1       1.771   9.345  17.861  0.00  0.00    +0.000 A 
ATOM      5  C   UNL     1       1.207   9.900  19.002  0.00  0.00    +0.000 A 
ATOM      6 CL   UNL     1       0.562  11.494  18.960  0.00  0.00    +0.000 Cl
ATOM      7  C   UNL     1       1.160   9.161  20.172  0.00  0.00    +0.000 A 
ATOM      8  C   UNL     1       1.700   7.866  20.200  0.00  0.00    +0.000 A 
ENDBRANCH   1   2
BRANCH   1   9
ATOM      9  C   UNL     1       2.812   5.167  20.338  0.00  0.00    +0.000 C 
BRANCH   9  10
ATOM     10  C   UNL     1       1.612   4.209  20.407  0.00  0.00    +0.000 C 
BRANCH  10  11
ATOM     11  C   UNL     1       1.982   2.744  20.622  0.00  0.00    +0.000 C 
BRANCH  11  15
ATOM     12  N   UNL     1       4.074   1.581  17.845  0.00  0.00    +0.000 NA
ATOM     13  C   UNL     1       3.810   1.917  19.059  0.00  0.00    +0.000 C 
ATOM     14  N   UNL     1       4.756   2.028  20.006  0.00  0.00    +0.000 N 
ATOM     15  N   UNL     1       2.535   2.158  19.414  0.00  0.00    +0.000 N 
ATOM     16  H   UNL     1       5.078   1.436  17.735  0.00  0.00    +0.000 HD
ATOM     17  H   UNL     1       5.635   1.583  19.774  0.00  0.00    +0.000 HD
ATOM     18  H   UNL     1       4.441   1.746  20.923  0.00  0.00    +0.000 HD
ATOM     19  H   UNL     1       1.914   2.142  18.609  0.00  0.00    +0.000 HD
ENDBRANCH  11  15
ENDBRANCH  10  11
ENDBRANCH   9  10
ENDBRANCH   1   9
BRANCH   1  20
ATOM     20  C   UNL     1       3.679   5.481  17.997  0.00  0.00    +0.000 C 
BRANCH  20  21
ATOM     21  C   UNL     1       5.173   5.771  18.056  0.00  0.00    +0.000 A 
ATOM     22  C   UNL     1       5.717   6.750  17.202  0.00  0.00    +0.000 A 
ATOM     23  C   UNL     1       7.023   7.218  17.378  0.00  0.00    +0.000 A 
ATOM     24  C   UNL     1       7.811   6.711  18.406  0.00  0.00    +0.000 A 
ATOM     25  C   UNL     1       7.309   5.700  19.225  0.00  0.00    +0.000 A 
ATOM     26  C   UNL     1       6.001   5.231  19.050  0.00  0.00    +0.000 A 
ENDBRANCH  20  21
ENDBRANCH   1  20
TORSDOF 7
ENDMDL
MODEL 5
REMARK VINA RESULT:      -7.7      1.753      2.341
REMARK  Name = 
REMARK  7 active torsions:
REMARK  status: ('A' for Active; 'I' for Inactive)
REMARK    1  A    between atoms: N_4  and  C_5
REMARK    2  A    between atoms: C_5  and  C_6
REMARK    3  A    between atoms: C_6  and  C_7
REMARK    4  A    between atoms: C_7  and  N_8
REMARK    5  A    between atoms: N_8  and  C_9
REMARK    6  A    between atoms: N_8  and  C_16
REMARK    7  A    between atoms: C_9  and  C_10
REMARK                            x       y       z     vdW  Elec       q    Type
REMARK                         _______ _______ _______ _____ _____    ______ ____
ROOT
ATOM      1  N   UNL     1       3.313   6.945  18.428  0.00  0.00    +0.000 N 
ENDROOT
BRANCH   1   2
ATOM      2  C   UNL     1       2.348   7.877  18.805  0.00  0.00    +0.000 A 
ATOM      3  C   UNL     1       1.770   8.768  17.882  0.00  0.00    +0.000 A 
ATOM      4  C   UNL     1       0.815   9.724  18.261  0.00  0.00    +0.000 A 
ATOM      5  C   UNL     1       0.404   9.809  19.584  0.00  0.00    +0.000 A 
ATOM      6 CL   UNL     1      -0.750  10.993  20.057  0.00  0.00    +0.000 Cl
ATOM      7  C   UNL     1       0.923   8.930  20.520  0.00  0.00    +0.000 A 
ATOM      8  C   UNL     1       1.874   7.976  20.128  0.00  0.00    +0.000 A 
ENDBRANCH   1   2
BRANCH   1   9
ATOM      9  C   UNL     1       4.033   7.053  17.142  0.00  0.00    +0.000 C 
BRANCH   9  10
ATOM     10  C   UNL     1       5.189   6.056  16.959  0.00  0.00    +0.000 C 
BRANCH  10  11
ATOM     11  C   UNL     1       6.580   6.681  17.013  0.00  0.00    +0.000 C 
BRANCH  11  15
ATOM     12  N   UNL     1       7.970   5.502  20.194  0.00  0.00    +0.000 NA
ATOM     13  C   UNL     1       7.686   5.444  18.940  0.00  0.00    +0.000 C 
ATOM     14  N   UNL     1       7.889   4.342  18.199  0.00  0.00    +0.000 N 
ATOM     15  N   UNL     1       7.175   6.527  18.328  0.00  0.00    +0.000 N 
ATOM     16  H   UNL     1       8.343   4.606  20.509  0.00  0.00    +0.000 HD
ATOM     17  H   UNL     1       8.511   3.663  18.619  0.00  0.00    +0.000 HD
ATOM     18  H   UNL     1       8.165   4.543  17.249  0.00  0.00    +0.000 HD
ATOM     19  H   UNL     1       6.972   7.269  18.993  0.00  0.00    +0.000 HD
ENDBRANCH  11  15
ENDBRANCH  10  11
ENDBRANCH   9  10
ENDBRANCH   1   9
BRANCH   1  20
ATOM     20  C   UNL     1       3.558   5.729  19.229  0.00  0.00    +0.000 C 
BRANCH  20  21
ATOM     21  C   UNL     1       2.531   4.615  19.080  0.00  0.00    +0.000 A 
ATOM     22  C   UNL     1       2.667   3.690  18.026  0.00  0.00    +0.000 A 
ATOM     23  C   UNL     1       1.899   2.522  17.984  0.00  0.00    +0.000 A 
ATOM     24  C   UNL     1       0.975   2.262  18.991  0.00  0.00    +0.000 A 
ATOM     25  C   UNL     1       0.786   3.192  20.011  0.00  0.00    +0.000 A 
ATOM     26  C   UNL     1       1.555   4.362  20.055  0.00  0.00    +0.000 A 
ENDBRANCH  20  21
ENDBRANCH   1  20
TORSDOF 7
ENDMDL
MODEL 6
REMARK VINA RESULT:      -7.6      2.262      4.480
REMARK  Name = 
REMARK  7 active torsions:
REMARK  status: ('A' for Active; 'I' for Inactive)
REMARK    1  A    between atoms: N_4  and  C_5
REMARK    2  A    between atoms: C_5  and  C_6
REMARK    3  A    between atoms: C_6  and  C_7
REMARK    4  A    between atoms: C_7  and  N_8
REMARK    5  A    between atoms: N_8  and  C_9
REMARK    6  A    between atoms: N_8  and  C_16
REMARK    7  A    between atoms: C_9  and  C_10
REMARK                            x       y       z     vdW  Elec       q    Type
REMARK                         _______ _______ _______ _____ _____    ______ ____
ROOT
ATOM      1  N   UNL     1       2.664   6.039  19.133  0.00  0.00    +0.000 N 
ENDROOT
BRANCH   1   2
ATOM      2  C   UNL     1       2.159   7.337  19.091  0.00  0.00    +0.000 A 
ATOM      3  C   UNL     1       2.162   8.100  17.908  0.00  0.00    +0.000 A 
ATOM      4  C   UNL     1       1.676   9.416  17.865  0.00  0.00    +0.000 A 
ATOM      5  C   UNL     1       1.162  10.006  19.011  0.00  0.00    +0.000 A 
ATOM      6 CL   UNL     1       0.585  11.625  18.967  0.00  0.00    +0.000 Cl
ATOM      7  C   UNL     1       1.109   9.279  20.189  0.00  0.00    +0.000 A 
ATOM      8  C   UNL     1       1.594   7.963  20.219  0.00  0.00    +0.000 A 
ENDBRANCH   1   2
BRANCH   1   9
ATOM      9  C   UNL     1       2.408   5.146  20.282  0.00  0.00    +0.000 C 
BRANCH   9  10
ATOM     10  C   UNL     1       1.233   4.171  20.098  0.00  0.00    +0.000 C 
BRANCH  10  11
ATOM     11  C   UNL     1       1.643   2.717  19.886  0.00  0.00    +0.000 C 
BRANCH  11  15
ATOM     12  N   UNL     1       5.171   1.744  20.115  0.00  0.00    +0.000 NA
ATOM     13  C   UNL     1       4.069   2.047  19.522  0.00  0.00    +0.000 C 
ATOM     14  N   UNL     1       3.906   1.940  18.193  0.00  0.00    +0.000 N 
ATOM     15  N   UNL     1       3.033   2.505  20.248  0.00  0.00    +0.000 N 
ATOM     16  H   UNL     1       5.854   1.413  19.434  0.00  0.00    +0.000 HD
ATOM     17  H   UNL     1       4.769   1.860  17.670  0.00  0.00    +0.000 HD
ATOM     18  H   UNL     1       3.314   2.659  17.803  0.00  0.00    +0.000 HD
ATOM     19  H   UNL     1       3.227   2.456  21.244  0.00  0.00    +0.000 HD
ENDBRANCH  11  15
ENDBRANCH  10  11
ENDBRANCH   9  10
ENDBRANCH   1   9
BRANCH   1  20
ATOM     20  C   UNL     1       3.595   5.546  18.100  0.00  0.00    +0.000 C 
BRANCH  20  21
ATOM     21  C   UNL     1       5.046   5.986  18.245  0.00  0.00    +0.000 A 
ATOM     22  C   UNL     1       5.850   5.387  19.235  0.00  0.00    +0.000 A 
ATOM     23  C   UNL     1       7.235   5.580  19.256  0.00  0.00    +0.000 A 
ATOM     24  C   UNL     1       7.840   6.380  18.292  0.00  0.00    +0.000 A 
ATOM     25  C   UNL     1       7.055   7.026  17.339  0.00  0.00    +0.000 A 
ATOM     26  C   UNL     1       5.667   6.833  17.317  0.00  0.00    +0.000 A 
ENDBRANCH  20  21
ENDBRANCH   1  20
TORSDOF 7
ENDMDL
MODEL 7
REMARK VINA RESULT:      -7.5      2.064      4.353
REMARK  Name = 
REMARK  7 active torsions:
REMARK  status: ('A' for Active; 'I' for Inactive)
REMARK    1  A    between atoms: N_4  and  C_5
REMARK    2  A    between atoms: C_5  and  C_6
REMARK    3  A    between atoms: C_6  and  C_7
REMARK    4  A    between atoms: C_7  and  N_8
REMARK    5  A    between atoms: N_8  and  C_9
REMARK    6  A    between atoms: N_8  and  C_16
REMARK    7  A    between atoms: C_9  and  C_10
REMARK                            x       y       z     vdW  Elec       q    Type
REMARK                         _______ _______ _______ _____ _____    ______ ____
ROOT
ATOM      1  N   UNL     1       2.856   5.885  19.297  0.00  0.00    +0.000 N 
ENDROOT
BRANCH   1   2
ATOM      2  C   UNL     1       2.343   7.175  19.174  0.00  0.00    +0.000 A 
ATOM      3  C   UNL     1       1.721   7.836  20.249  0.00  0.00    +0.000 A 
ATOM      4  C   UNL     1       1.182   9.126  20.125  0.00  0.00    +0.000 A 
ATOM      5  C   UNL     1       1.260   9.798  18.913  0.00  0.00    +0.000 A 
ATOM      6 CL   UNL     1       0.582  11.370  18.750  0.00  0.00    +0.000 Cl
ATOM      7  C   UNL     1       1.893   9.198  17.837  0.00  0.00    +0.000 A 
ATOM      8  C   UNL     1       2.431   7.910  17.975  0.00  0.00    +0.000 A 
ENDBRANCH   1   2
BRANCH   1   9
ATOM      9  C   UNL     1       1.970   4.707  19.402  0.00  0.00    +0.000 C 
BRANCH   9  10
ATOM     10  C   UNL     1       1.892   4.077  20.803  0.00  0.00    +0.000 C 
BRANCH  10  11
ATOM     11  C   UNL     1       2.114   2.568  20.832  0.00  0.00    +0.000 C 
BRANCH  11  15
ATOM     12  N   UNL     1       4.100   1.671  17.884  0.00  0.00    +0.000 NA
ATOM     13  C   UNL     1       3.886   1.915  19.130  0.00  0.00    +0.000 C 
ATOM     14  N   UNL     1       4.875   1.994  20.036  0.00  0.00    +0.000 N 
ATOM     15  N   UNL     1       2.624   2.086  19.562  0.00  0.00    +0.000 N 
ATOM     16  H   UNL     1       5.101   1.570  17.716  0.00  0.00    +0.000 HD
ATOM     17  H   UNL     1       5.755   1.597  19.732  0.00  0.00    +0.000 HD
ATOM     18  H   UNL     1       4.616   1.639  20.945  0.00  0.00    +0.000 HD
ATOM     19  H   UNL     1       1.965   2.102  18.788  0.00  0.00    +0.000 HD
ENDBRANCH  11  15
ENDBRANCH  10  11
ENDBRANCH   9  10
ENDBRANCH   1   9
BRANCH   1  20
ATOM     20  C   UNL     1       4.302   5.650  19.470  0.00  0.00    +0.000 C 
BRANCH  20  21
ATOM     21  C   UNL     1       5.085   5.342  18.200  0.00  0.00    +0.000 A 
ATOM     22  C   UNL     1       6.474   5.125  18.284  0.00  0.00    +0.000 A 
ATOM     23  C   UNL     1       7.194   4.611  17.201  0.00  0.00    +0.000 A 
ATOM     24  C   UNL     1       6.538   4.313  16.011  0.00  0.00    +0.000 A 
ATOM     25  C   UNL     1       5.174   4.574  15.889  0.00  0.00    +0.000 A 
ATOM     26  C   UNL     1       4.453   5.088  16.975  0.00  0.00    +0.000 A 
ENDBRANCH  20  21
ENDBRANCH   1  20
TORSDOF 7
ENDMDL
MODEL 8
REMARK VINA RESULT:      -7.4      3.213      5.829
REMARK  Name = 
REMARK  7 active torsions:
REMARK  status: ('A' for Active; 'I' for Inactive)
REMARK    1  A    between atoms: N_4  and  C_5
REMARK    2  A    between atoms: C_5  and  C_6
REMARK    3  A    between atoms: C_6  and  C_7
REMARK    4  A    between atoms: C_7  and  N_8
REMARK    5  A    between atoms: N_8  and  C_9
REMARK    6  A    between atoms: N_8  and  C_16
REMARK    7  A    between atoms: C_9  and  C_10
REMARK                            x       y       z     vdW  Elec       q    Type
REMARK                         _______ _______ _______ _____ _____    ______ ____
ROOT
ATOM      1  N   UNL     1       2.910   5.441  18.481  0.00  0.00    +0.000 N 
ENDROOT
BRANCH   1   2
ATOM      2  C   UNL     1       3.885   5.332  17.490  0.00  0.00    +0.000 A 
ATOM      3  C   UNL     1       4.123   4.124  16.808  0.00  0.00    +0.000 A 
ATOM      4  C   UNL     1       5.119   4.002  15.826  0.00  0.00    +0.000 A 
ATOM      5  C   UNL     1       5.904   5.097  15.493  0.00  0.00    +0.000 A 
ATOM      6 CL   UNL     1       7.139   4.946  14.306  0.00  0.00    +0.000 Cl
ATOM      7  C   UNL     1       5.682   6.314  16.116  0.00  0.00    +0.000 A 
ATOM      8  C   UNL     1       4.681   6.424  17.093  0.00  0.00    +0.000 A 
ENDBRANCH   1   2
BRANCH   1   9
ATOM      9  C   UNL     1       1.680   4.624  18.450  0.00  0.00    +0.000 C 
BRANCH   9  10
ATOM     10  C   UNL     1       1.163   4.177  19.827  0.00  0.00    +0.000 C 
BRANCH  10  11
ATOM     11  C   UNL     1       1.575   2.764  20.231  0.00  0.00    +0.000 C 
BRANCH  11  15
ATOM     12  N   UNL     1       5.094   1.765  19.983  0.00  0.00    +0.000 NA
ATOM     13  C   UNL     1       3.868   1.861  19.603  0.00  0.00    +0.000 C 
ATOM     14  N   UNL     1       3.390   1.226  18.520  0.00  0.00    +0.000 N 
ATOM     15  N   UNL     1       3.020   2.637  20.301  0.00  0.00    +0.000 N 
ATOM     16  H   UNL     1       5.605   1.142  19.357  0.00  0.00    +0.000 HD
ATOM     17  H   UNL     1       4.102   0.886  17.886  0.00  0.00    +0.000 HD
ATOM     18  H   UNL     1       2.688   1.753  18.023  0.00  0.00    +0.000 HD
ATOM     19  H   UNL     1       3.453   2.993  21.149  0.00  0.00    +0.000 HD
ENDBRANCH  11  15
ENDBRANCH  10  11
ENDBRANCH   9  10
ENDBRANCH   1   9
BRANCH   1  20
ATOM     20  C   UNL     1       2.996   6.479  19.526  0.00  0.00    +0.000 C 
BRANCH  20  21
ATOM     21  C   UNL     1       2.059   7.669  19.364  0.00  0.00    +0.000 A 
ATOM     22  C   UNL     1       1.444   8.221  20.504  0.00  0.00    +0.000 A 
ATOM     23  C   UNL     1       0.771   9.445  20.443  0.00  0.00    +0.000 A 
ATOM     24  C   UNL     1       0.696  10.137  19.238  0.00  0.00    +0.000 A 
ATOM     25  C   UNL     1       1.250   9.579  18.086  0.00  0.00    +0.000 A 
ATOM     26  C   UNL     1       1.924   8.353  18.147  0.00  0.00    +0.000 A 
ENDBRANCH  20  21
ENDBRANCH   1  20
TORSDOF 7
ENDMDL
MODEL 9
REMARK VINA RESULT:      -7.4      2.358      5.088
REMARK  Name = 
REMARK  7 active torsions:
REMARK  status: ('A' for Active; 'I' for Inactive)
REMARK    1  A    between atoms: N_4  and  C_5
REMARK    2  A    between atoms: C_5  and  C_6
REMARK    3  A    between atoms: C_6  and  C_7
REMARK    4  A    between atoms: C_7  and  N_8
REMARK    5  A    between atoms: N_8  and  C_9
REMARK    6  A    between atoms: N_8  and  C_16
REMARK    7  A    between atoms: C_9  and  C_10
REMARK                            x       y       z     vdW  Elec       q    Type
REMARK                         _______ _______ _______ _____ _____    ______ ____
ROOT
ATOM      1  N   UNL     1       2.798   5.502  18.571  0.00  0.00    +0.000 N 
ENDROOT
BRANCH   1   2
ATOM      2  C   UNL     1       2.297   6.728  19.006  0.00  0.00    +0.000 A 
ATOM      3  C   UNL     1       1.923   6.949  20.344  0.00  0.00    +0.000 A 
ATOM      4  C   UNL     1       1.396   8.174  20.782  0.00  0.00    +0.000 A 
ATOM      5  C   UNL     1       1.235   9.221  19.887  0.00  0.00    +0.000 A 
ATOM      6 CL   UNL     1       0.570  10.716  20.415  0.00  0.00    +0.000 Cl
ATOM      7  C   UNL     1       1.620   9.058  18.566  0.00  0.00    +0.000 A 
ATOM      8  C   UNL     1       2.150   7.831  18.141  0.00  0.00    +0.000 A 
ENDBRANCH   1   2
BRANCH   1   9
ATOM      9  C   UNL     1       2.010   4.609  17.697  0.00  0.00    +0.000 C 
BRANCH   9  10
ATOM     10  C   UNL     1       2.555   3.177  17.570  0.00  0.00    +0.000 C 
BRANCH  10  11
ATOM     11  C   UNL     1       1.778   2.131  18.364  0.00  0.00    +0.000 C 
BRANCH  11  15
ATOM     12  N   UNL     1       2.572   2.593  21.913  0.00  0.00    +0.000 NA
ATOM     13  C   UNL     1       1.856   2.675  20.847  0.00  0.00    +0.000 C 
ATOM     14  N   UNL     1       0.700   3.358  20.797  0.00  0.00    +0.000 N 
ATOM     15  N   UNL     1       2.260   2.042  19.730  0.00  0.00    +0.000 N 
ATOM     16  H   UNL     1       2.136   3.124  22.667  0.00  0.00    +0.000 HD
ATOM     17  H   UNL     1       0.305   3.580  21.702  0.00  0.00    +0.000 HD
ATOM     18  H   UNL     1       0.009   2.934  20.196  0.00  0.00    +0.000 HD
ATOM     19  H   UNL     1       3.186   1.639  19.846  0.00  0.00    +0.000 HD
ENDBRANCH  11  15
ENDBRANCH  10  11
ENDBRANCH   9  10
ENDBRANCH   1   9
BRANCH   1  20
ATOM     20  C   UNL     1       4.080   4.976  19.080  0.00  0.00    +0.000 C 
BRANCH  20  21
ATOM     21  C   UNL     1       5.327   5.748  18.670  0.00  0.00    +0.000 A 
ATOM     22  C   UNL     1       6.531   5.530  19.368  0.00  0.00    +0.000 A 
ATOM     23  C   UNL     1       7.746   6.028  18.888  0.00  0.00    +0.000 A 
ATOM     24  C   UNL     1       7.779   6.759  17.706  0.00  0.00    +0.000 A 
ATOM     25  C   UNL     1       6.590   7.034  17.031  0.00  0.00    +0.000 A 
ATOM     26  C   UNL     1       5.373   6.534  17.511  0.00  0.00    +0.000 A 
ENDBRANCH  20  21
ENDBRANCH   1  20
TORSDOF 7
ENDMDL
