MODEL 1
REMARK VINA RESULT:      -6.8      0.000      0.000
REMARK  Name = 
REMARK  5 active torsions:
REMARK  status: ('A' for Active; 'I' for Inactive)
REMARK    1  A    between atoms: N_2  and  C_4
REMARK    2  A    between atoms: C_7  and  C_8
REMARK    3  A    between atoms: C_8  and  O_9
REMARK    4  A    between atoms: C_8  and  C_10
REMARK    5  A    between atoms: C_10  and  N_11
REMARK                            x       y       z     vdW  Elec       q    Type
REMARK                         _______ _______ _______ _____ _____    ______ ____
ROOT
ATOM      1  C   UNL     1       5.372   4.431  19.044  0.00  0.00    +0.000 C 
ENDROOT
BRANCH   1   5
ATOM      2  C   UNL     1       6.587   4.615  14.896  0.00  0.00    +0.000 A 
ATOM      3  C   UNL     1       5.249   4.379  15.230  0.00  0.00    +0.000 A 
ATOM      4  C   UNL     1       4.877   4.334  16.576  0.00  0.00    +0.000 A 
ATOM      5  C   UNL     1       5.825   4.532  17.597  0.00  0.00    +0.000 A 
ATOM      6  C   UNL     1       7.163   4.762  17.238  0.00  0.00    +0.000 A 
ATOM      7  C   UNL     1       7.545   4.811  15.895  0.00  0.00    +0.000 A 
BRANCH   2   9
ATOM      8  O   UNL     1       7.822   5.501  13.143  0.00  0.00    +0.000 OA
ATOM      9  N   UNL     1       6.994   4.642  13.488  0.00  0.00    +0.000 N 
ATOM     10  O   UNL     1       6.491   3.806  12.724  0.00  0.00    +0.000 OA
ENDBRANCH   2   9
ENDBRANCH   1   5
BRANCH   1  11
ATOM     11  O   UNL     1       6.334   5.130  19.831  0.00  0.00    +0.000 OA
ATOM     12  H   UNL     1       6.729   5.814  19.266  0.00  0.00    +0.000 HD
ENDBRANCH   1  11
BRANCH   1  13
ATOM     13  C   UNL     1       3.925   4.946  19.302  0.00  0.00    +0.000 C 
BRANCH  13  14
ATOM     14  N   UNL     1       3.064   4.103  20.161  0.00  0.00    +0.000 NA
ATOM     15  C   UNL     1       3.386   2.660  20.091  0.00  0.00    +0.000 C 
ATOM     16  C   UNL     1       3.036   2.027  18.735  0.00  0.00    +0.000 C 
ATOM     17  O   UNL     1       1.646   2.192  18.431  0.00  0.00    +0.000 OA
ATOM     18  C   UNL     1       1.267   3.574  18.450  0.00  0.00    +0.000 C 
ATOM     19  C   UNL     1       1.635   4.253  19.784  0.00  0.00    +0.000 C 
ENDBRANCH  13  14
ENDBRANCH   1  13
TORSDOF 5
ENDMDL
MODEL 2
REMARK VINA RESULT:      -6.8      0.778      1.079
REMARK  Name = 
REMARK  5 active torsions:
REMARK  status: ('A' for Active; 'I' for Inactive)
REMARK    1  A    between atoms: N_2  and  C_4
REMARK    2  A    between atoms: C_7  and  C_8
REMARK    3  A    between atoms: C_8  and  O_9
REMARK    4  A    between atoms: C_8  and  C_10
REMARK    5  A    between atoms: C_10  and  N_11
REMARK                            x       y       z     vdW  Elec       q    Type
REMARK                         _______ _______ _______ _____ _____    ______ ____
ROOT
ATOM      1  C   UNL     1       5.395   4.256  18.989  0.00  0.00    +0.000 C 
ENDROOT
BRANCH   1   5
ATOM      2  C   UNL     1       6.631   4.595  14.857  0.00  0.00    +0.000 A 
ATOM      3  C   UNL     1       5.317   4.233  15.174  0.00  0.00    +0.000 A 
ATOM      4  C   UNL     1       4.937   4.140  16.515  0.00  0.00    +0.000 A 
ATOM      5  C   UNL     1       5.852   4.413  17.548  0.00  0.00    +0.000 A 
ATOM      6  C   UNL     1       7.167   4.770  17.207  0.00  0.00    +0.000 A 
ATOM      7  C   UNL     1       7.557   4.868  15.869  0.00  0.00    +0.000 A 
BRANCH   2   9
ATOM      8  O   UNL     1       7.877   5.549  13.147  0.00  0.00    +0.000 OA
ATOM      9  N   UNL     1       7.049   4.675  13.454  0.00  0.00    +0.000 N 
ATOM     10  O   UNL     1       6.554   3.866  12.656  0.00  0.00    +0.000 OA
ENDBRANCH   2   9
ENDBRANCH   1   5
BRANCH   1  11
ATOM     11  O   UNL     1       5.901   5.376  19.711  0.00  0.00    +0.000 OA
ATOM     12  H   UNL     1       5.477   6.170  19.347  0.00  0.00    +0.000 HD
ENDBRANCH   1  11
BRANCH   1  13
ATOM     13  C   UNL     1       3.856   4.100  19.162  0.00  0.00    +0.000 C 
BRANCH  13  14
ATOM     14  N   UNL     1       3.383   2.864  19.825  0.00  0.00    +0.000 NA
ATOM     15  C   UNL     1       2.581   1.987  18.944  0.00  0.00    +0.000 C 
ATOM     16  C   UNL     1       1.211   2.582  18.580  0.00  0.00    +0.000 C 
ATOM     17  O   UNL     1       0.442   2.862  19.756  0.00  0.00    +0.000 OA
ATOM     18  C   UNL     1       1.147   3.736  20.647  0.00  0.00    +0.000 C 
ATOM     19  C   UNL     1       2.543   3.188  21.006  0.00  0.00    +0.000 C 
ENDBRANCH  13  14
ENDBRANCH   1  13
TORSDOF 5
ENDMDL
MODEL 3
REMARK VINA RESULT:      -6.7      0.110      1.358
REMARK  Name = 
REMARK  5 active torsions:
REMARK  status: ('A' for Active; 'I' for Inactive)
REMARK    1  A    between atoms: N_2  and  C_4
REMARK    2  A    between atoms: C_7  and  C_8
REMARK    3  A    between atoms: C_8  and  O_9
REMARK    4  A    between atoms: C_8  and  C_10
REMARK    5  A    between atoms: C_10  and  N_11
REMARK                            x       y       z     vdW  Elec       q    Type
REMARK                         _______ _______ _______ _____ _____    ______ ____
ROOT
ATOM      1  C   UNL     1       5.387   4.387  19.069  0.00  0.00    +0.000 C 
ENDROOT
BRANCH   1   5
ATOM      2  C   UNL     1       6.634   4.583  14.932  0.00  0.00    +0.000 A 
ATOM      3  C   UNL     1       7.537   4.889  15.957  0.00  0.00    +0.000 A 
ATOM      4  C   UNL     1       7.116   4.808  17.286  0.00  0.00    +0.000 A 
ATOM      5  C   UNL     1       5.803   4.417  17.609  0.00  0.00    +0.000 A 
ATOM      6  C   UNL     1       4.913   4.120  16.563  0.00  0.00    +0.000 A 
ATOM      7  C   UNL     1       5.325   4.195  15.230  0.00  0.00    +0.000 A 
BRANCH   2   9
ATOM      8  O   UNL     1       6.550   3.897  12.716  0.00  0.00    +0.000 OA
ATOM      9  N   UNL     1       7.057   4.685  13.532  0.00  0.00    +0.000 N 
ATOM     10  O   UNL     1       7.894   5.552  13.241  0.00  0.00    +0.000 OA
ENDBRANCH   2   9
ENDBRANCH   1   5
BRANCH   1  11
ATOM     11  O   UNL     1       6.383   5.099  19.801  0.00  0.00    +0.000 OA
ATOM     12  H   UNL     1       5.935   5.547  20.537  0.00  0.00    +0.000 HD
ENDBRANCH   1  11
BRANCH   1  13
ATOM     13  C   UNL     1       3.958   4.940  19.343  0.00  0.00    +0.000 C 
BRANCH  13  14
ATOM     14  N   UNL     1       3.085   4.124  20.216  0.00  0.00    +0.000 NA
ATOM     15  C   UNL     1       3.364   2.673  20.145  0.00  0.00    +0.000 C 
ATOM     16  C   UNL     1       2.977   2.046  18.796  0.00  0.00    +0.000 C 
ATOM     17  O   UNL     1       1.588   2.251  18.512  0.00  0.00    +0.000 OA
ATOM     18  C   UNL     1       1.249   3.643  18.533  0.00  0.00    +0.000 C 
ATOM     19  C   UNL     1       1.656   4.315  19.860  0.00  0.00    +0.000 C 
ENDBRANCH  13  14
ENDBRANCH   1  13
TORSDOF 5
ENDMDL
MODEL 4
REMARK VINA RESULT:      -6.7      1.598      2.048
REMARK  Name = 
REMARK  5 active torsions:
REMARK  status: ('A' for Active; 'I' for Inactive)
REMARK    1  A    between atoms: N_2  and  C_4
REMARK    2  A    between atoms: C_7  and  C_8
REMARK    3  A    between atoms: C_8  and  O_9
REMARK    4  A    between atoms: C_8  and  C_10
REMARK    5  A    between atoms: C_10  and  N_11
REMARK                            x       y       z     vdW  Elec       q    Type
REMARK                         _______ _______ _______ _____ _____    ______ ____
ROOT
ATOM      1  C   UNL     1       3.858   6.175  19.012  0.00  0.00    +0.000 C 
ENDROOT
BRANCH   1   5
ATOM      2  C   UNL     1       6.130   5.169  15.470  0.00  0.00    +0.000 A 
ATOM      3  C   UNL     1       5.342   6.326  15.499  0.00  0.00    +0.000 A 
ATOM      4  C   UNL     1       4.625   6.636  16.657  0.00  0.00    +0.000 A 
ATOM      5  C   UNL     1       4.691   5.810  17.794  0.00  0.00    +0.000 A 
ATOM      6  C   UNL     1       5.484   4.653  17.740  0.00  0.00    +0.000 A 
ATOM      7  C   UNL     1       6.207   4.334  16.588  0.00  0.00    +0.000 A 
BRANCH   2   9
ATOM      8  O   UNL     1       6.455   3.862  13.580  0.00  0.00    +0.000 OA
ATOM      9  N   UNL     1       6.870   4.820  14.254  0.00  0.00    +0.000 N 
ATOM     10  O   UNL     1       7.865   5.501  13.965  0.00  0.00    +0.000 OA
ENDBRANCH   2   9
ENDBRANCH   1   5
BRANCH   1  11
ATOM     11  O   UNL     1       2.898   7.139  18.587  0.00  0.00    +0.000 OA
ATOM     12  H   UNL     1       3.363   7.986  18.487  0.00  0.00    +0.000 HD
ENDBRANCH   1  11
BRANCH   1  13
ATOM     13  C   UNL     1       3.188   4.960  19.720  0.00  0.00    +0.000 C 
BRANCH  13  14
ATOM     14  N   UNL     1       1.780   4.678  19.363  0.00  0.00    +0.000 NA
ATOM     15  C   UNL     1       1.043   3.928  20.405  0.00  0.00    +0.000 C 
ATOM     16  C   UNL     1       1.528   2.478  20.566  0.00  0.00    +0.000 C 
ATOM     17  O   UNL     1       1.418   1.758  19.333  0.00  0.00    +0.000 OA
ATOM     18  C   UNL     1       2.137   2.412  18.279  0.00  0.00    +0.000 C 
ATOM     19  C   UNL     1       1.702   3.882  18.112  0.00  0.00    +0.000 C 
ENDBRANCH  13  14
ENDBRANCH   1  13
TORSDOF 5
ENDMDL
MODEL 5
REMARK VINA RESULT:      -6.7      0.971      1.975
REMARK  Name = 
REMARK  5 active torsions:
REMARK  status: ('A' for Active; 'I' for Inactive)
REMARK    1  A    between atoms: N_2  and  C_4
REMARK    2  A    between atoms: C_7  and  C_8
REMARK    3  A    between atoms: C_8  and  O_9
REMARK    4  A    between atoms: C_8  and  C_10
REMARK    5  A    between atoms: C_10  and  N_11
REMARK                            x       y       z     vdW  Elec       q    Type
REMARK                         _______ _______ _______ _____ _____    ______ ____
ROOT
ATOM      1  C   UNL     1       5.154   4.409  18.919  0.00  0.00    +0.000 C 
ENDROOT
BRANCH   1   5
ATOM      2  C   UNL     1       6.758   4.728  14.915  0.00  0.00    +0.000 A 
ATOM      3  C   UNL     1       7.501   5.182  16.011  0.00  0.00    +0.000 A 
ATOM      4  C   UNL     1       6.968   5.058  17.296  0.00  0.00    +0.000 A 
ATOM      5  C   UNL     1       5.702   4.479  17.504  0.00  0.00    +0.000 A 
ATOM      6  C   UNL     1       4.973   4.036  16.389  0.00  0.00    +0.000 A 
ATOM      7  C   UNL     1       5.498   4.152  15.099  0.00  0.00    +0.000 A 
BRANCH   2   9
ATOM      8  O   UNL     1       8.233   5.670  13.390  0.00  0.00    +0.000 OA
ATOM      9  N   UNL     1       7.297   4.872  13.559  0.00  0.00    +0.000 N 
ATOM     10  O   UNL     1       6.789   4.187  12.658  0.00  0.00    +0.000 OA
ENDBRANCH   2   9
ENDBRANCH   1   5
BRANCH   1  11
ATOM     11  O   UNL     1       5.862   5.378  19.689  0.00  0.00    +0.000 OA
ATOM     12  H   UNL     1       5.424   5.436  20.554  0.00  0.00    +0.000 HD
ENDBRANCH   1  11
BRANCH   1  13
ATOM     13  C   UNL     1       3.612   4.597  19.022  0.00  0.00    +0.000 C 
BRANCH  13  14
ATOM     14  N   UNL     1       2.781   3.383  18.860  0.00  0.00    +0.000 NA
ATOM     15  C   UNL     1       1.327   3.644  18.945  0.00  0.00    +0.000 C 
ATOM     16  C   UNL     1       0.864   4.044  20.355  0.00  0.00    +0.000 C 
ATOM     17  O   UNL     1       1.196   3.033  21.313  0.00  0.00    +0.000 OA
ATOM     18  C   UNL     1       2.600   2.749  21.310  0.00  0.00    +0.000 C 
ATOM     19  C   UNL     1       3.109   2.377  19.902  0.00  0.00    +0.000 C 
ENDBRANCH  13  14
ENDBRANCH   1  13
TORSDOF 5
ENDMDL
MODEL 6
REMARK VINA RESULT:      -6.6      0.944      1.197
REMARK  Name = 
REMARK  5 active torsions:
REMARK  status: ('A' for Active; 'I' for Inactive)
REMARK    1  A    between atoms: N_2  and  C_4
REMARK    2  A    between atoms: C_7  and  C_8
REMARK    3  A    between atoms: C_8  and  O_9
REMARK    4  A    between atoms: C_8  and  C_10
REMARK    5  A    between atoms: C_10  and  N_11
REMARK                            x       y       z     vdW  Elec       q    Type
REMARK                         _______ _______ _______ _____ _____    ______ ____
ROOT
ATOM      1  C   UNL     1       5.317   4.238  19.075  0.00  0.00    +0.000 C 
ENDROOT
BRANCH   1   5
ATOM      2  C   UNL     1       6.579   4.568  14.951  0.00  0.00    +0.000 A 
ATOM      3  C   UNL     1       5.273   4.174  15.260  0.00  0.00    +0.000 A 
ATOM      4  C   UNL     1       4.883   4.084  16.598  0.00  0.00    +0.000 A 
ATOM      5  C   UNL     1       5.782   4.393  17.637  0.00  0.00    +0.000 A 
ATOM      6  C   UNL     1       7.089   4.782  17.303  0.00  0.00    +0.000 A 
ATOM      7  C   UNL     1       7.488   4.877  15.967  0.00  0.00    +0.000 A 
BRANCH   2   9
ATOM      8  O   UNL     1       7.826   5.527  13.244  0.00  0.00    +0.000 OA
ATOM      9  N   UNL     1       7.007   4.645  13.551  0.00  0.00    +0.000 N 
ATOM     10  O   UNL     1       6.529   3.825  12.753  0.00  0.00    +0.000 OA
ENDBRANCH   2   9
ENDBRANCH   1   5
BRANCH   1  11
ATOM     11  O   UNL     1       5.330   5.538  19.659  0.00  0.00    +0.000 OA
ATOM     12  H   UNL     1       4.763   6.107  19.113  0.00  0.00    +0.000 HD
ENDBRANCH   1  11
BRANCH   1  13
ATOM     13  C   UNL     1       3.932   3.544  19.232  0.00  0.00    +0.000 C 
BRANCH  13  14
ATOM     14  N   UNL     1       2.762   4.430  19.426  0.00  0.00    +0.000 NA
ATOM     15  C   UNL     1       2.214   4.398  20.800  0.00  0.00    +0.000 C 
ATOM     16  C   UNL     1       1.542   3.062  21.154  0.00  0.00    +0.000 C 
ATOM     17  O   UNL     1       0.481   2.761  20.240  0.00  0.00    +0.000 OA
ATOM     18  C   UNL     1       0.946   2.744  18.885  0.00  0.00    +0.000 C 
ATOM     19  C   UNL     1       1.659   4.057  18.504  0.00  0.00    +0.000 C 
ENDBRANCH  13  14
ENDBRANCH   1  13
TORSDOF 5
ENDMDL
MODEL 7
REMARK VINA RESULT:      -6.6      1.617      2.006
REMARK  Name = 
REMARK  5 active torsions:
REMARK  status: ('A' for Active; 'I' for Inactive)
REMARK    1  A    between atoms: N_2  and  C_4
REMARK    2  A    between atoms: C_7  and  C_8
REMARK    3  A    between atoms: C_8  and  O_9
REMARK    4  A    between atoms: C_8  and  C_10
REMARK    5  A    between atoms: C_10  and  N_11
REMARK                            x       y       z     vdW  Elec       q    Type
REMARK                         _______ _______ _______ _____ _____    ______ ____
ROOT
ATOM      1  C   UNL     1       3.815   6.159  19.000  0.00  0.00    +0.000 C 
ENDROOT
BRANCH   1   5
ATOM      2  C   UNL     1       6.044   5.140  15.436  0.00  0.00    +0.000 A 
ATOM      3  C   UNL     1       6.018   4.264  16.528  0.00  0.00    +0.000 A 
ATOM      4  C   UNL     1       5.283   4.608  17.664  0.00  0.00    +0.000 A 
ATOM      5  C   UNL     1       4.563   5.816  17.724  0.00  0.00    +0.000 A 
ATOM      6  C   UNL     1       4.608   6.682  16.619  0.00  0.00    +0.000 A 
ATOM      7  C   UNL     1       5.339   6.346  15.476  0.00  0.00    +0.000 A 
BRANCH   2   9
ATOM      8  O   UNL     1       7.870   5.447  14.036  0.00  0.00    +0.000 OA
ATOM      9  N   UNL     1       6.830   4.800  14.246  0.00  0.00    +0.000 N 
ATOM     10  O   UNL     1       6.414   3.887  13.519  0.00  0.00    +0.000 OA
ENDBRANCH   2   9
ENDBRANCH   1   5
BRANCH   1  11
ATOM     11  O   UNL     1       2.849   7.152  18.664  0.00  0.00    +0.000 OA
ATOM     12  H   UNL     1       2.925   7.864  19.321  0.00  0.00    +0.000 HD
ENDBRANCH   1  11
BRANCH   1  13
ATOM     13  C   UNL     1       3.166   4.935  19.713  0.00  0.00    +0.000 C 
BRANCH  13  14
ATOM     14  N   UNL     1       1.743   4.666  19.407  0.00  0.00    +0.000 NA
ATOM     15  C   UNL     1       1.056   3.860  20.441  0.00  0.00    +0.000 C 
ATOM     16  C   UNL     1       1.550   2.405  20.502  0.00  0.00    +0.000 C 
ATOM     17  O   UNL     1       1.385   1.751  19.239  0.00  0.00    +0.000 OA
ATOM     18  C   UNL     1       2.053   2.462  18.190  0.00  0.00    +0.000 C 
ATOM     19  C   UNL     1       1.608   3.937  18.120  0.00  0.00    +0.000 C 
ENDBRANCH  13  14
ENDBRANCH   1  13
TORSDOF 5
ENDMDL
MODEL 8
REMARK VINA RESULT:      -6.6      1.464      2.031
REMARK  Name = 
REMARK  5 active torsions:
REMARK  status: ('A' for Active; 'I' for Inactive)
REMARK    1  A    between atoms: N_2  and  C_4
REMARK    2  A    between atoms: C_7  and  C_8
REMARK    3  A    between atoms: C_8  and  O_9
REMARK    4  A    between atoms: C_8  and  C_10
REMARK    5  A    between atoms: C_10  and  N_11
REMARK                            x       y       z     vdW  Elec       q    Type
REMARK                         _______ _______ _______ _____ _____    ______ ____
ROOT
ATOM      1  C   UNL     1       4.750   3.958  18.308  0.00  0.00    +0.000 C 
ENDROOT
BRANCH   1   5
ATOM      2  C   UNL     1       6.844   4.800  14.618  0.00  0.00    +0.000 A 
ATOM      3  C   UNL     1       5.499   4.413  14.594  0.00  0.00    +0.000 A 
ATOM      4  C   UNL     1       4.840   4.156  15.799  0.00  0.00    +0.000 A 
ATOM      5  C   UNL     1       5.504   4.290  17.032  0.00  0.00    +0.000 A 
ATOM      6  C   UNL     1       6.855   4.675  17.031  0.00  0.00    +0.000 A 
ATOM      7  C   UNL     1       7.523   4.936  15.831  0.00  0.00    +0.000 A 
BRANCH   2   9
ATOM      8  O   UNL     1       7.166   4.444  12.347  0.00  0.00    +0.000 OA
ATOM      9  N   UNL     1       7.553   5.051  13.360  0.00  0.00    +0.000 N 
ATOM     10  O   UNL     1       8.497   5.855  13.377  0.00  0.00    +0.000 OA
ENDBRANCH   2   9
ENDBRANCH   1   5
BRANCH   1  11
ATOM     11  O   UNL     1       5.621   3.168  19.114  0.00  0.00    +0.000 OA
ATOM     12  H   UNL     1       5.109   2.864  19.881  0.00  0.00    +0.000 HD
ENDBRANCH   1  11
BRANCH   1  13
ATOM     13  C   UNL     1       4.212   5.200  19.079  0.00  0.00    +0.000 C 
BRANCH  13  14
ATOM     14  N   UNL     1       2.907   5.741  18.639  0.00  0.00    +0.000 NA
ATOM     15  C   UNL     1       2.201   6.513  19.686  0.00  0.00    +0.000 C 
ATOM     16  C   UNL     1       1.701   5.641  20.849  0.00  0.00    +0.000 C 
ATOM     17  O   UNL     1       0.822   4.612  20.382  0.00  0.00    +0.000 OA
ATOM     18  C   UNL     1       1.451   3.800  19.382  0.00  0.00    +0.000 C 
ATOM     19  C   UNL     1       1.998   4.645  18.214  0.00  0.00    +0.000 C 
ENDBRANCH  13  14
ENDBRANCH   1  13
TORSDOF 5
ENDMDL
MODEL 9
REMARK VINA RESULT:      -6.6      0.970      1.652
REMARK  Name = 
REMARK  5 active torsions:
REMARK  status: ('A' for Active; 'I' for Inactive)
REMARK    1  A    between atoms: N_2  and  C_4
REMARK    2  A    between atoms: C_7  and  C_8
REMARK    3  A    between atoms: C_8  and  O_9
REMARK    4  A    between atoms: C_8  and  C_10
REMARK    5  A    between atoms: C_10  and  N_11
REMARK                            x       y       z     vdW  Elec       q    Type
REMARK                         _______ _______ _______ _____ _____    ______ ____
ROOT
ATOM      1  C   UNL     1       5.376   4.307  18.994  0.00  0.00    +0.000 C 
ENDROOT
BRANCH   1   5
ATOM      2  C   UNL     1       6.636   4.561  14.864  0.00  0.00    +0.000 A 
ATOM      3  C   UNL     1       7.515   4.916  15.894  0.00  0.00    +0.000 A 
ATOM      4  C   UNL     1       7.090   4.816  17.221  0.00  0.00    +0.000 A 
ATOM      5  C   UNL     1       5.798   4.356  17.536  0.00  0.00    +0.000 A 
ATOM      6  C   UNL     1       4.932   4.010  16.486  0.00  0.00    +0.000 A 
ATOM      7  C   UNL     1       5.348   4.105  15.155  0.00  0.00    +0.000 A 
BRANCH   2   9
ATOM      8  O   UNL     1       7.871   5.581  13.185  0.00  0.00    +0.000 OA
ATOM      9  N   UNL     1       7.062   4.682  13.467  0.00  0.00    +0.000 N 
ATOM     10  O   UNL     1       6.592   3.880  12.646  0.00  0.00    +0.000 OA
ENDBRANCH   2   9
ENDBRANCH   1   5
BRANCH   1  11
ATOM     11  O   UNL     1       5.406   5.645  19.483  0.00  0.00    +0.000 OA
ATOM     12  H   UNL     1       4.486   5.929  19.609  0.00  0.00    +0.000 HD
ENDBRANCH   1  11
BRANCH   1  13
ATOM     13  C   UNL     1       3.995   3.629  19.241  0.00  0.00    +0.000 C 
BRANCH  13  14
ATOM     14  N   UNL     1       2.836   4.531  19.423  0.00  0.00    +0.000 NA
ATOM     15  C   UNL     1       2.280   4.513  20.795  0.00  0.00    +0.000 C 
ATOM     16  C   UNL     1       1.590   3.187  21.153  0.00  0.00    +0.000 C 
ATOM     17  O   UNL     1       0.530   2.893  20.236  0.00  0.00    +0.000 OA
ATOM     18  C   UNL     1       1.002   2.863  18.883  0.00  0.00    +0.000 C 
ATOM     19  C   UNL     1       1.733   4.165  18.498  0.00  0.00    +0.000 C 
ENDBRANCH  13  14
ENDBRANCH   1  13
TORSDOF 5
ENDMDL
