MODEL 1
REMARK VINA RESULT:      -7.1      0.000      0.000
REMARK  Name = 
REMARK  3 active torsions:
REMARK  status: ('A' for Active; 'I' for Inactive)
REMARK    1  A    between atoms: C_2  and  C_3
REMARK    2  A    between atoms: C_8  and  C_9
REMARK    3  A    between atoms: N_11  and  C_12
REMARK                            x       y       z     vdW  Elec       q    Type
REMARK                         _______ _______ _______ _____ _____    ______ ____
ROOT
ATOM      1  C   UNL     1       3.954   3.759  17.304  0.00  0.00    +0.000 C 
ATOM      2  O   UNL     1       2.961   3.331  16.724  0.00  0.00    +0.000 OA
ATOM      3  N   UNL     1       4.103   3.920  18.669  0.00  0.00    +0.000 N 
ATOM      4  H   UNL     1       4.898   4.448  19.019  0.00  0.00    +0.000 HD
ENDROOT
BRANCH   1  10
ATOM      5  C   UNL     1       6.312   4.291  14.368  0.00  0.00    +0.000 A 
ATOM      6  C   UNL     1       7.157   5.265  14.907  0.00  0.00    +0.000 A 
ATOM      7  C   UNL     1       6.941   5.718  16.201  0.00  0.00    +0.000 A 
ATOM      8  F   UNL     1       7.742   6.659  16.715  0.00  0.00    +0.000 F 
ATOM      9  C   UNL     1       5.906   5.210  16.970  0.00  0.00    +0.000 A 
ATOM     10  C   UNL     1       5.067   4.220  16.442  0.00  0.00    +0.000 A 
ATOM     11  C   UNL     1       5.258   3.763  15.132  0.00  0.00    +0.000 A 
BRANCH   5  13
ATOM     12  N   UNL     1       6.690   3.467  11.939  0.00  0.00    +0.000 NA
ATOM     13  C   UNL     1       6.527   3.836  13.024  0.00  0.00    +0.000 C 
ENDBRANCH   5  13
ENDBRANCH   1  10
BRANCH   3  14
ATOM     14  C   UNL     1       3.112   3.608  19.643  0.00  0.00    +0.000 A 
ATOM     15  C   UNL     1       1.877   4.266  19.690  0.00  0.00    +0.000 A 
ATOM     16  C   UNL     1       0.936   3.973  20.680  0.00  0.00    +0.000 A 
ATOM     17  C   UNL     1       1.207   3.002  21.635  0.00  0.00    +0.000 A 
ATOM     18  C   UNL     1       2.420   2.316  21.597  0.00  0.00    +0.000 A 
ATOM     19  C   UNL     1       3.365   2.615  20.606  0.00  0.00    +0.000 A 
ATOM     20 CL   UNL     1       4.868   1.755  20.628  0.00  0.00    +0.000 Cl
ENDBRANCH   3  14
TORSDOF 3
ENDMDL
MODEL 2
REMARK VINA RESULT:      -7.0      1.347      1.697
REMARK  Name = 
REMARK  3 active torsions:
REMARK  status: ('A' for Active; 'I' for Inactive)
REMARK    1  A    between atoms: C_2  and  C_3
REMARK    2  A    between atoms: C_8  and  C_9
REMARK    3  A    between atoms: N_11  and  C_12
REMARK                            x       y       z     vdW  Elec       q    Type
REMARK                         _______ _______ _______ _____ _____    ______ ____
ROOT
ATOM      1  C   UNL     1       4.421   3.328  17.563  0.00  0.00    +0.000 C 
ATOM      2  O   UNL     1       4.013   2.214  17.249  0.00  0.00    +0.000 OA
ATOM      3  N   UNL     1       4.013   4.076  18.651  0.00  0.00    +0.000 N 
ATOM      4  H   UNL     1       4.289   5.052  18.709  0.00  0.00    +0.000 HD
ENDROOT
BRANCH   1  10
ATOM      5  C   UNL     1       6.426   4.259  14.467  0.00  0.00    +0.000 A 
ATOM      6  C   UNL     1       7.190   5.310  14.980  0.00  0.00    +0.000 A 
ATOM      7  C   UNL     1       7.038   5.684  16.308  0.00  0.00    +0.000 A 
ATOM      8  F   UNL     1       7.761   6.699  16.797  0.00  0.00    +0.000 F 
ATOM      9  C   UNL     1       6.145   5.022  17.136  0.00  0.00    +0.000 A 
ATOM     10  C   UNL     1       5.389   3.955  16.633  0.00  0.00    +0.000 A 
ATOM     11  C   UNL     1       5.516   3.576  15.291  0.00  0.00    +0.000 A 
BRANCH   5  13
ATOM     12  N   UNL     1       6.683   3.578  11.979  0.00  0.00    +0.000 NA
ATOM     13  C   UNL     1       6.573   3.885  13.090  0.00  0.00    +0.000 C 
ENDBRANCH   5  13
ENDBRANCH   1  10
BRANCH   3  14
ATOM     14  C   UNL     1       3.037   3.669  19.605  0.00  0.00    +0.000 A 
ATOM     15  C   UNL     1       3.388   3.138  20.852  0.00  0.00    +0.000 A 
ATOM     16  C   UNL     1       2.414   2.705  21.756  0.00  0.00    +0.000 A 
ATOM     17  C   UNL     1       1.067   2.812  21.435  0.00  0.00    +0.000 A 
ATOM     18  C   UNL     1       0.691   3.359  20.209  0.00  0.00    +0.000 A 
ATOM     19  C   UNL     1       1.669   3.786  19.301  0.00  0.00    +0.000 A 
ATOM     20 CL   UNL     1       1.144   4.426  17.780  0.00  0.00    +0.000 Cl
ENDBRANCH   3  14
TORSDOF 3
ENDMDL
MODEL 3
REMARK VINA RESULT:      -7.0      5.165      7.903
REMARK  Name = 
REMARK  3 active torsions:
REMARK  status: ('A' for Active; 'I' for Inactive)
REMARK    1  A    between atoms: C_2  and  C_3
REMARK    2  A    between atoms: C_8  and  C_9
REMARK    3  A    between atoms: N_11  and  C_12
REMARK                            x       y       z     vdW  Elec       q    Type
REMARK                         _______ _______ _______ _____ _____    ______ ____
ROOT
ATOM      1  C   UNL     1       2.333   8.103  18.209  0.00  0.00    +0.000 C 
ATOM      2  O   UNL     1       2.653   8.567  17.119  0.00  0.00    +0.000 OA
ATOM      3  N   UNL     1       2.734   6.889  18.735  0.00  0.00    +0.000 N 
ATOM      4  H   UNL     1       2.266   6.532  19.563  0.00  0.00    +0.000 HD
ENDROOT
BRANCH   1  10
ATOM      5  C   UNL     1       0.373   9.677  21.063  0.00  0.00    +0.000 A 
ATOM      6  C   UNL     1      -0.468  10.527  20.341  0.00  0.00    +0.000 A 
ATOM      7  C   UNL     1      -0.380  10.564  18.956  0.00  0.00    +0.000 A 
ATOM      8  F   UNL     1      -1.176  11.387  18.263  0.00  0.00    +0.000 F 
ATOM      9  C   UNL     1       0.525   9.762  18.279  0.00  0.00    +0.000 A 
ATOM     10  C   UNL     1       1.359   8.894  18.996  0.00  0.00    +0.000 A 
ATOM     11  C   UNL     1       1.296   8.856  20.394  0.00  0.00    +0.000 A 
BRANCH   5  13
ATOM     12  N   UNL     1       0.232   9.641  23.651  0.00  0.00    +0.000 NA
ATOM     13  C   UNL     1       0.291   9.653  22.495  0.00  0.00    +0.000 C 
ENDBRANCH   5  13
ENDBRANCH   1  10
BRANCH   3  14
ATOM     14  C   UNL     1       3.602   5.963  18.088  0.00  0.00    +0.000 A 
ATOM     15  C   UNL     1       4.964   6.225  17.895  0.00  0.00    +0.000 A 
ATOM     16  C   UNL     1       5.788   5.322  17.220  0.00  0.00    +0.000 A 
ATOM     17  C   UNL     1       5.267   4.127  16.739  0.00  0.00    +0.000 A 
ATOM     18  C   UNL     1       3.919   3.832  16.938  0.00  0.00    +0.000 A 
ATOM     19  C   UNL     1       3.093   4.743  17.610  0.00  0.00    +0.000 A 
ATOM     20 CL   UNL     1       1.420   4.338  17.799  0.00  0.00    +0.000 Cl
ENDBRANCH   3  14
TORSDOF 3
ENDMDL
MODEL 4
REMARK VINA RESULT:      -6.9      4.613      5.808
REMARK  Name = 
REMARK  3 active torsions:
REMARK  status: ('A' for Active; 'I' for Inactive)
REMARK    1  A    between atoms: C_2  and  C_3
REMARK    2  A    between atoms: C_8  and  C_9
REMARK    3  A    between atoms: N_11  and  C_12
REMARK                            x       y       z     vdW  Elec       q    Type
REMARK                         _______ _______ _______ _____ _____    ______ ____
ROOT
ATOM      1  C   UNL     1       2.107   6.308  19.984  0.00  0.00    +0.000 C 
ATOM      2  O   UNL     1       1.403   5.693  20.779  0.00  0.00    +0.000 OA
ATOM      3  N   UNL     1       2.128   7.677  19.793  0.00  0.00    +0.000 N 
ATOM      4  H   UNL     1       2.619   8.054  18.988  0.00  0.00    +0.000 HD
ENDROOT
BRANCH   1  10
ATOM      5  C   UNL     1       5.088   4.674  18.278  0.00  0.00    +0.000 A 
ATOM      6  C   UNL     1       4.425   3.796  17.418  0.00  0.00    +0.000 A 
ATOM      7  C   UNL     1       3.037   3.760  17.412  0.00  0.00    +0.000 A 
ATOM      8  F   UNL     1       2.400   2.910  16.597  0.00  0.00    +0.000 F 
ATOM      9  C   UNL     1       2.300   4.590  18.241  0.00  0.00    +0.000 A 
ATOM     10  C   UNL     1       2.959   5.486  19.093  0.00  0.00    +0.000 A 
ATOM     11  C   UNL     1       4.358   5.524  19.126  0.00  0.00    +0.000 A 
BRANCH   5  13
ATOM     12  N   UNL     1       7.680   4.724  18.314  0.00  0.00    +0.000 NA
ATOM     13  C   UNL     1       6.523   4.697  18.295  0.00  0.00    +0.000 C 
ENDBRANCH   5  13
ENDBRANCH   1  10
BRANCH   3  14
ATOM     14  C   UNL     1       1.322   8.615  20.501  0.00  0.00    +0.000 A 
ATOM     15  C   UNL     1       1.224   8.611  21.898  0.00  0.00    +0.000 A 
ATOM     16  C   UNL     1       0.395   9.512  22.569  0.00  0.00    +0.000 A 
ATOM     17  C   UNL     1      -0.342  10.449  21.854  0.00  0.00    +0.000 A 
ATOM     18  C   UNL     1      -0.244  10.488  20.464  0.00  0.00    +0.000 A 
ATOM     19  C   UNL     1       0.584   9.579  19.793  0.00  0.00    +0.000 A 
ATOM     20 CL   UNL     1       0.639   9.653  18.063  0.00  0.00    +0.000 Cl
ENDBRANCH   3  14
TORSDOF 3
ENDMDL
MODEL 5
REMARK VINA RESULT:      -6.8      1.814      2.191
REMARK  Name = 
REMARK  3 active torsions:
REMARK  status: ('A' for Active; 'I' for Inactive)
REMARK    1  A    between atoms: C_2  and  C_3
REMARK    2  A    between atoms: C_8  and  C_9
REMARK    3  A    between atoms: N_11  and  C_12
REMARK                            x       y       z     vdW  Elec       q    Type
REMARK                         _______ _______ _______ _____ _____    ______ ____
ROOT
ATOM      1  C   UNL     1       5.306   4.421  16.768  0.00  0.00    +0.000 C 
ATOM      2  O   UNL     1       6.179   4.459  17.629  0.00  0.00    +0.000 OA
ATOM      3  N   UNL     1       3.942   4.349  16.984  0.00  0.00    +0.000 N 
ATOM      4  H   UNL     1       3.329   4.144  16.199  0.00  0.00    +0.000 HD
ENDROOT
BRANCH   1  10
ATOM      5  C   UNL     1       5.517   3.846  13.014  0.00  0.00    +0.000 A 
ATOM      6  C   UNL     1       6.752   4.443  12.746  0.00  0.00    +0.000 A 
ATOM      7  C   UNL     1       7.479   5.009  13.784  0.00  0.00    +0.000 A 
ATOM      8  F   UNL     1       8.656   5.592  13.527  0.00  0.00    +0.000 F 
ATOM      9  C   UNL     1       7.002   4.982  15.085  0.00  0.00    +0.000 A 
ATOM     10  C   UNL     1       5.773   4.369  15.363  0.00  0.00    +0.000 A 
ATOM     11  C   UNL     1       5.017   3.808  14.327  0.00  0.00    +0.000 A 
BRANCH   5  13
ATOM     12  N   UNL     1       4.142   2.825  11.069  0.00  0.00    +0.000 NA
ATOM     13  C   UNL     1       4.759   3.276  11.937  0.00  0.00    +0.000 C 
ENDBRANCH   5  13
ENDBRANCH   1  10
BRANCH   3  14
ATOM     14  C   UNL     1       3.316   4.308  18.263  0.00  0.00    +0.000 A 
ATOM     15  C   UNL     1       2.934   5.470  18.944  0.00  0.00    +0.000 A 
ATOM     16  C   UNL     1       2.361   5.409  20.216  0.00  0.00    +0.000 A 
ATOM     17  C   UNL     1       2.142   4.180  20.826  0.00  0.00    +0.000 A 
ATOM     18  C   UNL     1       2.493   3.007  20.158  0.00  0.00    +0.000 A 
ATOM     19  C   UNL     1       3.074   3.071  18.885  0.00  0.00    +0.000 A 
ATOM     20 CL   UNL     1       3.520   1.583  18.118  0.00  0.00    +0.000 Cl
ENDBRANCH   3  14
TORSDOF 3
ENDMDL
MODEL 6
REMARK VINA RESULT:      -6.8      2.259      2.832
REMARK  Name = 
REMARK  3 active torsions:
REMARK  status: ('A' for Active; 'I' for Inactive)
REMARK    1  A    between atoms: C_2  and  C_3
REMARK    2  A    between atoms: C_8  and  C_9
REMARK    3  A    between atoms: N_11  and  C_12
REMARK                            x       y       z     vdW  Elec       q    Type
REMARK                         _______ _______ _______ _____ _____    ______ ____
ROOT
ATOM      1  C   UNL     1       5.573   4.417  16.593  0.00  0.00    +0.000 C 
ATOM      2  O   UNL     1       6.485   4.558  17.402  0.00  0.00    +0.000 OA
ATOM      3  N   UNL     1       4.235   4.238  16.886  0.00  0.00    +0.000 N 
ATOM      4  H   UNL     1       3.601   3.956  16.143  0.00  0.00    +0.000 HD
ENDROOT
BRANCH   1  10
ATOM      5  C   UNL     1       5.596   3.814  12.837  0.00  0.00    +0.000 A 
ATOM      6  C   UNL     1       6.809   4.419  12.501  0.00  0.00    +0.000 A 
ATOM      7  C   UNL     1       7.584   5.000  13.495  0.00  0.00    +0.000 A 
ATOM      8  F   UNL     1       8.741   5.590  13.173  0.00  0.00    +0.000 F 
ATOM      9  C   UNL     1       7.175   4.979  14.819  0.00  0.00    +0.000 A 
ATOM     10  C   UNL     1       5.968   4.358  15.166  0.00  0.00    +0.000 A 
ATOM     11  C   UNL     1       5.165   3.782  14.174  0.00  0.00    +0.000 A 
BRANCH   5  13
ATOM     12  N   UNL     1       4.130   2.756  10.979  0.00  0.00    +0.000 NA
ATOM     13  C   UNL     1       4.789   3.229  11.805  0.00  0.00    +0.000 C 
ENDBRANCH   5  13
ENDBRANCH   1  10
BRANCH   3  14
ATOM     14  C   UNL     1       3.684   4.188  18.199  0.00  0.00    +0.000 A 
ATOM     15  C   UNL     1       3.633   3.002  18.942  0.00  0.00    +0.000 A 
ATOM     16  C   UNL     1       3.049   2.966  20.211  0.00  0.00    +0.000 A 
ATOM     17  C   UNL     1       2.520   4.123  20.769  0.00  0.00    +0.000 A 
ATOM     18  C   UNL     1       2.579   5.321  20.058  0.00  0.00    +0.000 A 
ATOM     19  C   UNL     1       3.159   5.353  18.783  0.00  0.00    +0.000 A 
ATOM     20 CL   UNL     1       3.174   6.863  17.934  0.00  0.00    +0.000 Cl
ENDBRANCH   3  14
TORSDOF 3
ENDMDL
MODEL 7
REMARK VINA RESULT:      -6.8      5.482      7.849
REMARK  Name = 
REMARK  3 active torsions:
REMARK  status: ('A' for Active; 'I' for Inactive)
REMARK    1  A    between atoms: C_2  and  C_3
REMARK    2  A    between atoms: C_8  and  C_9
REMARK    3  A    between atoms: N_11  and  C_12
REMARK                            x       y       z     vdW  Elec       q    Type
REMARK                         _______ _______ _______ _____ _____    ______ ____
ROOT
ATOM      1  C   UNL     1       2.027   7.699  19.721  0.00  0.00    +0.000 C 
ATOM      2  O   UNL     1       2.325   7.957  18.558  0.00  0.00    +0.000 OA
ATOM      3  N   UNL     1       2.323   6.536  20.407  0.00  0.00    +0.000 N 
ATOM      4  H   UNL     1       1.873   6.364  21.302  0.00  0.00    +0.000 HD
ENDROOT
BRANCH   1  10
ATOM      5  C   UNL     1      -0.322  10.589  20.497  0.00  0.00    +0.000 A 
ATOM      6  C   UNL     1      -0.392  10.478  21.888  0.00  0.00    +0.000 A 
ATOM      7  C   UNL     1       0.322   9.477  22.533  0.00  0.00    +0.000 A 
ATOM      8  F   UNL     1       0.246   9.362  23.864  0.00  0.00    +0.000 F 
ATOM      9  C   UNL     1       1.112   8.592  21.816  0.00  0.00    +0.000 A 
ATOM     10  C   UNL     1       1.202   8.709  20.423  0.00  0.00    +0.000 A 
ATOM     11  C   UNL     1       0.474   9.701  19.754  0.00  0.00    +0.000 A 
BRANCH   5  13
ATOM     12  N   UNL     1      -1.678  12.446  19.302  0.00  0.00    +0.000 NA
ATOM     13  C   UNL     1      -1.074  11.613  19.832  0.00  0.00    +0.000 C 
ENDBRANCH   5  13
ENDBRANCH   1  10
BRANCH   3  14
ATOM     14  C   UNL     1       3.036   5.427  19.869  0.00  0.00    +0.000 A 
ATOM     15  C   UNL     1       4.362   5.533  19.432  0.00  0.00    +0.000 A 
ATOM     16  C   UNL     1       5.029   4.443  18.868  0.00  0.00    +0.000 A 
ATOM     17  C   UNL     1       4.386   3.218  18.745  0.00  0.00    +0.000 A 
ATOM     18  C   UNL     1       3.073   3.080  19.194  0.00  0.00    +0.000 A 
ATOM     19  C   UNL     1       2.404   4.177  19.754  0.00  0.00    +0.000 A 
ATOM     20 CL   UNL     1       0.763   3.956  20.263  0.00  0.00    +0.000 Cl
ENDBRANCH   3  14
TORSDOF 3
ENDMDL
MODEL 8
REMARK VINA RESULT:      -6.7      4.657      5.616
REMARK  Name = 
REMARK  3 active torsions:
REMARK  status: ('A' for Active; 'I' for Inactive)
REMARK    1  A    between atoms: C_2  and  C_3
REMARK    2  A    between atoms: C_8  and  C_9
REMARK    3  A    between atoms: N_11  and  C_12
REMARK                            x       y       z     vdW  Elec       q    Type
REMARK                         _______ _______ _______ _____ _____    ______ ____
ROOT
ATOM      1  C   UNL     1       2.119   6.424  20.052  0.00  0.00    +0.000 C 
ATOM      2  O   UNL     1       1.397   5.783  20.810  0.00  0.00    +0.000 OA
ATOM      3  N   UNL     1       2.113   7.795  19.875  0.00  0.00    +0.000 N 
ATOM      4  H   UNL     1       2.628   8.193  19.095  0.00  0.00    +0.000 HD
ENDROOT
BRANCH   1  10
ATOM      5  C   UNL     1       4.521   5.347  17.306  0.00  0.00    +0.000 A 
ATOM      6  C   UNL     1       4.804   4.045  17.728  0.00  0.00    +0.000 A 
ATOM      7  C   UNL     1       4.209   3.554  18.882  0.00  0.00    +0.000 A 
ATOM      8  F   UNL     1       4.489   2.312  19.293  0.00  0.00    +0.000 F 
ATOM      9  C   UNL     1       3.331   4.334  19.617  0.00  0.00    +0.000 A 
ATOM     10  C   UNL     1       3.028   5.633  19.190  0.00  0.00    +0.000 A 
ATOM     11  C   UNL     1       3.632   6.152  18.038  0.00  0.00    +0.000 A 
BRANCH   5  13
ATOM     12  N   UNL     1       5.657   6.261  15.164  0.00  0.00    +0.000 NA
ATOM     13  C   UNL     1       5.149   5.858  16.122  0.00  0.00    +0.000 C 
ENDBRANCH   5  13
ENDBRANCH   1  10
BRANCH   3  14
ATOM     14  C   UNL     1       1.254   8.705  20.557  0.00  0.00    +0.000 A 
ATOM     15  C   UNL     1       1.124   8.707  21.951  0.00  0.00    +0.000 A 
ATOM     16  C   UNL     1       0.244   9.579  22.596  0.00  0.00    +0.000 A 
ATOM     17  C   UNL     1      -0.512  10.480  21.857  0.00  0.00    +0.000 A 
ATOM     18  C   UNL     1      -0.384  10.514  20.469  0.00  0.00    +0.000 A 
ATOM     19  C   UNL     1       0.495   9.633  19.824  0.00  0.00    +0.000 A 
ATOM     20 CL   UNL     1       0.587   9.697  18.096  0.00  0.00    +0.000 Cl
ENDBRANCH   3  14
TORSDOF 3
ENDMDL
MODEL 9
REMARK VINA RESULT:      -6.7      4.635      7.098
REMARK  Name = 
REMARK  3 active torsions:
REMARK  status: ('A' for Active; 'I' for Inactive)
REMARK    1  A    between atoms: C_2  and  C_3
REMARK    2  A    between atoms: C_8  and  C_9
REMARK    3  A    between atoms: N_11  and  C_12
REMARK                            x       y       z     vdW  Elec       q    Type
REMARK                         _______ _______ _______ _____ _____    ______ ____
ROOT
ATOM      1  C   UNL     1       2.615   6.574  19.141  0.00  0.00    +0.000 C 
ATOM      2  O   UNL     1       3.421   6.706  18.225  0.00  0.00    +0.000 OA
ATOM      3  N   UNL     1       2.231   5.385  19.732  0.00  0.00    +0.000 N 
ATOM      4  H   UNL     1       1.428   5.381  20.356  0.00  0.00    +0.000 HD
ENDROOT
BRANCH   1  10
ATOM      5  C   UNL     1       0.939   9.237  21.278  0.00  0.00    +0.000 A 
ATOM      6  C   UNL     1       0.757  10.238  20.320  0.00  0.00    +0.000 A 
ATOM      7  C   UNL     1       1.176  10.022  19.015  0.00  0.00    +0.000 A 
ATOM      8  F   UNL     1       1.014  10.985  18.100  0.00  0.00    +0.000 F 
ATOM      9  C   UNL     1       1.766   8.823  18.646  0.00  0.00    +0.000 A 
ATOM     10  C   UNL     1       1.935   7.808  19.597  0.00  0.00    +0.000 A 
ATOM     11  C   UNL     1       1.534   8.014  20.923  0.00  0.00    +0.000 A 
BRANCH   5  13
ATOM     12  N   UNL     1       0.185   9.647  23.724  0.00  0.00    +0.000 NA
ATOM     13  C   UNL     1       0.520   9.468  22.630  0.00  0.00    +0.000 C 
ENDBRANCH   5  13
ENDBRANCH   1  10
BRANCH   3  14
ATOM     14  C   UNL     1       2.718   4.096  19.371  0.00  0.00    +0.000 A 
ATOM     15  C   UNL     1       3.696   3.430  20.120  0.00  0.00    +0.000 A 
ATOM     16  C   UNL     1       4.190   2.185  19.723  0.00  0.00    +0.000 A 
ATOM     17  C   UNL     1       3.701   1.573  18.576  0.00  0.00    +0.000 A 
ATOM     18  C   UNL     1       2.710   2.204  17.826  0.00  0.00    +0.000 A 
ATOM     19  C   UNL     1       2.220   3.456  18.222  0.00  0.00    +0.000 A 
ATOM     20 CL   UNL     1       1.014   4.208  17.232  0.00  0.00    +0.000 Cl
ENDBRANCH   3  14
TORSDOF 3
ENDMDL
