MODEL 1
REMARK VINA RESULT:      -8.8      0.000      0.000
REMARK  Name = 
REMARK  10 active torsions:
REMARK  status: ('A' for Active; 'I' for Inactive)
REMARK    1  A    between atoms: C_1  and  N_2
REMARK    2  A    between atoms: N_2  and  C_3
REMARK    3  A    between atoms: N_2  and  C_4
REMARK    4  A    between atoms: C_4  and  C_5
REMARK    5  A    between atoms: C_5  and  C_6
REMARK    6  A    between atoms: C_5  and  N_13
REMARK    7  A    between atoms: C_6  and  C_7
REMARK    8  A    between atoms: C_14  and  C_16
REMARK    9  A    between atoms: C_19  and  C_20
REMARK   10  A    between atoms: C_23  and  C_24
REMARK                            x       y       z     vdW  Elec       q    Type
REMARK                         _______ _______ _______ _____ _____    ______ ____
ROOT
ATOM      1  N   UNL     1       3.138   5.589  18.182  0.00  0.00    +0.000 N 
ATOM      2  C   UNL     1       3.036   6.933  17.913  0.00  0.00    +0.000 C 
ATOM      3  O   UNL     1       3.551   7.451  16.926  0.00  0.00    +0.000 OA
ATOM      4  H   UNL     1       2.637   5.201  18.974  0.00  0.00    +0.000 HD
ENDROOT
BRANCH   2   5
ATOM      5  C   UNL     1       2.302   7.784  18.888  0.00  0.00    +0.000 A 
ATOM      6  C   UNL     1       2.122   7.287  20.189  0.00  0.00    +0.000 A 
ATOM      7  C   UNL     1       1.402   8.021  21.133  0.00  0.00    +0.000 A 
ATOM      8  C   UNL     1       0.841   9.262  20.805  0.00  0.00    +0.000 A 
ATOM      9  C   UNL     1       1.036   9.764  19.510  0.00  0.00    +0.000 A 
ATOM     10  C   UNL     1       1.756   9.026  18.566  0.00  0.00    +0.000 A 
ATOM     11  F   UNL     1       1.886   9.546  17.335  0.00  0.00    +0.000 F 
BRANCH   8  12
ATOM     12  C   UNL     1       0.053  10.008  21.775  0.00  0.00    +0.000 A 
ATOM     13  N   UNL     1       0.178   9.876  23.106  0.00  0.00    +0.000 NA
ATOM     14  O   UNL     1      -0.790  10.729  23.623  0.00  0.00    +0.000 OA
ATOM     15  C   UNL     1      -1.419  11.304  22.558  0.00  0.00    +0.000 A 
ATOM     16  N   UNL     1      -0.929  10.898  21.398  0.00  0.00    +0.000 NA
BRANCH  15  17
ATOM     17  C   UNL     1      -2.518  12.247  22.881  0.00  0.00    +0.000 C 
ATOM     18  F   UNL     1      -2.070  13.489  23.215  0.00  0.00    +0.000 F 
ATOM     19  F   UNL     1      -3.374  12.417  21.837  0.00  0.00    +0.000 F 
ATOM     20  F   UNL     1      -3.269  11.818  23.932  0.00  0.00    +0.000 F 
ENDBRANCH  15  17
ENDBRANCH   8  12
ENDBRANCH   2   5
BRANCH   1  21
ATOM     21  C   UNL     1       3.897   4.666  17.318  0.00  0.00    +0.000 C 
BRANCH  21  22
ATOM     22  C   UNL     1       5.406   4.750  17.701  0.00  0.00    +0.000 C 
BRANCH  22  24
ATOM     23  C   UNL     1       5.793   5.248  15.343  0.00  0.00    +0.000 C 
ATOM     24  N   UNL     1       6.410   5.049  16.660  0.00  0.00    +0.000 NA
ATOM     25  C   UNL     1       7.100   6.298  17.035  0.00  0.00    +0.000 C 
ENDBRANCH  22  24
ENDBRANCH  21  22
BRANCH  21  26
ATOM     26  C   UNL     1       3.304   3.234  17.410  0.00  0.00    +0.000 C 
BRANCH  26  27
ATOM     27  C   UNL     1       2.620   3.005  18.751  0.00  0.00    +0.000 A 
ATOM     28  C   UNL     1       1.245   3.246  18.892  0.00  0.00    +0.000 A 
ATOM     29  C   UNL     1       0.650   3.253  20.154  0.00  0.00    +0.000 A 
ATOM     30  C   UNL     1       1.416   2.993  21.289  0.00  0.00    +0.000 A 
ATOM     31  C   UNL     1       2.767   2.678  21.157  0.00  0.00    +0.000 A 
ATOM     32  C   UNL     1       3.365   2.675  19.894  0.00  0.00    +0.000 A 
ENDBRANCH  26  27
ENDBRANCH  21  26
ENDBRANCH   1  21
TORSDOF 8
ENDMDL
MODEL 2
REMARK VINA RESULT:      -8.8      1.439      1.947
REMARK  Name = 
REMARK  10 active torsions:
REMARK  status: ('A' for Active; 'I' for Inactive)
REMARK    1  A    between atoms: C_1  and  N_2
REMARK    2  A    between atoms: N_2  and  C_3
REMARK    3  A    between atoms: N_2  and  C_4
REMARK    4  A    between atoms: C_4  and  C_5
REMARK    5  A    between atoms: C_5  and  C_6
REMARK    6  A    between atoms: C_5  and  N_13
REMARK    7  A    between atoms: C_6  and  C_7
REMARK    8  A    between atoms: C_14  and  C_16
REMARK    9  A    between atoms: C_19  and  C_20
REMARK   10  A    between atoms: C_23  and  C_24
REMARK                            x       y       z     vdW  Elec       q    Type
REMARK                         _______ _______ _______ _____ _____    ______ ____
ROOT
ATOM      1  N   UNL     1       3.618   5.420  18.405  0.00  0.00    +0.000 N 
ATOM      2  C   UNL     1       3.605   6.720  17.961  0.00  0.00    +0.000 C 
ATOM      3  O   UNL     1       4.409   7.147  17.137  0.00  0.00    +0.000 OA
ATOM      4  H   UNL     1       2.890   5.101  19.036  0.00  0.00    +0.000 HD
ENDROOT
BRANCH   2   5
ATOM      5  C   UNL     1       2.592   7.642  18.542  0.00  0.00    +0.000 A 
ATOM      6  C   UNL     1       2.193   8.750  17.775  0.00  0.00    +0.000 A 
ATOM      7  C   UNL     1       1.280   9.672  18.287  0.00  0.00    +0.000 A 
ATOM      8  C   UNL     1       0.746   9.520  19.573  0.00  0.00    +0.000 A 
ATOM      9  C   UNL     1       1.132   8.404  20.331  0.00  0.00    +0.000 A 
ATOM     10  C   UNL     1       2.048   7.482  19.816  0.00  0.00    +0.000 A 
ATOM     11  F   UNL     1       2.400   6.450  20.599  0.00  0.00    +0.000 F 
BRANCH   8  12
ATOM     12  C   UNL     1      -0.173  10.505  20.125  0.00  0.00    +0.000 A 
ATOM     13  N   UNL     1      -0.861  11.389  19.384  0.00  0.00    +0.000 NA
ATOM     14  O   UNL     1      -1.557  12.147  20.319  0.00  0.00    +0.000 OA
ATOM     15  C   UNL     1      -1.227  11.654  21.548  0.00  0.00    +0.000 A 
ATOM     16  N   UNL     1      -0.384  10.637  21.479  0.00  0.00    +0.000 NA
BRANCH  15  17
ATOM     17  C   UNL     1      -1.847  12.337  22.711  0.00  0.00    +0.000 C 
ATOM     18  F   UNL     1      -2.511  11.482  23.535  0.00  0.00    +0.000 F 
ATOM     19  F   UNL     1      -0.926  12.975  23.483  0.00  0.00    +0.000 F 
ATOM     20  F   UNL     1      -2.752  13.279  22.329  0.00  0.00    +0.000 F 
ENDBRANCH  15  17
ENDBRANCH   8  12
ENDBRANCH   2   5
BRANCH   1  21
ATOM     21  C   UNL     1       4.619   4.439  17.945  0.00  0.00    +0.000 C 
BRANCH  21  22
ATOM     22  C   UNL     1       5.894   4.572  18.832  0.00  0.00    +0.000 C 
BRANCH  22  24
ATOM     23  C   UNL     1       7.143   4.622  16.735  0.00  0.00    +0.000 C 
ATOM     24  N   UNL     1       7.213   4.766  18.194  0.00  0.00    +0.000 NA
ATOM     25  C   UNL     1       7.670   6.135  18.496  0.00  0.00    +0.000 C 
ENDBRANCH  22  24
ENDBRANCH  21  22
BRANCH  21  26
ATOM     26  C   UNL     1       4.007   3.012  17.934  0.00  0.00    +0.000 C 
BRANCH  26  27
ATOM     27  C   UNL     1       2.999   2.836  19.063  0.00  0.00    +0.000 A 
ATOM     28  C   UNL     1       1.627   2.991  18.812  0.00  0.00    +0.000 A 
ATOM     29  C   UNL     1       0.714   3.050  19.866  0.00  0.00    +0.000 A 
ATOM     30  C   UNL     1       1.157   2.928  21.181  0.00  0.00    +0.000 A 
ATOM     31  C   UNL     1       2.507   2.698  21.441  0.00  0.00    +0.000 A 
ATOM     32  C   UNL     1       3.423   2.644  20.386  0.00  0.00    +0.000 A 
ENDBRANCH  26  27
ENDBRANCH  21  26
ENDBRANCH   1  21
TORSDOF 8
ENDMDL
MODEL 3
REMARK VINA RESULT:      -8.6      0.964      1.355
REMARK  Name = 
REMARK  10 active torsions:
REMARK  status: ('A' for Active; 'I' for Inactive)
REMARK    1  A    between atoms: C_1  and  N_2
REMARK    2  A    between atoms: N_2  and  C_3
REMARK    3  A    between atoms: N_2  and  C_4
REMARK    4  A    between atoms: C_4  and  C_5
REMARK    5  A    between atoms: C_5  and  C_6
REMARK    6  A    between atoms: C_5  and  N_13
REMARK    7  A    between atoms: C_6  and  C_7
REMARK    8  A    between atoms: C_14  and  C_16
REMARK    9  A    between atoms: C_19  and  C_20
REMARK   10  A    between atoms: C_23  and  C_24
REMARK                            x       y       z     vdW  Elec       q    Type
REMARK                         _______ _______ _______ _____ _____    ______ ____
ROOT
ATOM      1  N   UNL     1       3.156   5.650  18.293  0.00  0.00    +0.000 N 
ATOM      2  C   UNL     1       3.045   7.002  18.070  0.00  0.00    +0.000 C 
ATOM      3  O   UNL     1       3.636   7.574  17.158  0.00  0.00    +0.000 OA
ATOM      4  H   UNL     1       2.594   5.217  19.017  0.00  0.00    +0.000 HD
ENDROOT
BRANCH   2   5
ATOM      5  C   UNL     1       2.200   7.793  19.005  0.00  0.00    +0.000 A 
ATOM      6  C   UNL     1       1.797   9.077  18.602  0.00  0.00    +0.000 A 
ATOM      7  C   UNL     1       1.041   9.881  19.456  0.00  0.00    +0.000 A 
ATOM      8  C   UNL     1       0.673   9.431  20.731  0.00  0.00    +0.000 A 
ATOM      9  C   UNL     1       1.062   8.142  21.125  0.00  0.00    +0.000 A 
ATOM     10  C   UNL     1       1.820   7.339  20.268  0.00  0.00    +0.000 A 
ATOM     11  F   UNL     1       2.186   6.127  20.712  0.00  0.00    +0.000 F 
BRANCH   8  12
ATOM     12  C   UNL     1      -0.078  10.286  21.639  0.00  0.00    +0.000 A 
ATOM     13  N   UNL     1       0.019  10.228  22.978  0.00  0.00    +0.000 NA
ATOM     14  O   UNL     1      -0.897  11.173  23.425  0.00  0.00    +0.000 OA
ATOM     15  C   UNL     1      -1.471  11.721  22.315  0.00  0.00    +0.000 A 
ATOM     16  N   UNL     1      -0.993  11.213  21.191  0.00  0.00    +0.000 NA
BRANCH  15  17
ATOM     17  C   UNL     1      -2.509  12.753  22.560  0.00  0.00    +0.000 C 
ATOM     18  F   UNL     1      -2.647  13.062  23.879  0.00  0.00    +0.000 F 
ATOM     19  F   UNL     1      -2.235  13.921  21.920  0.00  0.00    +0.000 F 
ATOM     20  F   UNL     1      -3.738  12.355  22.132  0.00  0.00    +0.000 F 
ENDBRANCH  15  17
ENDBRANCH   8  12
ENDBRANCH   2   5
BRANCH   1  21
ATOM     21  C   UNL     1       4.017   4.783  17.467  0.00  0.00    +0.000 C 
BRANCH  21  22
ATOM     22  C   UNL     1       5.492   4.936  17.951  0.00  0.00    +0.000 C 
BRANCH  22  24
ATOM     23  C   UNL     1       6.018   5.454  15.624  0.00  0.00    +0.000 C 
ATOM     24  N   UNL     1       6.558   5.226  16.970  0.00  0.00    +0.000 NA
ATOM     25  C   UNL     1       7.253   6.454  17.398  0.00  0.00    +0.000 C 
ENDBRANCH  22  24
ENDBRANCH  21  22
BRANCH  21  26
ATOM     26  C   UNL     1       3.495   3.321  17.498  0.00  0.00    +0.000 C 
BRANCH  26  27
ATOM     27  C   UNL     1       2.728   3.037  18.783  0.00  0.00    +0.000 A 
ATOM     28  C   UNL     1       1.336   3.208  18.825  0.00  0.00    +0.000 A 
ATOM     29  C   UNL     1       0.652   3.165  20.041  0.00  0.00    +0.000 A 
ATOM     30  C   UNL     1       1.345   2.923  21.225  0.00  0.00    +0.000 A 
ATOM     31  C   UNL     1       2.717   2.676  21.189  0.00  0.00    +0.000 A 
ATOM     32  C   UNL     1       3.404   2.724  19.973  0.00  0.00    +0.000 A 
ENDBRANCH  26  27
ENDBRANCH  21  26
ENDBRANCH   1  21
TORSDOF 8
ENDMDL
MODEL 4
REMARK VINA RESULT:      -8.6      1.147      1.665
REMARK  Name = 
REMARK  10 active torsions:
REMARK  status: ('A' for Active; 'I' for Inactive)
REMARK    1  A    between atoms: C_1  and  N_2
REMARK    2  A    between atoms: N_2  and  C_3
REMARK    3  A    between atoms: N_2  and  C_4
REMARK    4  A    between atoms: C_4  and  C_5
REMARK    5  A    between atoms: C_5  and  C_6
REMARK    6  A    between atoms: C_5  and  N_13
REMARK    7  A    between atoms: C_6  and  C_7
REMARK    8  A    between atoms: C_14  and  C_16
REMARK    9  A    between atoms: C_19  and  C_20
REMARK   10  A    between atoms: C_23  and  C_24
REMARK                            x       y       z     vdW  Elec       q    Type
REMARK                         _______ _______ _______ _____ _____    ______ ____
ROOT
ATOM      1  N   UNL     1       3.592   5.483  18.518  0.00  0.00    +0.000 N 
ATOM      2  C   UNL     1       3.210   6.731  18.084  0.00  0.00    +0.000 C 
ATOM      3  O   UNL     1       3.555   7.188  16.998  0.00  0.00    +0.000 OA
ATOM      4  H   UNL     1       3.224   5.126  19.393  0.00  0.00    +0.000 HD
ENDROOT
BRANCH   2   5
ATOM      5  C   UNL     1       2.379   7.559  18.998  0.00  0.00    +0.000 A 
ATOM      6  C   UNL     1       1.969   8.825  18.548  0.00  0.00    +0.000 A 
ATOM      7  C   UNL     1       1.225   9.664  19.380  0.00  0.00    +0.000 A 
ATOM      8  C   UNL     1       0.875   9.267  20.677  0.00  0.00    +0.000 A 
ATOM      9  C   UNL     1       1.271   7.995  21.118  0.00  0.00    +0.000 A 
ATOM     10  C   UNL     1       2.017   7.158  20.284  0.00  0.00    +0.000 A 
ATOM     11  F   UNL     1       2.390   5.964  20.772  0.00  0.00    +0.000 F 
BRANCH   8  12
ATOM     12  C   UNL     1       0.138  10.159  21.561  0.00  0.00    +0.000 A 
ATOM     13  N   UNL     1       0.279  10.179  22.896  0.00  0.00    +0.000 NA
ATOM     14  O   UNL     1      -0.641  11.131  23.319  0.00  0.00    +0.000 OA
ATOM     15  C   UNL     1      -1.261  11.605  22.200  0.00  0.00    +0.000 A 
ATOM     16  N   UNL     1      -0.810  11.042  21.092  0.00  0.00    +0.000 NA
BRANCH  15  17
ATOM     17  C   UNL     1      -2.311  12.629  22.421  0.00  0.00    +0.000 C 
ATOM     18  F   UNL     1      -2.673  13.273  21.278  0.00  0.00    +0.000 F 
ATOM     19  F   UNL     1      -3.451  12.094  22.936  0.00  0.00    +0.000 F 
ATOM     20  F   UNL     1      -1.909  13.595  23.291  0.00  0.00    +0.000 F 
ENDBRANCH  15  17
ENDBRANCH   8  12
ENDBRANCH   2   5
BRANCH   1  21
ATOM     21  C   UNL     1       4.468   4.605  17.720  0.00  0.00    +0.000 C 
BRANCH  21  22
ATOM     22  C   UNL     1       5.912   4.675  18.306  0.00  0.00    +0.000 C 
BRANCH  22  24
ATOM     23  C   UNL     1       7.835   5.907  19.169  0.00  0.00    +0.000 C 
ATOM     24  N   UNL     1       6.629   5.967  18.334  0.00  0.00    +0.000 NA
ATOM     25  C   UNL     1       7.042   6.291  16.956  0.00  0.00    +0.000 C 
ENDBRANCH  22  24
ENDBRANCH  21  22
BRANCH  21  26
ATOM     26  C   UNL     1       3.882   3.168  17.664  0.00  0.00    +0.000 C 
BRANCH  26  27
ATOM     27  C   UNL     1       2.961   2.902  18.848  0.00  0.00    +0.000 A 
ATOM     28  C   UNL     1       1.571   3.027  18.700  0.00  0.00    +0.000 A 
ATOM     29  C   UNL     1       0.733   3.003  19.816  0.00  0.00    +0.000 A 
ATOM     30  C   UNL     1       1.270   2.826  21.089  0.00  0.00    +0.000 A 
ATOM     31  C   UNL     1       2.640   2.625  21.243  0.00  0.00    +0.000 A 
ATOM     32  C   UNL     1       3.482   2.654  20.127  0.00  0.00    +0.000 A 
ENDBRANCH  26  27
ENDBRANCH  21  26
ENDBRANCH   1  21
TORSDOF 8
ENDMDL
MODEL 5
REMARK VINA RESULT:      -8.5      0.595      1.051
REMARK  Name = 
REMARK  10 active torsions:
REMARK  status: ('A' for Active; 'I' for Inactive)
REMARK    1  A    between atoms: C_1  and  N_2
REMARK    2  A    between atoms: N_2  and  C_3
REMARK    3  A    between atoms: N_2  and  C_4
REMARK    4  A    between atoms: C_4  and  C_5
REMARK    5  A    between atoms: C_5  and  C_6
REMARK    6  A    between atoms: C_5  and  N_13
REMARK    7  A    between atoms: C_6  and  C_7
REMARK    8  A    between atoms: C_14  and  C_16
REMARK    9  A    between atoms: C_19  and  C_20
REMARK   10  A    between atoms: C_23  and  C_24
REMARK                            x       y       z     vdW  Elec       q    Type
REMARK                         _______ _______ _______ _____ _____    ______ ____
ROOT
ATOM      1  N   UNL     1       3.134   6.041  18.270  0.00  0.00    +0.000 N 
ATOM      2  C   UNL     1       2.881   7.352  17.943  0.00  0.00    +0.000 C 
ATOM      3  O   UNL     1       3.269   7.859  16.895  0.00  0.00    +0.000 OA
ATOM      4  H   UNL     1       2.733   5.652  19.118  0.00  0.00    +0.000 HD
ENDROOT
BRANCH   2   5
ATOM      5  C   UNL     1       2.139   8.183  18.929  0.00  0.00    +0.000 A 
ATOM      6  C   UNL     1       1.967   7.669  20.225  0.00  0.00    +0.000 A 
ATOM      7  C   UNL     1       1.241   8.385  21.178  0.00  0.00    +0.000 A 
ATOM      8  C   UNL     1       0.666   9.623  20.865  0.00  0.00    +0.000 A 
ATOM      9  C   UNL     1       0.855  10.143  19.576  0.00  0.00    +0.000 A 
ATOM     10  C   UNL     1       1.581   9.423  18.623  0.00  0.00    +0.000 A 
ATOM     11  F   UNL     1       1.703   9.959  17.398  0.00  0.00    +0.000 F 
BRANCH   8  12
ATOM     12  C   UNL     1      -0.128  10.350  21.846  0.00  0.00    +0.000 A 
ATOM     13  N   UNL     1      -0.032  10.171  23.173  0.00  0.00    +0.000 NA
ATOM     14  O   UNL     1      -0.995  11.023  23.701  0.00  0.00    +0.000 OA
ATOM     15  C   UNL     1      -1.593  11.645  22.643  0.00  0.00    +0.000 A 
ATOM     16  N   UNL     1      -1.087  11.269  21.480  0.00  0.00    +0.000 NA
BRANCH  15  17
ATOM     17  C   UNL     1      -2.682  12.596  22.978  0.00  0.00    +0.000 C 
ATOM     18  F   UNL     1      -2.247  13.667  23.697  0.00  0.00    +0.000 F 
ATOM     19  F   UNL     1      -3.284  13.099  21.867  0.00  0.00    +0.000 F 
ATOM     20  F   UNL     1      -3.662  12.011  23.719  0.00  0.00    +0.000 F 
ENDBRANCH  15  17
ENDBRANCH   8  12
ENDBRANCH   2   5
BRANCH   1  21
ATOM     21  C   UNL     1       3.915   5.146  17.396  0.00  0.00    +0.000 C 
BRANCH  21  22
ATOM     22  C   UNL     1       5.432   5.353  17.697  0.00  0.00    +0.000 C 
BRANCH  22  24
ATOM     23  C   UNL     1       6.602   4.549  15.711  0.00  0.00    +0.000 C 
ATOM     24  N   UNL     1       6.421   4.396  17.159  0.00  0.00    +0.000 NA
ATOM     25  C   UNL     1       7.717   4.662  17.813  0.00  0.00    +0.000 C 
ENDBRANCH  22  24
ENDBRANCH  21  22
BRANCH  21  26
ATOM     26  C   UNL     1       3.437   3.678  17.564  0.00  0.00    +0.000 C 
BRANCH  26  27
ATOM     27  C   UNL     1       2.731   3.478  18.899  0.00  0.00    +0.000 A 
ATOM     28  C   UNL     1       3.462   3.085  20.031  0.00  0.00    +0.000 A 
ATOM     29  C   UNL     1       2.806   2.687  21.197  0.00  0.00    +0.000 A 
ATOM     30  C   UNL     1       1.414   2.702  21.256  0.00  0.00    +0.000 A 
ATOM     31  C   UNL     1       0.678   3.161  20.165  0.00  0.00    +0.000 A 
ATOM     32  C   UNL     1       1.333   3.555  18.995  0.00  0.00    +0.000 A 
ENDBRANCH  26  27
ENDBRANCH  21  26
ENDBRANCH   1  21
TORSDOF 8
ENDMDL
MODEL 6
REMARK VINA RESULT:      -8.4      1.752      3.860
REMARK  Name = 
REMARK  10 active torsions:
REMARK  status: ('A' for Active; 'I' for Inactive)
REMARK    1  A    between atoms: C_1  and  N_2
REMARK    2  A    between atoms: N_2  and  C_3
REMARK    3  A    between atoms: N_2  and  C_4
REMARK    4  A    between atoms: C_4  and  C_5
REMARK    5  A    between atoms: C_5  and  C_6
REMARK    6  A    between atoms: C_5  and  N_13
REMARK    7  A    between atoms: C_6  and  C_7
REMARK    8  A    between atoms: C_14  and  C_16
REMARK    9  A    between atoms: C_19  and  C_20
REMARK   10  A    between atoms: C_23  and  C_24
REMARK                            x       y       z     vdW  Elec       q    Type
REMARK                         _______ _______ _______ _____ _____    ______ ____
ROOT
ATOM      1  N   UNL     1       2.955   5.484  17.862  0.00  0.00    +0.000 N 
ATOM      2  C   UNL     1       3.170   6.122  19.061  0.00  0.00    +0.000 C 
ATOM      3  O   UNL     1       3.990   5.726  19.884  0.00  0.00    +0.000 OA
ATOM      4  H   UNL     1       2.315   5.890  17.189  0.00  0.00    +0.000 HD
ENDROOT
BRANCH   2   5
ATOM      5  C   UNL     1       2.338   7.316  19.370  0.00  0.00    +0.000 A 
ATOM      6  C   UNL     1       1.728   7.383  20.634  0.00  0.00    +0.000 A 
ATOM      7  C   UNL     1       0.901   8.459  20.963  0.00  0.00    +0.000 A 
ATOM      8  C   UNL     1       0.657   9.488  20.044  0.00  0.00    +0.000 A 
ATOM      9  C   UNL     1       1.281   9.427  18.790  0.00  0.00    +0.000 A 
ATOM     10  C   UNL     1       2.108   8.349  18.462  0.00  0.00    +0.000 A 
ATOM     11  F   UNL     1       2.654   8.333  17.236  0.00  0.00    +0.000 F 
BRANCH   8  12
ATOM     12  C   UNL     1      -0.240  10.587  20.371  0.00  0.00    +0.000 A 
ATOM     13  N   UNL     1      -1.210  11.032  19.555  0.00  0.00    +0.000 NA
ATOM     14  O   UNL     1      -1.768  12.102  20.245  0.00  0.00    +0.000 OA
ATOM     15  C   UNL     1      -1.084  12.212  21.421  0.00  0.00    +0.000 A 
ATOM     16  N   UNL     1      -0.139  11.295  21.547  0.00  0.00    +0.000 NA
BRANCH  15  17
ATOM     17  C   UNL     1      -1.504  13.318  22.317  0.00  0.00    +0.000 C 
ATOM     18  F   UNL     1      -1.043  13.172  23.590  0.00  0.00    +0.000 F 
ATOM     19  F   UNL     1      -1.057  14.528  21.885  0.00  0.00    +0.000 F 
ATOM     20  F   UNL     1      -2.858  13.415  22.411  0.00  0.00    +0.000 F 
ENDBRANCH  15  17
ENDBRANCH   8  12
ENDBRANCH   2   5
BRANCH   1  21
ATOM     21  C   UNL     1       3.677   4.255  17.483  0.00  0.00    +0.000 C 
BRANCH  21  22
ATOM     22  C   UNL     1       2.636   3.175  17.057  0.00  0.00    +0.000 C 
BRANCH  22  24
ATOM     23  C   UNL     1       3.563   1.677  18.748  0.00  0.00    +0.000 C 
ATOM     24  N   UNL     1       2.387   2.012  17.934  0.00  0.00    +0.000 NA
ATOM     25  C   UNL     1       1.281   2.355  18.847  0.00  0.00    +0.000 C 
ENDBRANCH  22  24
ENDBRANCH  21  22
BRANCH  21  26
ATOM     26  C   UNL     1       4.737   4.570  16.392  0.00  0.00    +0.000 C 
BRANCH  26  27
ATOM     27  C   UNL     1       5.924   5.323  16.978  0.00  0.00    +0.000 A 
ATOM     28  C   UNL     1       6.775   4.692  17.898  0.00  0.00    +0.000 A 
ATOM     29  C   UNL     1       7.728   5.427  18.605  0.00  0.00    +0.000 A 
ATOM     30  C   UNL     1       7.860   6.796  18.383  0.00  0.00    +0.000 A 
ATOM     31  C   UNL     1       7.073   7.422  17.418  0.00  0.00    +0.000 A 
ATOM     32  C   UNL     1       6.114   6.688  16.713  0.00  0.00    +0.000 A 
ENDBRANCH  26  27
ENDBRANCH  21  26
ENDBRANCH   1  21
TORSDOF 8
ENDMDL
MODEL 7
REMARK VINA RESULT:      -8.4      1.580      2.155
REMARK  Name = 
REMARK  10 active torsions:
REMARK  status: ('A' for Active; 'I' for Inactive)
REMARK    1  A    between atoms: C_1  and  N_2
REMARK    2  A    between atoms: N_2  and  C_3
REMARK    3  A    between atoms: N_2  and  C_4
REMARK    4  A    between atoms: C_4  and  C_5
REMARK    5  A    between atoms: C_5  and  C_6
REMARK    6  A    between atoms: C_5  and  N_13
REMARK    7  A    between atoms: C_6  and  C_7
REMARK    8  A    between atoms: C_14  and  C_16
REMARK    9  A    between atoms: C_19  and  C_20
REMARK   10  A    between atoms: C_23  and  C_24
REMARK                            x       y       z     vdW  Elec       q    Type
REMARK                         _______ _______ _______ _____ _____    ______ ____
ROOT
ATOM      1  N   UNL     1       3.992   5.841  18.776  0.00  0.00    +0.000 N 
ATOM      2  C   UNL     1       2.712   6.202  18.428  0.00  0.00    +0.000 C 
ATOM      3  O   UNL     1       2.079   5.629  17.546  0.00  0.00    +0.000 OA
ATOM      4  H   UNL     1       4.445   6.303  19.557  0.00  0.00    +0.000 HD
ENDROOT
BRANCH   2   5
ATOM      5  C   UNL     1       2.101   7.361  19.134  0.00  0.00    +0.000 A 
ATOM      6  C   UNL     1       1.958   8.564  18.423  0.00  0.00    +0.000 A 
ATOM      7  C   UNL     1       1.433   9.696  19.049  0.00  0.00    +0.000 A 
ATOM      8  C   UNL     1       1.043   9.660  20.393  0.00  0.00    +0.000 A 
ATOM      9  C   UNL     1       1.170   8.454  21.097  0.00  0.00    +0.000 A 
ATOM     10  C   UNL     1       1.698   7.321  20.469  0.00  0.00    +0.000 A 
ATOM     11  F   UNL     1       1.822   6.203  21.201  0.00  0.00    +0.000 F 
BRANCH   8  12
ATOM     12  C   UNL     1       0.536  10.853  21.059  0.00  0.00    +0.000 A 
ATOM     13  N   UNL     1       1.234  11.992  21.193  0.00  0.00    +0.000 NA
ATOM     14  O   UNL     1       0.391  12.822  21.922  0.00  0.00    +0.000 OA
ATOM     15  C   UNL     1      -0.747  12.110  22.167  0.00  0.00    +0.000 A 
ATOM     16  N   UNL     1      -0.708  10.894  21.648  0.00  0.00    +0.000 NA
BRANCH  15  17
ATOM     17  C   UNL     1      -1.791  12.804  22.961  0.00  0.00    +0.000 C 
ATOM     18  F   UNL     1      -2.583  11.945  23.660  0.00  0.00    +0.000 F 
ATOM     19  F   UNL     1      -1.258  13.662  23.873  0.00  0.00    +0.000 F 
ATOM     20  F   UNL     1      -2.626  13.540  22.177  0.00  0.00    +0.000 F 
ENDBRANCH  15  17
ENDBRANCH   8  12
ENDBRANCH   2   5
BRANCH   1  21
ATOM     21  C   UNL     1       4.716   4.751  18.096  0.00  0.00    +0.000 C 
BRANCH  21  22
ATOM     22  C   UNL     1       6.109   5.283  17.641  0.00  0.00    +0.000 C 
BRANCH  22  24
ATOM     23  C   UNL     1       7.827   5.733  19.317  0.00  0.00    +0.000 C 
ATOM     24  N   UNL     1       6.798   6.314  18.446  0.00  0.00    +0.000 NA
ATOM     25  C   UNL     1       7.458   7.253  17.520  0.00  0.00    +0.000 C 
ENDBRANCH  22  24
ENDBRANCH  21  22
BRANCH  21  26
ATOM     26  C   UNL     1       4.791   3.502  19.015  0.00  0.00    +0.000 C 
BRANCH  26  27
ATOM     27  C   UNL     1       3.400   3.008  19.390  0.00  0.00    +0.000 A 
ATOM     28  C   UNL     1       2.543   2.498  18.403  0.00  0.00    +0.000 A 
ATOM     29  C   UNL     1       1.200   2.249  18.688  0.00  0.00    +0.000 A 
ATOM     30  C   UNL     1       0.702   2.479  19.968  0.00  0.00    +0.000 A 
ATOM     31  C   UNL     1       1.559   2.915  20.978  0.00  0.00    +0.000 A 
ATOM     32  C   UNL     1       2.904   3.170  20.693  0.00  0.00    +0.000 A 
ENDBRANCH  26  27
ENDBRANCH  21  26
ENDBRANCH   1  21
TORSDOF 8
ENDMDL
MODEL 8
REMARK VINA RESULT:      -8.4      1.974      3.989
REMARK  Name = 
REMARK  10 active torsions:
REMARK  status: ('A' for Active; 'I' for Inactive)
REMARK    1  A    between atoms: C_1  and  N_2
REMARK    2  A    between atoms: N_2  and  C_3
REMARK    3  A    between atoms: N_2  and  C_4
REMARK    4  A    between atoms: C_4  and  C_5
REMARK    5  A    between atoms: C_5  and  C_6
REMARK    6  A    between atoms: C_5  and  N_13
REMARK    7  A    between atoms: C_6  and  C_7
REMARK    8  A    between atoms: C_14  and  C_16
REMARK    9  A    between atoms: C_19  and  C_20
REMARK   10  A    between atoms: C_23  and  C_24
REMARK                            x       y       z     vdW  Elec       q    Type
REMARK                         _______ _______ _______ _____ _____    ______ ____
ROOT
ATOM      1  N   UNL     1       3.156   5.546  17.736  0.00  0.00    +0.000 N 
ATOM      2  C   UNL     1       3.156   6.149  18.972  0.00  0.00    +0.000 C 
ATOM      3  O   UNL     1       3.707   5.652  19.950  0.00  0.00    +0.000 OA
ATOM      4  H   UNL     1       2.745   6.031  16.946  0.00  0.00    +0.000 HD
ENDROOT
BRANCH   2   5
ATOM      5  C   UNL     1       2.422   7.435  19.118  0.00  0.00    +0.000 A 
ATOM      6  C   UNL     1       1.745   7.673  20.325  0.00  0.00    +0.000 A 
ATOM      7  C   UNL     1       1.004   8.842  20.501  0.00  0.00    +0.000 A 
ATOM      8  C   UNL     1       0.913   9.798  19.482  0.00  0.00    +0.000 A 
ATOM      9  C   UNL     1       1.604   9.567  18.283  0.00  0.00    +0.000 A 
ATOM     10  C   UNL     1       2.345   8.394  18.108  0.00  0.00    +0.000 A 
ATOM     11  F   UNL     1       2.961   8.216  16.929  0.00  0.00    +0.000 F 
BRANCH   8  12
ATOM     12  C   UNL     1       0.103  10.997  19.648  0.00  0.00    +0.000 A 
ATOM     13  N   UNL     1       0.574  12.247  19.505  0.00  0.00    +0.000 NA
ATOM     14  O   UNL     1      -0.518  13.055  19.800  0.00  0.00    +0.000 OA
ATOM     15  C   UNL     1      -1.557  12.221  20.097  0.00  0.00    +0.000 A 
ATOM     16  N   UNL     1      -1.225  10.944  20.009  0.00  0.00    +0.000 NA
BRANCH  15  17
ATOM     17  C   UNL     1      -2.834  12.879  20.467  0.00  0.00    +0.000 C 
ATOM     18  F   UNL     1      -2.738  14.236  20.511  0.00  0.00    +0.000 F 
ATOM     19  F   UNL     1      -3.833  12.594  19.589  0.00  0.00    +0.000 F 
ATOM     20  F   UNL     1      -3.274  12.488  21.695  0.00  0.00    +0.000 F 
ENDBRANCH  15  17
ENDBRANCH   8  12
ENDBRANCH   2   5
BRANCH   1  21
ATOM     21  C   UNL     1       3.797   4.240  17.496  0.00  0.00    +0.000 C 
BRANCH  21  22
ATOM     22  C   UNL     1       2.703   3.221  17.052  0.00  0.00    +0.000 C 
BRANCH  22  24
ATOM     23  C   UNL     1       3.533   1.651  18.728  0.00  0.00    +0.000 C 
ATOM     24  N   UNL     1       2.381   2.069  17.919  0.00  0.00    +0.000 NA
ATOM     25  C   UNL     1       1.301   2.476  18.838  0.00  0.00    +0.000 C 
ENDBRANCH  22  24
ENDBRANCH  21  22
BRANCH  21  26
ATOM     26  C   UNL     1       4.962   4.392  16.481  0.00  0.00    +0.000 C 
BRANCH  26  27
ATOM     27  C   UNL     1       6.100   5.219  17.067  0.00  0.00    +0.000 A 
ATOM     28  C   UNL     1       6.880   4.703  18.113  0.00  0.00    +0.000 A 
ATOM     29  C   UNL     1       7.774   5.522  18.803  0.00  0.00    +0.000 A 
ATOM     30  C   UNL     1       7.920   6.859  18.440  0.00  0.00    +0.000 A 
ATOM     31  C   UNL     1       7.207   7.366  17.355  0.00  0.00    +0.000 A 
ATOM     32  C   UNL     1       6.307   6.548  16.666  0.00  0.00    +0.000 A 
ENDBRANCH  26  27
ENDBRANCH  21  26
ENDBRANCH   1  21
TORSDOF 8
ENDMDL
MODEL 9
REMARK VINA RESULT:      -8.4      1.718      3.828
REMARK  Name = 
REMARK  10 active torsions:
REMARK  status: ('A' for Active; 'I' for Inactive)
REMARK    1  A    between atoms: C_1  and  N_2
REMARK    2  A    between atoms: N_2  and  C_3
REMARK    3  A    between atoms: N_2  and  C_4
REMARK    4  A    between atoms: C_4  and  C_5
REMARK    5  A    between atoms: C_5  and  C_6
REMARK    6  A    between atoms: C_5  and  N_13
REMARK    7  A    between atoms: C_6  and  C_7
REMARK    8  A    between atoms: C_14  and  C_16
REMARK    9  A    between atoms: C_19  and  C_20
REMARK   10  A    between atoms: C_23  and  C_24
REMARK                            x       y       z     vdW  Elec       q    Type
REMARK                         _______ _______ _______ _____ _____    ______ ____
ROOT
ATOM      1  N   UNL     1       3.098   5.594  18.033  0.00  0.00    +0.000 N 
ATOM      2  C   UNL     1       3.002   5.981  19.349  0.00  0.00    +0.000 C 
ATOM      3  O   UNL     1       3.525   5.350  20.264  0.00  0.00    +0.000 OA
ATOM      4  H   UNL     1       2.706   6.187  17.310  0.00  0.00    +0.000 HD
ENDROOT
BRANCH   2   5
ATOM      5  C   UNL     1       2.198   7.193  19.660  0.00  0.00    +0.000 A 
ATOM      6  C   UNL     1       1.545   7.248  20.903  0.00  0.00    +0.000 A 
ATOM      7  C   UNL     1       0.741   8.340  21.230  0.00  0.00    +0.000 A 
ATOM      8  C   UNL     1       0.562   9.399  20.331  0.00  0.00    +0.000 A 
ATOM      9  C   UNL     1       1.228   9.350  19.098  0.00  0.00    +0.000 A 
ATOM     10  C   UNL     1       2.033   8.254  18.771  0.00  0.00    +0.000 A 
ATOM     11  F   UNL     1       2.622   8.251  17.565  0.00  0.00    +0.000 F 
BRANCH   8  12
ATOM     12  C   UNL     1      -0.312  10.518  20.654  0.00  0.00    +0.000 A 
ATOM     13  N   UNL     1      -0.965  11.251  19.737  0.00  0.00    +0.000 NA
ATOM     14  O   UNL     1      -1.625  12.219  20.484  0.00  0.00    +0.000 OA
ATOM     15  C   UNL     1      -1.312  11.988  21.792  0.00  0.00    +0.000 A 
ATOM     16  N   UNL     1      -0.513  10.946  21.948  0.00  0.00    +0.000 NA
BRANCH  15  17
ATOM     17  C   UNL     1      -1.898  12.930  22.778  0.00  0.00    +0.000 C 
ATOM     18  F   UNL     1      -2.466  14.022  22.195  0.00  0.00    +0.000 F 
ATOM     19  F   UNL     1      -2.872  12.347  23.529  0.00  0.00    +0.000 F 
ATOM     20  F   UNL     1      -0.967  13.403  23.650  0.00  0.00    +0.000 F 
ENDBRANCH  15  17
ENDBRANCH   8  12
ENDBRANCH   2   5
BRANCH   1  21
ATOM     21  C   UNL     1       3.816   4.374  17.620  0.00  0.00    +0.000 C 
BRANCH  21  22
ATOM     22  C   UNL     1       2.794   3.385  16.980  0.00  0.00    +0.000 C 
BRANCH  22  24
ATOM     23  C   UNL     1       3.490   1.621  18.518  0.00  0.00    +0.000 C 
ATOM     24  N   UNL     1       2.388   2.172  17.720  0.00  0.00    +0.000 NA
ATOM     25  C   UNL     1       1.296   2.542  18.640  0.00  0.00    +0.000 C 
ENDBRANCH  22  24
ENDBRANCH  21  22
BRANCH  21  26
ATOM     26  C   UNL     1       5.004   4.739  16.688  0.00  0.00    +0.000 C 
BRANCH  26  27
ATOM     27  C   UNL     1       6.001   5.647  17.396  0.00  0.00    +0.000 A 
ATOM     28  C   UNL     1       6.288   6.919  16.877  0.00  0.00    +0.000 A 
ATOM     29  C   UNL     1       7.350   7.670  17.383  0.00  0.00    +0.000 A 
ATOM     30  C   UNL     1       8.121   7.172  18.431  0.00  0.00    +0.000 A 
ATOM     31  C   UNL     1       7.801   5.944  19.006  0.00  0.00    +0.000 A 
ATOM     32  C   UNL     1       6.740   5.188  18.497  0.00  0.00    +0.000 A 
ENDBRANCH  26  27
ENDBRANCH  21  26
ENDBRANCH   1  21
TORSDOF 8
ENDMDL
