MODEL 1
REMARK VINA RESULT:      -8.6      0.000      0.000
REMARK  Name = 
REMARK  6 active torsions:
REMARK  status: ('A' for Active; 'I' for Inactive)
REMARK    1  A    between atoms: C_1  and  C_2
REMARK    2  A    between atoms: C_2  and  C_3
REMARK    3  A    between atoms: C_3  and  C_4
REMARK    4  A    between atoms: C_4  and  C_5
REMARK    5  A    between atoms: C_14  and  C_15
REMARK    6  A    between atoms: C_18  and  C_19
REMARK                            x       y       z     vdW  Elec       q    Type
REMARK                         _______ _______ _______ _____ _____    ______ ____
ROOT
ATOM      1  C   UNL     1       3.326   3.747  17.441  0.00  0.00    +0.000 A 
ATOM      2  N   UNL     1       4.404   3.188  16.931  0.00  0.00    +0.000 NA
ATOM      3  C   UNL     1       5.413   4.067  16.646  0.00  0.00    +0.000 A 
ATOM      4  N   UNL     1       6.632   3.752  16.116  0.00  0.00    +0.000 N 
ATOM      5  N   UNL     1       7.442   4.832  15.956  0.00  0.00    +0.000 NA
ATOM      6  C   UNL     1       6.704   5.861  16.398  0.00  0.00    +0.000 A 
ATOM      7  C   UNL     1       5.455   5.428  16.820  0.00  0.00    +0.000 A 
ATOM      8  C   UNL     1       4.244   6.006  17.383  0.00  0.00    +0.000 A 
ATOM      9  N   UNL     1       3.923   7.225  17.712  0.00  0.00    +0.000 NA
ATOM     10  C   UNL     1       2.650   7.071  18.233  0.00  0.00    +0.000 A 
ATOM     11  N   UNL     1       2.176   5.806  18.203  0.00  0.00    +0.000 NA
ATOM     12  N   UNL     1       3.222   5.139  17.666  0.00  0.00    +0.000 N 
ATOM     13  H   UNL     1       6.973   2.838  15.846  0.00  0.00    +0.000 HD
ENDROOT
BRANCH  10  14
ATOM     14  C   UNL     1       1.937   8.209  18.808  0.00  0.00    +0.000 A 
ATOM     15  C   UNL     1       1.611   8.204  20.173  0.00  0.00    +0.000 A 
ATOM     16  C   UNL     1       0.889   9.255  20.743  0.00  0.00    +0.000 A 
ATOM     17  C   UNL     1       0.475  10.339  19.957  0.00  0.00    +0.000 A 
ATOM     18  C   UNL     1       0.811  10.353  18.594  0.00  0.00    +0.000 A 
ATOM     19  C   UNL     1       1.536   9.298  18.025  0.00  0.00    +0.000 A 
BRANCH  17  20
ATOM     20  C   UNL     1      -0.324  11.470  20.556  0.00  0.00    +0.000 C 
ATOM     21  F   UNL     1       0.387  12.624  20.701  0.00  0.00    +0.000 F 
ATOM     22  F   UNL     1      -1.413  11.795  19.805  0.00  0.00    +0.000 F 
ATOM     23  F   UNL     1      -0.801  11.171  21.797  0.00  0.00    +0.000 F 
ENDBRANCH  17  20
ENDBRANCH  10  14
BRANCH   1  24
ATOM     24  C   UNL     1       2.114   2.929  17.809  0.00  0.00    +0.000 C 
BRANCH  24  25
ATOM     25  C   UNL     1       2.231   2.290  19.195  0.00  0.00    +0.000 C 
BRANCH  25  27
ATOM     26  C   UNL     1       1.846   2.991  21.587  0.00  0.00    +0.000 C 
ATOM     27  C   UNL     1       1.224   2.846  20.206  0.00  0.00    +0.000 C 
ENDBRANCH  25  27
ENDBRANCH  24  25
ENDBRANCH   1  24
TORSDOF 5
ENDMDL
MODEL 2
REMARK VINA RESULT:      -8.5      0.255      1.254
REMARK  Name = 
REMARK  6 active torsions:
REMARK  status: ('A' for Active; 'I' for Inactive)
REMARK    1  A    between atoms: C_1  and  C_2
REMARK    2  A    between atoms: C_2  and  C_3
REMARK    3  A    between atoms: C_3  and  C_4
REMARK    4  A    between atoms: C_4  and  C_5
REMARK    5  A    between atoms: C_14  and  C_15
REMARK    6  A    between atoms: C_18  and  C_19
REMARK                            x       y       z     vdW  Elec       q    Type
REMARK                         _______ _______ _______ _____ _____    ______ ____
ROOT
ATOM      1  C   UNL     1       3.345   3.757  17.453  0.00  0.00    +0.000 A 
ATOM      2  N   UNL     1       4.434   3.215  16.949  0.00  0.00    +0.000 NA
ATOM      3  C   UNL     1       5.440   4.106  16.692  0.00  0.00    +0.000 A 
ATOM      4  N   UNL     1       6.669   3.809  16.174  0.00  0.00    +0.000 N 
ATOM      5  N   UNL     1       7.472   4.897  16.043  0.00  0.00    +0.000 NA
ATOM      6  C   UNL     1       6.721   5.913  16.492  0.00  0.00    +0.000 A 
ATOM      7  C   UNL     1       5.469   5.465  16.890  0.00  0.00    +0.000 A 
ATOM      8  C   UNL     1       4.247   6.024  17.446  0.00  0.00    +0.000 A 
ATOM      9  N   UNL     1       3.912   7.234  17.791  0.00  0.00    +0.000 NA
ATOM     10  C   UNL     1       2.633   7.062  18.292  0.00  0.00    +0.000 A 
ATOM     11  N   UNL     1       2.169   5.794  18.234  0.00  0.00    +0.000 NA
ATOM     12  N   UNL     1       3.227   5.144  17.700  0.00  0.00    +0.000 N 
ATOM     13  H   UNL     1       7.020   2.902  15.893  0.00  0.00    +0.000 HD
ENDROOT
BRANCH  10  14
ATOM     14  C   UNL     1       1.904   8.185  18.877  0.00  0.00    +0.000 A 
ATOM     15  C   UNL     1       1.575   9.289  18.076  0.00  0.00    +0.000 A 
ATOM     16  C   UNL     1       0.921  10.400  18.616  0.00  0.00    +0.000 A 
ATOM     17  C   UNL     1       0.580  10.429  19.975  0.00  0.00    +0.000 A 
ATOM     18  C   UNL     1       0.896   9.320  20.776  0.00  0.00    +0.000 A 
ATOM     19  C   UNL     1       1.551   8.208  20.232  0.00  0.00    +0.000 A 
BRANCH  17  20
ATOM     20  C   UNL     1      -0.107  11.631  20.575  0.00  0.00    +0.000 C 
ATOM     21  F   UNL     1      -0.895  11.330  21.647  0.00  0.00    +0.000 F 
ATOM     22  F   UNL     1       0.774  12.572  21.013  0.00  0.00    +0.000 F 
ATOM     23  F   UNL     1      -0.921  12.265  19.685  0.00  0.00    +0.000 F 
ENDBRANCH  17  20
ENDBRANCH  10  14
BRANCH   1  24
ATOM     24  C   UNL     1       2.135   2.924  17.791  0.00  0.00    +0.000 C 
BRANCH  24  25
ATOM     25  C   UNL     1       2.203   2.325  19.198  0.00  0.00    +0.000 C 
BRANCH  25  27
ATOM     26  C   UNL     1       1.881   3.753  21.250  0.00  0.00    +0.000 C 
ATOM     27  C   UNL     1       1.190   2.937  20.168  0.00  0.00    +0.000 C 
ENDBRANCH  25  27
ENDBRANCH  24  25
ENDBRANCH   1  24
TORSDOF 5
ENDMDL
MODEL 3
REMARK VINA RESULT:      -8.2      1.146      3.456
REMARK  Name = 
REMARK  6 active torsions:
REMARK  status: ('A' for Active; 'I' for Inactive)
REMARK    1  A    between atoms: C_1  and  C_2
REMARK    2  A    between atoms: C_2  and  C_3
REMARK    3  A    between atoms: C_3  and  C_4
REMARK    4  A    between atoms: C_4  and  C_5
REMARK    5  A    between atoms: C_14  and  C_15
REMARK    6  A    between atoms: C_18  and  C_19
REMARK                            x       y       z     vdW  Elec       q    Type
REMARK                         _______ _______ _______ _____ _____    ______ ____
ROOT
ATOM      1  C   UNL     1       4.758   5.073  16.865  0.00  0.00    +0.000 A 
ATOM      2  N   UNL     1       4.908   3.765  16.831  0.00  0.00    +0.000 NA
ATOM      3  C   UNL     1       4.089   3.082  17.688  0.00  0.00    +0.000 A 
ATOM      4  N   UNL     1       4.038   1.727  17.849  0.00  0.00    +0.000 N 
ATOM      5  N   UNL     1       3.114   1.329  18.762  0.00  0.00    +0.000 NA
ATOM      6  C   UNL     1       2.566   2.476  19.192  0.00  0.00    +0.000 A 
ATOM      7  C   UNL     1       3.146   3.568  18.561  0.00  0.00    +0.000 A 
ATOM      8  C   UNL     1       3.014   5.016  18.569  0.00  0.00    +0.000 A 
ATOM      9  N   UNL     1       2.228   5.823  19.224  0.00  0.00    +0.000 NA
ATOM     10  C   UNL     1       2.589   7.064  18.726  0.00  0.00    +0.000 A 
ATOM     11  N   UNL     1       3.588   7.039  17.816  0.00  0.00    +0.000 NA
ATOM     12  N   UNL     1       3.834   5.714  17.722  0.00  0.00    +0.000 N 
ATOM     13  H   UNL     1       4.595   1.026  17.376  0.00  0.00    +0.000 HD
ENDROOT
BRANCH  10  14
ATOM     14  C   UNL     1       1.879   8.270  19.145  0.00  0.00    +0.000 A 
ATOM     15  C   UNL     1       1.440   8.390  20.472  0.00  0.00    +0.000 A 
ATOM     16  C   UNL     1       0.716   9.509  20.892  0.00  0.00    +0.000 A 
ATOM     17  C   UNL     1       0.414  10.537  19.989  0.00  0.00    +0.000 A 
ATOM     18  C   UNL     1       0.862  10.426  18.664  0.00  0.00    +0.000 A 
ATOM     19  C   UNL     1       1.589   9.303  18.245  0.00  0.00    +0.000 A 
BRANCH  17  20
ATOM     20  C   UNL     1      -0.385  11.740  20.425  0.00  0.00    +0.000 C 
ATOM     21  F   UNL     1       0.027  12.906  19.850  0.00  0.00    +0.000 F 
ATOM     22  F   UNL     1      -1.708  11.625  20.124  0.00  0.00    +0.000 F 
ATOM     23  F   UNL     1      -0.324  11.948  21.770  0.00  0.00    +0.000 F 
ENDBRANCH  17  20
ENDBRANCH  10  14
BRANCH   1  24
ATOM     24  C   UNL     1       5.584   5.983  15.991  0.00  0.00    +0.000 C 
BRANCH  24  25
ATOM     25  C   UNL     1       7.060   6.009  16.392  0.00  0.00    +0.000 C 
BRANCH  25  27
ATOM     26  C   UNL     1       7.746   6.116  18.816  0.00  0.00    +0.000 C 
ATOM     27  C   UNL     1       7.348   6.921  17.588  0.00  0.00    +0.000 C 
ENDBRANCH  25  27
ENDBRANCH  24  25
ENDBRANCH   1  24
TORSDOF 5
ENDMDL
MODEL 4
REMARK VINA RESULT:      -8.2      1.075      1.378
REMARK  Name = 
REMARK  6 active torsions:
REMARK  status: ('A' for Active; 'I' for Inactive)
REMARK    1  A    between atoms: C_1  and  C_2
REMARK    2  A    between atoms: C_2  and  C_3
REMARK    3  A    between atoms: C_3  and  C_4
REMARK    4  A    between atoms: C_4  and  C_5
REMARK    5  A    between atoms: C_14  and  C_15
REMARK    6  A    between atoms: C_18  and  C_19
REMARK                            x       y       z     vdW  Elec       q    Type
REMARK                         _______ _______ _______ _____ _____    ______ ____
ROOT
ATOM      1  C   UNL     1       3.929   4.013  18.514  0.00  0.00    +0.000 A 
ATOM      2  N   UNL     1       4.780   3.615  17.591  0.00  0.00    +0.000 NA
ATOM      3  C   UNL     1       5.116   4.579  16.681  0.00  0.00    +0.000 A 
ATOM      4  N   UNL     1       5.976   4.432  15.630  0.00  0.00    +0.000 N 
ATOM      5  N   UNL     1       6.132   5.569  14.902  0.00  0.00    +0.000 NA
ATOM      6  C   UNL     1       5.340   6.460  15.516  0.00  0.00    +0.000 A 
ATOM      7  C   UNL     1       4.698   5.885  16.604  0.00  0.00    +0.000 A 
ATOM      8  C   UNL     1       3.757   6.283  17.639  0.00  0.00    +0.000 A 
ATOM      9  N   UNL     1       3.174   7.417  17.907  0.00  0.00    +0.000 NA
ATOM     10  C   UNL     1       2.449   7.121  19.049  0.00  0.00    +0.000 A 
ATOM     11  N   UNL     1       2.549   5.839  19.465  0.00  0.00    +0.000 NA
ATOM     12  N   UNL     1       3.404   5.326  18.553  0.00  0.00    +0.000 N 
ATOM     13  H   UNL     1       6.484   3.600  15.356  0.00  0.00    +0.000 HD
ENDROOT
BRANCH  10  14
ATOM     14  C   UNL     1       1.695   8.161  19.743  0.00  0.00    +0.000 A 
ATOM     15  C   UNL     1       1.319   7.968  21.081  0.00  0.00    +0.000 A 
ATOM     16  C   UNL     1       0.556   8.922  21.759  0.00  0.00    +0.000 A 
ATOM     17  C   UNL     1       0.152  10.097  21.110  0.00  0.00    +0.000 A 
ATOM     18  C   UNL     1       0.538  10.300  19.776  0.00  0.00    +0.000 A 
ATOM     19  C   UNL     1       1.304   9.341  19.099  0.00  0.00    +0.000 A 
BRANCH  17  20
ATOM     20  C   UNL     1      -0.690  11.126  21.824  0.00  0.00    +0.000 C 
ATOM     21  F   UNL     1      -1.764  11.550  21.099  0.00  0.00    +0.000 F 
ATOM     22  F   UNL     1      -1.195  10.663  23.000  0.00  0.00    +0.000 F 
ATOM     23  F   UNL     1       0.014  12.250  22.136  0.00  0.00    +0.000 F 
ENDBRANCH  17  20
ENDBRANCH  10  14
BRANCH   1  24
ATOM     24  C   UNL     1       3.443   3.079  19.594  0.00  0.00    +0.000 C 
BRANCH  24  25
ATOM     25  C   UNL     1       2.182   2.312  19.189  0.00  0.00    +0.000 C 
BRANCH  25  27
ATOM     26  C   UNL     1       1.334   2.813  21.510  0.00  0.00    +0.000 C 
ATOM     27  C   UNL     1       0.960   2.660  20.043  0.00  0.00    +0.000 C 
ENDBRANCH  25  27
ENDBRANCH  24  25
ENDBRANCH   1  24
TORSDOF 5
ENDMDL
MODEL 5
REMARK VINA RESULT:      -8.1      1.334      3.666
REMARK  Name = 
REMARK  6 active torsions:
REMARK  status: ('A' for Active; 'I' for Inactive)
REMARK    1  A    between atoms: C_1  and  C_2
REMARK    2  A    between atoms: C_2  and  C_3
REMARK    3  A    between atoms: C_3  and  C_4
REMARK    4  A    between atoms: C_4  and  C_5
REMARK    5  A    between atoms: C_14  and  C_15
REMARK    6  A    between atoms: C_18  and  C_19
REMARK                            x       y       z     vdW  Elec       q    Type
REMARK                         _______ _______ _______ _____ _____    ______ ____
ROOT
ATOM      1  C   UNL     1       4.548   5.309  17.098  0.00  0.00    +0.000 A 
ATOM      2  N   UNL     1       4.760   4.023  16.910  0.00  0.00    +0.000 NA
ATOM      3  C   UNL     1       4.044   3.206  17.740  0.00  0.00    +0.000 A 
ATOM      4  N   UNL     1       4.075   1.840  17.753  0.00  0.00    +0.000 N 
ATOM      5  N   UNL     1       3.243   1.293  18.677  0.00  0.00    +0.000 NA
ATOM      6  C   UNL     1       2.671   2.353  19.268  0.00  0.00    +0.000 A 
ATOM      7  C   UNL     1       3.145   3.538  18.724  0.00  0.00    +0.000 A 
ATOM      8  C   UNL     1       2.940   4.967  18.901  0.00  0.00    +0.000 A 
ATOM      9  N   UNL     1       2.166   5.652  19.693  0.00  0.00    +0.000 NA
ATOM     10  C   UNL     1       2.424   6.958  19.313  0.00  0.00    +0.000 A 
ATOM     11  N   UNL     1       3.352   7.090  18.340  0.00  0.00    +0.000 NA
ATOM     12  N   UNL     1       3.658   5.799  18.082  0.00  0.00    +0.000 N 
ATOM     13  H   UNL     1       4.630   1.227  17.167  0.00  0.00    +0.000 HD
ENDROOT
BRANCH  10  14
ATOM     14  C   UNL     1       1.686   8.068  19.910  0.00  0.00    +0.000 A 
ATOM     15  C   UNL     1       1.396   9.203  19.138  0.00  0.00    +0.000 A 
ATOM     16  C   UNL     1       0.734  10.301  19.693  0.00  0.00    +0.000 A 
ATOM     17  C   UNL     1       0.346  10.288  21.039  0.00  0.00    +0.000 A 
ATOM     18  C   UNL     1       0.623   9.149  21.812  0.00  0.00    +0.000 A 
ATOM     19  C   UNL     1       1.287   8.049  21.252  0.00  0.00    +0.000 A 
BRANCH  17  20
ATOM     20  C   UNL     1      -0.350  11.476  21.656  0.00  0.00    +0.000 C 
ATOM     21  F   UNL     1       0.389  12.621  21.620  0.00  0.00    +0.000 F 
ATOM     22  F   UNL     1      -1.526  11.772  21.036  0.00  0.00    +0.000 F 
ATOM     23  F   UNL     1      -0.659  11.275  22.968  0.00  0.00    +0.000 F 
ENDBRANCH  17  20
ENDBRANCH  10  14
BRANCH   1  24
ATOM     24  C   UNL     1       5.258   6.354  16.275  0.00  0.00    +0.000 C 
BRANCH  24  25
ATOM     25  C   UNL     1       6.781   6.266  16.394  0.00  0.00    +0.000 C 
BRANCH  25  27
ATOM     26  C   UNL     1       7.786   6.260  18.707  0.00  0.00    +0.000 C 
ATOM     27  C   UNL     1       7.351   7.120  17.529  0.00  0.00    +0.000 C 
ENDBRANCH  25  27
ENDBRANCH  24  25
ENDBRANCH   1  24
TORSDOF 5
ENDMDL
MODEL 6
REMARK VINA RESULT:      -8.1      1.202      3.744
REMARK  Name = 
REMARK  6 active torsions:
REMARK  status: ('A' for Active; 'I' for Inactive)
REMARK    1  A    between atoms: C_1  and  C_2
REMARK    2  A    between atoms: C_2  and  C_3
REMARK    3  A    between atoms: C_3  and  C_4
REMARK    4  A    between atoms: C_4  and  C_5
REMARK    5  A    between atoms: C_14  and  C_15
REMARK    6  A    between atoms: C_18  and  C_19
REMARK                            x       y       z     vdW  Elec       q    Type
REMARK                         _______ _______ _______ _____ _____    ______ ____
ROOT
ATOM      1  C   UNL     1       4.795   5.155  16.945  0.00  0.00    +0.000 A 
ATOM      2  N   UNL     1       4.948   3.849  16.882  0.00  0.00    +0.000 NA
ATOM      3  C   UNL     1       4.094   3.142  17.684  0.00  0.00    +0.000 A 
ATOM      4  N   UNL     1       4.039   1.782  17.805  0.00  0.00    +0.000 N 
ATOM      5  N   UNL     1       3.077   1.359  18.666  0.00  0.00    +0.000 NA
ATOM      6  C   UNL     1       2.510   2.492  19.104  0.00  0.00    +0.000 A 
ATOM      7  C   UNL     1       3.114   3.602  18.528  0.00  0.00    +0.000 A 
ATOM      8  C   UNL     1       2.979   5.049  18.571  0.00  0.00    +0.000 A 
ATOM      9  N   UNL     1       2.164   5.837  19.213  0.00  0.00    +0.000 NA
ATOM     10  C   UNL     1       2.544   7.092  18.767  0.00  0.00    +0.000 A 
ATOM     11  N   UNL     1       3.580   7.093  17.900  0.00  0.00    +0.000 NA
ATOM     12  N   UNL     1       3.833   5.771  17.779  0.00  0.00    +0.000 N 
ATOM     13  H   UNL     1       4.617   1.095  17.337  0.00  0.00    +0.000 HD
ENDROOT
BRANCH  10  14
ATOM     14  C   UNL     1       1.814   8.285  19.188  0.00  0.00    +0.000 A 
ATOM     15  C   UNL     1       1.551   9.301  18.256  0.00  0.00    +0.000 A 
ATOM     16  C   UNL     1       0.898  10.475  18.638  0.00  0.00    +0.000 A 
ATOM     17  C   UNL     1       0.490  10.659  19.967  0.00  0.00    +0.000 A 
ATOM     18  C   UNL     1       0.739   9.639  20.898  0.00  0.00    +0.000 A 
ATOM     19  C   UNL     1       1.394   8.462  20.512  0.00  0.00    +0.000 A 
BRANCH  17  20
ATOM     20  C   UNL     1      -0.197  11.932  20.397  0.00  0.00    +0.000 C 
ATOM     21  F   UNL     1      -0.447  12.792  19.368  0.00  0.00    +0.000 F 
ATOM     22  F   UNL     1      -1.402  11.701  20.989  0.00  0.00    +0.000 F 
ATOM     23  F   UNL     1       0.535  12.640  21.302  0.00  0.00    +0.000 F 
ENDBRANCH  17  20
ENDBRANCH  10  14
BRANCH   1  24
ATOM     24  C   UNL     1       5.655   6.089  16.133  0.00  0.00    +0.000 C 
BRANCH  24  25
ATOM     25  C   UNL     1       7.132   6.025  16.526  0.00  0.00    +0.000 C 
BRANCH  25  27
ATOM     26  C   UNL     1       7.815   8.175  17.651  0.00  0.00    +0.000 C 
ATOM     27  C   UNL     1       7.437   6.716  17.857  0.00  0.00    +0.000 C 
ENDBRANCH  25  27
ENDBRANCH  24  25
ENDBRANCH   1  24
TORSDOF 5
ENDMDL
MODEL 7
REMARK VINA RESULT:      -8.1      1.718      3.910
REMARK  Name = 
REMARK  6 active torsions:
REMARK  status: ('A' for Active; 'I' for Inactive)
REMARK    1  A    between atoms: C_1  and  C_2
REMARK    2  A    between atoms: C_2  and  C_3
REMARK    3  A    between atoms: C_3  and  C_4
REMARK    4  A    between atoms: C_4  and  C_5
REMARK    5  A    between atoms: C_14  and  C_15
REMARK    6  A    between atoms: C_18  and  C_19
REMARK                            x       y       z     vdW  Elec       q    Type
REMARK                         _______ _______ _______ _____ _____    ______ ____
ROOT
ATOM      1  C   UNL     1       5.048   5.491  17.702  0.00  0.00    +0.000 A 
ATOM      2  N   UNL     1       5.421   4.265  18.010  0.00  0.00    +0.000 NA
ATOM      3  C   UNL     1       4.685   3.687  19.007  0.00  0.00    +0.000 A 
ATOM      4  N   UNL     1       4.858   2.430  19.514  0.00  0.00    +0.000 N 
ATOM      5  N   UNL     1       3.966   2.117  20.490  0.00  0.00    +0.000 NA
ATOM      6  C   UNL     1       3.207   3.218  20.602  0.00  0.00    +0.000 A 
ATOM      7  C   UNL     1       3.625   4.200  19.715  0.00  0.00    +0.000 A 
ATOM      8  C   UNL     1       3.247   5.555  19.346  0.00  0.00    +0.000 A 
ATOM      9  N   UNL     1       2.300   6.347  19.761  0.00  0.00    +0.000 NA
ATOM     10  C   UNL     1       2.470   7.465  18.962  0.00  0.00    +0.000 A 
ATOM     11  N   UNL     1       3.507   7.390  18.099  0.00  0.00    +0.000 NA
ATOM     12  N   UNL     1       3.981   6.151  18.354  0.00  0.00    +0.000 N 
ATOM     13  H   UNL     1       5.552   1.743  19.244  0.00  0.00    +0.000 HD
ENDROOT
BRANCH  10  14
ATOM     14  C   UNL     1       1.542   8.589  19.047  0.00  0.00    +0.000 A 
ATOM     15  C   UNL     1       0.980   8.932  20.286  0.00  0.00    +0.000 A 
ATOM     16  C   UNL     1       0.052   9.971  20.393  0.00  0.00    +0.000 A 
ATOM     17  C   UNL     1      -0.335  10.694  19.256  0.00  0.00    +0.000 A 
ATOM     18  C   UNL     1       0.234  10.362  18.017  0.00  0.00    +0.000 A 
ATOM     19  C   UNL     1       1.165   9.319  17.913  0.00  0.00    +0.000 A 
BRANCH  17  20
ATOM     20  C   UNL     1      -1.353  11.804  19.354  0.00  0.00    +0.000 C 
ATOM     21  F   UNL     1      -2.640  11.379  19.206  0.00  0.00    +0.000 F 
ATOM     22  F   UNL     1      -1.309  12.448  20.552  0.00  0.00    +0.000 F 
ATOM     23  F   UNL     1      -1.168  12.765  18.405  0.00  0.00    +0.000 F 
ENDBRANCH  17  20
ENDBRANCH  10  14
BRANCH   1  24
ATOM     24  C   UNL     1       5.753   6.282  16.630  0.00  0.00    +0.000 C 
BRANCH  24  25
ATOM     25  C   UNL     1       7.274   6.283  16.799  0.00  0.00    +0.000 C 
BRANCH  25  27
ATOM     26  C   UNL     1       7.939   8.517  17.764  0.00  0.00    +0.000 C 
ATOM     27  C   UNL     1       7.744   7.034  18.048  0.00  0.00    +0.000 C 
ENDBRANCH  25  27
ENDBRANCH  24  25
ENDBRANCH   1  24
TORSDOF 5
ENDMDL
MODEL 8
REMARK VINA RESULT:      -8.1      1.017      1.092
REMARK  Name = 
REMARK  6 active torsions:
REMARK  status: ('A' for Active; 'I' for Inactive)
REMARK    1  A    between atoms: C_1  and  C_2
REMARK    2  A    between atoms: C_2  and  C_3
REMARK    3  A    between atoms: C_3  and  C_4
REMARK    4  A    between atoms: C_4  and  C_5
REMARK    5  A    between atoms: C_14  and  C_15
REMARK    6  A    between atoms: C_18  and  C_19
REMARK                            x       y       z     vdW  Elec       q    Type
REMARK                         _______ _______ _______ _____ _____    ______ ____
ROOT
ATOM      1  C   UNL     1       4.391   4.107  19.001  0.00  0.00    +0.000 A 
ATOM      2  N   UNL     1       5.487   3.638  18.441  0.00  0.00    +0.000 NA
ATOM      3  C   UNL     1       6.081   4.496  17.557  0.00  0.00    +0.000 A 
ATOM      4  N   UNL     1       7.223   4.260  16.846  0.00  0.00    +0.000 N 
ATOM      5  N   UNL     1       7.587   5.303  16.055  0.00  0.00    +0.000 NA
ATOM      6  C   UNL     1       6.639   6.225  16.274  0.00  0.00    +0.000 A 
ATOM      7  C   UNL     1       5.697   5.760  17.182  0.00  0.00    +0.000 A 
ATOM      8  C   UNL     1       4.482   6.240  17.819  0.00  0.00    +0.000 A 
ATOM      9  N   UNL     1       3.836   7.370  17.743  0.00  0.00    +0.000 NA
ATOM     10  C   UNL     1       2.798   7.185  18.640  0.00  0.00    +0.000 A 
ATOM     11  N   UNL     1       2.774   5.971  19.234  0.00  0.00    +0.000 NA
ATOM     12  N   UNL     1       3.871   5.388  18.702  0.00  0.00    +0.000 N 
ATOM     13  H   UNL     1       7.796   3.425  16.853  0.00  0.00    +0.000 HD
ENDROOT
BRANCH  10  14
ATOM     14  C   UNL     1       1.860   8.266  18.928  0.00  0.00    +0.000 A 
ATOM     15  C   UNL     1       1.395   8.450  20.238  0.00  0.00    +0.000 A 
ATOM     16  C   UNL     1       0.460   9.445  20.537  0.00  0.00    +0.000 A 
ATOM     17  C   UNL     1      -0.031  10.282  19.526  0.00  0.00    +0.000 A 
ATOM     18  C   UNL     1       0.442  10.109  18.216  0.00  0.00    +0.000 A 
ATOM     19  C   UNL     1       1.379   9.111  17.919  0.00  0.00    +0.000 A 
BRANCH  17  20
ATOM     20  C   UNL     1      -1.056  11.346  19.832  0.00  0.00    +0.000 C 
ATOM     21  F   UNL     1      -0.646  12.607  19.513  0.00  0.00    +0.000 F 
ATOM     22  F   UNL     1      -2.224  11.155  19.159  0.00  0.00    +0.000 F 
ATOM     23  F   UNL     1      -1.387  11.388  21.153  0.00  0.00    +0.000 F 
ENDBRANCH  17  20
ENDBRANCH  10  14
BRANCH   1  24
ATOM     24  C   UNL     1       3.604   3.294  19.996  0.00  0.00    +0.000 C 
BRANCH  24  25
ATOM     25  C   UNL     1       2.769   2.196  19.334  0.00  0.00    +0.000 C 
BRANCH  25  27
ATOM     26  C   UNL     1       0.977   3.303  20.720  0.00  0.00    +0.000 C 
ATOM     27  C   UNL     1       1.263   2.356  19.564  0.00  0.00    +0.000 C 
ENDBRANCH  25  27
ENDBRANCH  24  25
ENDBRANCH   1  24
TORSDOF 5
ENDMDL
MODEL 9
REMARK VINA RESULT:      -8.0      5.006      8.336
REMARK  Name = 
REMARK  6 active torsions:
REMARK  status: ('A' for Active; 'I' for Inactive)
REMARK    1  A    between atoms: C_1  and  C_2
REMARK    2  A    between atoms: C_2  and  C_3
REMARK    3  A    between atoms: C_3  and  C_4
REMARK    4  A    between atoms: C_4  and  C_5
REMARK    5  A    between atoms: C_14  and  C_15
REMARK    6  A    between atoms: C_18  and  C_19
REMARK                            x       y       z     vdW  Elec       q    Type
REMARK                         _______ _______ _______ _____ _____    ______ ____
ROOT
ATOM      1  C   UNL     1      -0.201  10.246  19.034  0.00  0.00    +0.000 A 
ATOM      2  N   UNL     1      -0.707  10.792  20.121  0.00  0.00    +0.000 NA
ATOM      3  C   UNL     1      -0.226  10.272  21.290  0.00  0.00    +0.000 A 
ATOM      4  N   UNL     1      -0.579  10.658  22.552  0.00  0.00    +0.000 N 
ATOM      5  N   UNL     1       0.077   9.974  23.526  0.00  0.00    +0.000 NA
ATOM      6  C   UNL     1       0.868   9.126  22.852  0.00  0.00    +0.000 A 
ATOM      7  C   UNL     1       0.702   9.278  21.482  0.00  0.00    +0.000 A 
ATOM      8  C   UNL     1       1.235   8.700  20.258  0.00  0.00    +0.000 A 
ATOM      9  N   UNL     1       2.130   7.779  20.038  0.00  0.00    +0.000 NA
ATOM     10  C   UNL     1       2.198   7.748  18.656  0.00  0.00    +0.000 A 
ATOM     11  N   UNL     1       1.352   8.596  18.030  0.00  0.00    +0.000 NA
ATOM     12  N   UNL     1       0.755   9.205  19.078  0.00  0.00    +0.000 N 
ATOM     13  H   UNL     1      -1.249  11.370  22.817  0.00  0.00    +0.000 HD
ENDROOT
BRANCH  10  14
ATOM     14  C   UNL     1       3.162   6.888  17.976  0.00  0.00    +0.000 A 
ATOM     15  C   UNL     1       4.192   7.466  17.217  0.00  0.00    +0.000 A 
ATOM     16  C   UNL     1       5.102   6.670  16.516  0.00  0.00    +0.000 A 
ATOM     17  C   UNL     1       5.001   5.273  16.559  0.00  0.00    +0.000 A 
ATOM     18  C   UNL     1       3.980   4.692  17.327  0.00  0.00    +0.000 A 
ATOM     19  C   UNL     1       3.069   5.492  18.030  0.00  0.00    +0.000 A 
BRANCH  17  20
ATOM     20  C   UNL     1       5.964   4.403  15.789  0.00  0.00    +0.000 C 
ATOM     21  F   UNL     1       7.239   4.442  16.270  0.00  0.00    +0.000 F 
ATOM     22  F   UNL     1       5.603   3.091  15.797  0.00  0.00    +0.000 F 
ATOM     23  F   UNL     1       6.053   4.759  14.476  0.00  0.00    +0.000 F 
ENDBRANCH  17  20
ENDBRANCH  10  14
BRANCH   1  24
ATOM     24  C   UNL     1      -0.623  10.693  17.658  0.00  0.00    +0.000 C 
BRANCH  24  25
ATOM     25  C   UNL     1      -1.900  10.001  17.177  0.00  0.00    +0.000 C 
BRANCH  25  27
ATOM     26  C   UNL     1      -2.970  10.097  14.896  0.00  0.00    +0.000 C 
ATOM     27  C   UNL     1      -2.715  10.847  16.195  0.00  0.00    +0.000 C 
ENDBRANCH  25  27
ENDBRANCH  24  25
ENDBRANCH   1  24
TORSDOF 5
ENDMDL
