MODEL 1
REMARK VINA RESULT:      -8.1      0.000      0.000
REMARK  Name = 
REMARK  4 active torsions:
REMARK  status: ('A' for Active; 'I' for Inactive)
REMARK    1  A    between atoms: C_2  and  C_4
REMARK    2  A    between atoms: C_9  and  N_10
REMARK    3  A    between atoms: C_11  and  C_13
REMARK    4  A    between atoms: C_18  and  C_20
REMARK                            x       y       z     vdW  Elec       q    Type
REMARK                         _______ _______ _______ _____ _____    ______ ____
ROOT
ATOM      1  N   UNL     1       2.319   7.141  19.643  0.00  0.00    +0.000 N 
ATOM      2  C   UNL     1       2.155   5.796  19.959  0.00  0.00    +0.000 C 
ATOM      3  O   UNL     1       1.340   5.341  20.756  0.00  0.00    +0.000 OA
ATOM      4  H   UNL     1       2.878   7.330  18.812  0.00  0.00    +0.000 HD
ENDROOT
BRANCH   2   5
ATOM      5  C   UNL     1       3.033   4.889  19.235  0.00  0.00    +0.000 A 
ATOM      6  C   UNL     1       3.510   3.698  19.735  0.00  0.00    +0.000 A 
ATOM      7  O   UNL     1       4.293   3.120  18.787  0.00  0.00    +0.000 OA
ATOM      8  C   UNL     1       4.299   4.026  17.765  0.00  0.00    +0.000 A 
ATOM      9  N   UNL     1       5.095   3.675  16.716  0.00  0.00    +0.000 N 
ATOM     10  C   UNL     1       5.420   4.578  15.731  0.00  0.00    +0.000 C 
ATOM     11  O   UNL     1       5.069   5.759  15.725  0.00  0.00    +0.000 OA
ATOM     12  N   UNL     1       3.544   5.086  17.970  0.00  0.00    +0.000 NA
ATOM     13  H   UNL     1       5.507   2.756  16.750  0.00  0.00    +0.000 HD
BRANCH  10  14
ATOM     14  C   UNL     1       6.321   3.966  14.617  0.00  0.00    +0.000 C 
ATOM     15  C   UNL     1       5.621   3.644  13.268  0.00  0.00    +0.000 C 
ATOM     16  C   UNL     1       6.876   4.156  12.546  0.00  0.00    +0.000 C 
ATOM     17  C   UNL     1       7.221   4.948  13.820  0.00  0.00    +0.000 C 
ENDBRANCH  10  14
ENDBRANCH   2   5
BRANCH   1  23
ATOM     18  C   UNL     1       1.088   9.293  19.536  0.00  0.00    +0.000 A 
ATOM     19  C   UNL     1       0.375  10.316  20.200  0.00  0.00    +0.000 A 
ATOM     20  C   UNL     1       0.245  10.316  21.587  0.00  0.00    +0.000 A 
ATOM     21  C   UNL     1       0.832   9.301  22.324  0.00  0.00    +0.000 A 
ATOM     22  C   UNL     1       1.532   8.281  21.674  0.00  0.00    +0.000 A 
ATOM     23  C   UNL     1       1.654   8.232  20.274  0.00  0.00    +0.000 A 
BRANCH  18  25
ATOM     24  N   UNL     1      -0.020   9.840  17.425  0.00  0.00    +0.000 N 
ATOM     25  C   UNL     1       1.117   9.413  18.054  0.00  0.00    +0.000 C 
ATOM     26  O   UNL     1       2.096   9.073  17.403  0.00  0.00    +0.000 OA
ATOM     27  H   UNL     1      -0.002   9.742  16.414  0.00  0.00    +0.000 HD
ATOM     28  H   UNL     1      -0.927   9.748  17.860  0.00  0.00    +0.000 HD
ENDBRANCH  18  25
ENDBRANCH   1  23
TORSDOF 4
ENDMDL
MODEL 2
REMARK VINA RESULT:      -7.8      1.857      7.911
REMARK  Name = 
REMARK  4 active torsions:
REMARK  status: ('A' for Active; 'I' for Inactive)
REMARK    1  A    between atoms: C_2  and  C_4
REMARK    2  A    between atoms: C_9  and  N_10
REMARK    3  A    between atoms: C_11  and  C_13
REMARK    4  A    between atoms: C_18  and  C_20
REMARK                            x       y       z     vdW  Elec       q    Type
REMARK                         _______ _______ _______ _____ _____    ______ ____
ROOT
ATOM      1  N   UNL     1       4.497   5.286  17.565  0.00  0.00    +0.000 N 
ATOM      2  C   UNL     1       4.478   4.548  18.745  0.00  0.00    +0.000 C 
ATOM      3  O   UNL     1       5.294   3.690  19.068  0.00  0.00    +0.000 OA
ATOM      4  H   UNL     1       3.886   6.101  17.549  0.00  0.00    +0.000 HD
ENDROOT
BRANCH   2   5
ATOM      5  C   UNL     1       3.390   4.882  19.653  0.00  0.00    +0.000 A 
ATOM      6  C   UNL     1       2.671   3.961  20.382  0.00  0.00    +0.000 A 
ATOM      7  O   UNL     1       1.743   4.627  21.116  0.00  0.00    +0.000 OA
ATOM      8  C   UNL     1       1.907   5.933  20.751  0.00  0.00    +0.000 A 
ATOM      9  N   UNL     1       1.015   6.788  21.324  0.00  0.00    +0.000 N 
ATOM     10  C   UNL     1       0.869   8.079  20.875  0.00  0.00    +0.000 C 
ATOM     11  O   UNL     1       1.481   8.556  19.918  0.00  0.00    +0.000 OA
ATOM     12  N   UNL     1       2.892   6.143  19.901  0.00  0.00    +0.000 NA
ATOM     13  H   UNL     1       0.405   6.398  22.026  0.00  0.00    +0.000 HD
BRANCH  10  14
ATOM     14  C   UNL     1      -0.188   8.890  21.683  0.00  0.00    +0.000 C 
ATOM     15  C   UNL     1       0.285   9.466  23.046  0.00  0.00    +0.000 C 
ATOM     16  C   UNL     1      -0.511  10.741  22.732  0.00  0.00    +0.000 C 
ATOM     17  C   UNL     1      -0.436  10.358  21.243  0.00  0.00    +0.000 C 
ENDBRANCH  10  14
ENDBRANCH   2   5
BRANCH   1  23
ATOM     18  C   UNL     1       6.673   5.689  16.441  0.00  0.00    +0.000 A 
ATOM     19  C   UNL     1       7.557   5.409  15.375  0.00  0.00    +0.000 A 
ATOM     20  C   UNL     1       7.178   4.568  14.330  0.00  0.00    +0.000 A 
ATOM     21  C   UNL     1       5.912   4.008  14.335  0.00  0.00    +0.000 A 
ATOM     22  C   UNL     1       5.034   4.275  15.390  0.00  0.00    +0.000 A 
ATOM     23  C   UNL     1       5.395   5.091  16.476  0.00  0.00    +0.000 A 
BRANCH  18  25
ATOM     24  N   UNL     1       7.611   7.840  17.130  0.00  0.00    +0.000 N 
ATOM     25  C   UNL     1       7.227   6.579  17.495  0.00  0.00    +0.000 C 
ATOM     26  O   UNL     1       7.406   6.183  18.640  0.00  0.00    +0.000 OA
ATOM     27  H   UNL     1       8.134   8.342  17.842  0.00  0.00    +0.000 HD
ATOM     28  H   UNL     1       7.847   8.061  16.173  0.00  0.00    +0.000 HD
ENDBRANCH  18  25
ENDBRANCH   1  23
TORSDOF 4
ENDMDL
MODEL 3
REMARK VINA RESULT:      -7.8      2.462      4.119
REMARK  Name = 
REMARK  4 active torsions:
REMARK  status: ('A' for Active; 'I' for Inactive)
REMARK    1  A    between atoms: C_2  and  C_4
REMARK    2  A    between atoms: C_9  and  N_10
REMARK    3  A    between atoms: C_11  and  C_13
REMARK    4  A    between atoms: C_18  and  C_20
REMARK                            x       y       z     vdW  Elec       q    Type
REMARK                         _______ _______ _______ _____ _____    ______ ____
ROOT
ATOM      1  N   UNL     1       3.934   5.491  18.222  0.00  0.00    +0.000 N 
ATOM      2  C   UNL     1       5.285   5.296  18.489  0.00  0.00    +0.000 C 
ATOM      3  O   UNL     1       5.831   5.447  19.578  0.00  0.00    +0.000 OA
ATOM      4  H   UNL     1       3.605   5.115  17.333  0.00  0.00    +0.000 HD
ENDROOT
BRANCH   2   5
ATOM      5  C   UNL     1       6.073   4.848  17.348  0.00  0.00    +0.000 A 
ATOM      6  C   UNL     1       7.448   4.825  17.310  0.00  0.00    +0.000 A 
ATOM      7  O   UNL     1       7.834   4.349  16.098  0.00  0.00    +0.000 OA
ATOM      8  C   UNL     1       6.659   4.156  15.429  0.00  0.00    +0.000 A 
ATOM      9  N   UNL     1       6.814   3.740  14.141  0.00  0.00    +0.000 N 
ATOM     10  C   UNL     1       5.763   3.748  13.254  0.00  0.00    +0.000 C 
ATOM     11  O   UNL     1       4.632   4.157  13.519  0.00  0.00    +0.000 OA
ATOM     12  N   UNL     1       5.579   4.414  16.137  0.00  0.00    +0.000 NA
ATOM     13  H   UNL     1       7.753   3.518  13.849  0.00  0.00    +0.000 HD
BRANCH  10  14
ATOM     14  C   UNL     1       6.153   3.212  11.844  0.00  0.00    +0.000 C 
ATOM     15  C   UNL     1       7.576   2.604  11.710  0.00  0.00    +0.000 C 
ATOM     16  C   UNL     1       6.976   1.514  10.809  0.00  0.00    +0.000 C 
ATOM     17  C   UNL     1       5.608   1.813  11.447  0.00  0.00    +0.000 C 
ENDBRANCH  10  14
ENDBRANCH   2   5
BRANCH   1  23
ATOM     18  C   UNL     1       2.303   5.195  20.068  0.00  0.00    +0.000 A 
ATOM     19  C   UNL     1       1.411   5.769  21.001  0.00  0.00    +0.000 A 
ATOM     20  C   UNL     1       1.152   7.138  20.999  0.00  0.00    +0.000 A 
ATOM     21  C   UNL     1       1.773   7.944  20.059  0.00  0.00    +0.000 A 
ATOM     22  C   UNL     1       2.662   7.385  19.137  0.00  0.00    +0.000 A 
ATOM     23  C   UNL     1       2.972   6.014  19.134  0.00  0.00    +0.000 A 
BRANCH  18  25
ATOM     24  N   UNL     1       2.420   3.193  21.469  0.00  0.00    +0.000 N 
ATOM     25  C   UNL     1       2.499   3.729  20.213  0.00  0.00    +0.000 C 
ATOM     26  O   UNL     1       2.795   3.024  19.255  0.00  0.00    +0.000 OA
ATOM     27  H   UNL     1       2.727   2.227  21.533  0.00  0.00    +0.000 HD
ATOM     28  H   UNL     1       2.573   3.760  22.291  0.00  0.00    +0.000 HD
ENDBRANCH  18  25
ENDBRANCH   1  23
TORSDOF 4
ENDMDL
MODEL 4
REMARK VINA RESULT:      -7.6      2.198      8.125
REMARK  Name = 
REMARK  4 active torsions:
REMARK  status: ('A' for Active; 'I' for Inactive)
REMARK    1  A    between atoms: C_2  and  C_4
REMARK    2  A    between atoms: C_9  and  N_10
REMARK    3  A    between atoms: C_11  and  C_13
REMARK    4  A    between atoms: C_18  and  C_20
REMARK                            x       y       z     vdW  Elec       q    Type
REMARK                         _______ _______ _______ _____ _____    ______ ____
ROOT
ATOM      1  N   UNL     1       4.376   6.478  18.074  0.00  0.00    +0.000 N 
ATOM      2  C   UNL     1       3.355   5.831  18.763  0.00  0.00    +0.000 C 
ATOM      3  O   UNL     1       3.160   4.619  18.784  0.00  0.00    +0.000 OA
ATOM      4  H   UNL     1       4.530   7.452  18.334  0.00  0.00    +0.000 HD
ENDROOT
BRANCH   2   5
ATOM      5  C   UNL     1       2.486   6.711  19.531  0.00  0.00    +0.000 A 
ATOM      6  C   UNL     1       1.810   6.341  20.671  0.00  0.00    +0.000 A 
ATOM      7  O   UNL     1       1.104   7.412  21.117  0.00  0.00    +0.000 OA
ATOM      8  C   UNL     1       1.344   8.378  20.182  0.00  0.00    +0.000 A 
ATOM      9  N   UNL     1       0.665   9.540  20.397  0.00  0.00    +0.000 N 
ATOM     10  C   UNL     1       0.586  10.513  19.428  0.00  0.00    +0.000 C 
ATOM     11  O   UNL     1       1.069  10.411  18.299  0.00  0.00    +0.000 OA
ATOM     12  N   UNL     1       2.181   8.021  19.230  0.00  0.00    +0.000 NA
ATOM     13  H   UNL     1       0.149   9.608  21.259  0.00  0.00    +0.000 HD
BRANCH  10  14
ATOM     14  C   UNL     1      -0.217  11.766  19.887  0.00  0.00    +0.000 C 
ATOM     15  C   UNL     1      -1.672  11.881  19.356  0.00  0.00    +0.000 C 
ATOM     16  C   UNL     1      -2.089  12.400  20.740  0.00  0.00    +0.000 C 
ATOM     17  C   UNL     1      -0.830  11.726  21.313  0.00  0.00    +0.000 C 
ENDBRANCH  10  14
ENDBRANCH   2   5
BRANCH   1  23
ATOM     18  C   UNL     1       6.588   5.462  17.591  0.00  0.00    +0.000 A 
ATOM     19  C   UNL     1       7.441   4.788  16.688  0.00  0.00    +0.000 A 
ATOM     20  C   UNL     1       7.043   4.535  15.377  0.00  0.00    +0.000 A 
ATOM     21  C   UNL     1       5.795   4.960  14.952  0.00  0.00    +0.000 A 
ATOM     22  C   UNL     1       4.942   5.620  15.841  0.00  0.00    +0.000 A 
ATOM     23  C   UNL     1       5.298   5.862  17.180  0.00  0.00    +0.000 A 
BRANCH  18  25
ATOM     24  N   UNL     1       8.256   6.407  19.108  0.00  0.00    +0.000 N 
ATOM     25  C   UNL     1       7.138   5.634  18.961  0.00  0.00    +0.000 C 
ATOM     26  O   UNL     1       6.657   5.048  19.923  0.00  0.00    +0.000 OA
ATOM     27  H   UNL     1       8.685   6.354  20.028  0.00  0.00    +0.000 HD
ATOM     28  H   UNL     1       8.888   6.569  18.337  0.00  0.00    +0.000 HD
ENDBRANCH  18  25
ENDBRANCH   1  23
TORSDOF 4
ENDMDL
MODEL 5
REMARK VINA RESULT:      -7.5      5.485      7.103
REMARK  Name = 
REMARK  4 active torsions:
REMARK  status: ('A' for Active; 'I' for Inactive)
REMARK    1  A    between atoms: C_2  and  C_4
REMARK    2  A    between atoms: C_9  and  N_10
REMARK    3  A    between atoms: C_11  and  C_13
REMARK    4  A    between atoms: C_18  and  C_20
REMARK                            x       y       z     vdW  Elec       q    Type
REMARK                         _______ _______ _______ _____ _____    ______ ____
ROOT
ATOM      1  N   UNL     1       5.306   6.275  18.175  0.00  0.00    +0.000 N 
ATOM      2  C   UNL     1       6.056   6.929  17.203  0.00  0.00    +0.000 C 
ATOM      3  O   UNL     1       5.833   6.916  15.996  0.00  0.00    +0.000 OA
ATOM      4  H   UNL     1       5.490   6.562  19.136  0.00  0.00    +0.000 HD
ENDROOT
BRANCH   2   5
ATOM      5  C   UNL     1       7.176   7.704  17.717  0.00  0.00    +0.000 A 
ATOM      6  C   UNL     1       8.100   7.234  18.623  0.00  0.00    +0.000 A 
ATOM      7  O   UNL     1       8.997   8.223  18.871  0.00  0.00    +0.000 OA
ATOM      8  C   UNL     1       8.536   9.279  18.137  0.00  0.00    +0.000 A 
ATOM      9  N   UNL     1       9.259  10.423  18.294  0.00  0.00    +0.000 N 
ATOM     10  C   UNL     1       8.791  11.634  17.841  0.00  0.00    +0.000 C 
ATOM     11  O   UNL     1       7.693  11.800  17.307  0.00  0.00    +0.000 OA
ATOM     12  N   UNL     1       7.469   9.016  17.412  0.00  0.00    +0.000 NA
ATOM     13  H   UNL     1      10.103  10.351  18.840  0.00  0.00    +0.000 HD
BRANCH  10  14
ATOM     14  C   UNL     1       9.782  12.807  18.103  0.00  0.00    +0.000 C 
ATOM     15  C   UNL     1      10.930  12.523  19.110  0.00  0.00    +0.000 C 
ATOM     16  C   UNL     1      11.872  13.314  18.190  0.00  0.00    +0.000 C 
ATOM     17  C   UNL     1      10.887  13.046  17.039  0.00  0.00    +0.000 C 
ENDBRANCH  10  14
ENDBRANCH   2   5
BRANCH   1  23
ATOM     18  C   UNL     1       2.900   5.682  18.320  0.00  0.00    +0.000 A 
ATOM     19  C   UNL     1       1.848   4.799  17.992  0.00  0.00    +0.000 A 
ATOM     20  C   UNL     1       2.095   3.609  17.311  0.00  0.00    +0.000 A 
ATOM     21  C   UNL     1       3.395   3.285  16.960  0.00  0.00    +0.000 A 
ATOM     22  C   UNL     1       4.441   4.157  17.274  0.00  0.00    +0.000 A 
ATOM     23  C   UNL     1       4.223   5.382  17.930  0.00  0.00    +0.000 A 
BRANCH  18  25
ATOM     24  N   UNL     1       2.100   6.820  20.331  0.00  0.00    +0.000 N 
ATOM     25  C   UNL     1       2.479   6.923  19.021  0.00  0.00    +0.000 C 
ATOM     26  O   UNL     1       2.401   7.996  18.435  0.00  0.00    +0.000 OA
ATOM     27  H   UNL     1       1.664   7.657  20.709  0.00  0.00    +0.000 HD
ATOM     28  H   UNL     1       1.778   5.944  20.717  0.00  0.00    +0.000 HD
ENDBRANCH  18  25
ENDBRANCH   1  23
TORSDOF 4
ENDMDL
MODEL 6
REMARK VINA RESULT:      -7.5      3.088      8.144
REMARK  Name = 
REMARK  4 active torsions:
REMARK  status: ('A' for Active; 'I' for Inactive)
REMARK    1  A    between atoms: C_2  and  C_4
REMARK    2  A    between atoms: C_9  and  N_10
REMARK    3  A    between atoms: C_11  and  C_13
REMARK    4  A    between atoms: C_18  and  C_20
REMARK                            x       y       z     vdW  Elec       q    Type
REMARK                         _______ _______ _______ _____ _____    ______ ____
ROOT
ATOM      1  N   UNL     1       2.232   6.212  19.311  0.00  0.00    +0.000 N 
ATOM      2  C   UNL     1       1.857   7.366  19.992  0.00  0.00    +0.000 C 
ATOM      3  O   UNL     1       1.631   7.448  21.195  0.00  0.00    +0.000 OA
ATOM      4  H   UNL     1       2.591   6.358  18.368  0.00  0.00    +0.000 HD
ENDROOT
BRANCH   2   5
ATOM      5  C   UNL     1       1.765   8.559  19.162  0.00  0.00    +0.000 A 
ATOM      6  C   UNL     1       2.350   8.696  17.924  0.00  0.00    +0.000 A 
ATOM      7  O   UNL     1       2.053   9.932  17.445  0.00  0.00    +0.000 OA
ATOM      8  C   UNL     1       1.339  10.515  18.453  0.00  0.00    +0.000 A 
ATOM      9  N   UNL     1       0.991  11.810  18.211  0.00  0.00    +0.000 N 
ATOM     10  C   UNL     1       0.504  12.619  19.211  0.00  0.00    +0.000 C 
ATOM     11  O   UNL     1       0.381  12.274  20.387  0.00  0.00    +0.000 OA
ATOM     12  N   UNL     1       1.117   9.731  19.488  0.00  0.00    +0.000 NA
ATOM     13  H   UNL     1       1.196  12.167  17.292  0.00  0.00    +0.000 HD
BRANCH  10  14
ATOM     14  C   UNL     1       0.148  14.052  18.715  0.00  0.00    +0.000 C 
ATOM     15  C   UNL     1      -0.694  14.925  19.686  0.00  0.00    +0.000 C 
ATOM     16  C   UNL     1       0.169  16.129  19.280  0.00  0.00    +0.000 C 
ATOM     17  C   UNL     1       1.255  15.134  18.836  0.00  0.00    +0.000 C 
ENDBRANCH  10  14
ENDBRANCH   2   5
BRANCH   1  23
ATOM     18  C   UNL     1       3.471   4.115  19.787  0.00  0.00    +0.000 A 
ATOM     19  C   UNL     1       3.519   2.852  20.417  0.00  0.00    +0.000 A 
ATOM     20  C   UNL     1       2.413   2.348  21.100  0.00  0.00    +0.000 A 
ATOM     21  C   UNL     1       1.249   3.095  21.151  0.00  0.00    +0.000 A 
ATOM     22  C   UNL     1       1.196   4.350  20.536  0.00  0.00    +0.000 A 
ATOM     23  C   UNL     1       2.303   4.903  19.868  0.00  0.00    +0.000 A 
BRANCH  18  25
ATOM     24  N   UNL     1       5.704   3.582  18.943  0.00  0.00    +0.000 N 
ATOM     25  C   UNL     1       4.735   4.530  19.123  0.00  0.00    +0.000 C 
ATOM     26  O   UNL     1       4.942   5.696  18.809  0.00  0.00    +0.000 OA
ATOM     27  H   UNL     1       6.602   3.951  18.644  0.00  0.00    +0.000 HD
ATOM     28  H   UNL     1       5.739   2.752  19.518  0.00  0.00    +0.000 HD
ENDBRANCH  18  25
ENDBRANCH   1  23
TORSDOF 4
ENDMDL
MODEL 7
REMARK VINA RESULT:      -7.5      1.841      8.024
REMARK  Name = 
REMARK  4 active torsions:
REMARK  status: ('A' for Active; 'I' for Inactive)
REMARK    1  A    between atoms: C_2  and  C_4
REMARK    2  A    between atoms: C_9  and  N_10
REMARK    3  A    between atoms: C_11  and  C_13
REMARK    4  A    between atoms: C_18  and  C_20
REMARK                            x       y       z     vdW  Elec       q    Type
REMARK                         _______ _______ _______ _____ _____    ______ ____
ROOT
ATOM      1  N   UNL     1       4.485   5.438  17.614  0.00  0.00    +0.000 N 
ATOM      2  C   UNL     1       3.320   4.785  18.002  0.00  0.00    +0.000 C 
ATOM      3  O   UNL     1       2.839   3.793  17.462  0.00  0.00    +0.000 OA
ATOM      4  H   UNL     1       4.862   6.101  18.290  0.00  0.00    +0.000 HD
ENDROOT
BRANCH   2   5
ATOM      5  C   UNL     1       2.666   5.352  19.173  0.00  0.00    +0.000 A 
ATOM      6  C   UNL     1       2.084   4.612  20.177  0.00  0.00    +0.000 A 
ATOM      7  O   UNL     1       1.578   5.469  21.102  0.00  0.00    +0.000 OA
ATOM      8  C   UNL     1       1.831   6.705  20.580  0.00  0.00    +0.000 A 
ATOM      9  N   UNL     1       1.337   7.734  21.323  0.00  0.00    +0.000 N 
ATOM     10  C   UNL     1       1.272   9.013  20.822  0.00  0.00    +0.000 C 
ATOM     11  O   UNL     1       1.604   9.331  19.679  0.00  0.00    +0.000 OA
ATOM     12  N   UNL     1       2.499   6.693  19.444  0.00  0.00    +0.000 NA
ATOM     13  H   UNL     1       0.937   7.493  22.216  0.00  0.00    +0.000 HD
BRANCH  10  14
ATOM     14  C   UNL     1       0.696  10.039  21.844  0.00  0.00    +0.000 C 
ATOM     15  C   UNL     1      -0.688  10.651  21.494  0.00  0.00    +0.000 C 
ATOM     16  C   UNL     1      -1.061  10.542  22.980  0.00  0.00    +0.000 C 
ATOM     17  C   UNL     1       0.025   9.461  23.119  0.00  0.00    +0.000 C 
ENDBRANCH  10  14
ENDBRANCH   2   5
BRANCH   1  23
ATOM     18  C   UNL     1       6.602   5.553  16.322  0.00  0.00    +0.000 A 
ATOM     19  C   UNL     1       7.349   5.175  15.185  0.00  0.00    +0.000 A 
ATOM     20  C   UNL     1       6.773   4.424  14.163  0.00  0.00    +0.000 A 
ATOM     21  C   UNL     1       5.443   4.051  14.263  0.00  0.00    +0.000 A 
ATOM     22  C   UNL     1       4.698   4.414  15.389  0.00  0.00    +0.000 A 
ATOM     23  C   UNL     1       5.258   5.143  16.453  0.00  0.00    +0.000 A 
BRANCH  18  25
ATOM     24  N   UNL     1       7.666   7.630  17.053  0.00  0.00    +0.000 N 
ATOM     25  C   UNL     1       7.359   6.328  17.339  0.00  0.00    +0.000 C 
ATOM     26  O   UNL     1       7.764   5.808  18.371  0.00  0.00    +0.000 OA
ATOM     27  H   UNL     1       8.323   8.058  17.699  0.00  0.00    +0.000 HD
ATOM     28  H   UNL     1       7.705   7.963  16.100  0.00  0.00    +0.000 HD
ENDBRANCH  18  25
ENDBRANCH   1  23
TORSDOF 4
ENDMDL
MODEL 8
REMARK VINA RESULT:      -7.5      2.262      8.595
REMARK  Name = 
REMARK  4 active torsions:
REMARK  status: ('A' for Active; 'I' for Inactive)
REMARK    1  A    between atoms: C_2  and  C_4
REMARK    2  A    between atoms: C_9  and  N_10
REMARK    3  A    between atoms: C_11  and  C_13
REMARK    4  A    between atoms: C_18  and  C_20
REMARK                            x       y       z     vdW  Elec       q    Type
REMARK                         _______ _______ _______ _____ _____    ______ ____
ROOT
ATOM      1  N   UNL     1       4.387   7.059  17.405  0.00  0.00    +0.000 N 
ATOM      2  C   UNL     1       3.109   6.747  17.858  0.00  0.00    +0.000 C 
ATOM      3  O   UNL     1       2.623   5.621  17.915  0.00  0.00    +0.000 OA
ATOM      4  H   UNL     1       4.712   8.000  17.626  0.00  0.00    +0.000 HD
ENDROOT
BRANCH   2   5
ATOM      5  C   UNL     1       2.330   7.888  18.318  0.00  0.00    +0.000 A 
ATOM      6  C   UNL     1       1.952   8.946  17.523  0.00  0.00    +0.000 A 
ATOM      7  O   UNL     1       1.239   9.818  18.282  0.00  0.00    +0.000 OA
ATOM      8  C   UNL     1       1.268   9.268  19.532  0.00  0.00    +0.000 A 
ATOM      9  N   UNL     1       0.661  10.027  20.488  0.00  0.00    +0.000 N 
ATOM     10  C   UNL     1       0.822   9.756  21.826  0.00  0.00    +0.000 C 
ATOM     11  O   UNL     1       1.538   8.858  22.274  0.00  0.00    +0.000 OA
ATOM     12  N   UNL     1       1.883   8.106  19.603  0.00  0.00    +0.000 NA
ATOM     13  H   UNL     1       0.171  10.847  20.167  0.00  0.00    +0.000 HD
BRANCH  10  14
ATOM     14  C   UNL     1       0.026  10.730  22.745  0.00  0.00    +0.000 C 
ATOM     15  C   UNL     1      -0.607  11.966  22.048  0.00  0.00    +0.000 C 
ATOM     16  C   UNL     1      -1.843  11.779  22.939  0.00  0.00    +0.000 C 
ATOM     17  C   UNL     1      -1.419  10.312  23.130  0.00  0.00    +0.000 C 
ENDBRANCH  10  14
ENDBRANCH   2   5
BRANCH   1  23
ATOM     18  C   UNL     1       6.218   5.395  17.596  0.00  0.00    +0.000 A 
ATOM     19  C   UNL     1       7.063   4.447  16.977  0.00  0.00    +0.000 A 
ATOM     20  C   UNL     1       7.040   4.257  15.597  0.00  0.00    +0.000 A 
ATOM     21  C   UNL     1       6.181   5.017  14.821  0.00  0.00    +0.000 A 
ATOM     22  C   UNL     1       5.336   5.952  15.426  0.00  0.00    +0.000 A 
ATOM     23  C   UNL     1       5.309   6.145  16.819  0.00  0.00    +0.000 A 
BRANCH  18  25
ATOM     24  N   UNL     1       7.590   5.509  19.617  0.00  0.00    +0.000 N 
ATOM     25  C   UNL     1       6.335   5.464  19.076  0.00  0.00    +0.000 C 
ATOM     26  O   UNL     1       5.349   5.410  19.800  0.00  0.00    +0.000 OA
ATOM     27  H   UNL     1       7.618   5.385  20.625  0.00  0.00    +0.000 HD
ATOM     28  H   UNL     1       8.393   5.165  19.109  0.00  0.00    +0.000 HD
ENDBRANCH  18  25
ENDBRANCH   1  23
TORSDOF 4
ENDMDL
MODEL 9
REMARK VINA RESULT:      -7.4      2.741      8.209
REMARK  Name = 
REMARK  4 active torsions:
REMARK  status: ('A' for Active; 'I' for Inactive)
REMARK    1  A    between atoms: C_2  and  C_4
REMARK    2  A    between atoms: C_9  and  N_10
REMARK    3  A    between atoms: C_11  and  C_13
REMARK    4  A    between atoms: C_18  and  C_20
REMARK                            x       y       z     vdW  Elec       q    Type
REMARK                         _______ _______ _______ _____ _____    ______ ____
ROOT
ATOM      1  N   UNL     1       2.445   5.969  18.159  0.00  0.00    +0.000 N 
ATOM      2  C   UNL     1       2.131   6.825  19.209  0.00  0.00    +0.000 C 
ATOM      3  O   UNL     1       2.035   6.506  20.391  0.00  0.00    +0.000 OA
ATOM      4  H   UNL     1       2.699   6.425  17.283  0.00  0.00    +0.000 HD
ENDROOT
BRANCH   2   5
ATOM      5  C   UNL     1       1.935   8.215  18.823  0.00  0.00    +0.000 A 
ATOM      6  C   UNL     1       2.309   8.749  17.611  0.00  0.00    +0.000 A 
ATOM      7  O   UNL     1       1.972  10.065  17.601  0.00  0.00    +0.000 OA
ATOM      8  C   UNL     1       1.453  10.283  18.845  0.00  0.00    +0.000 A 
ATOM      9  N   UNL     1       1.105  11.578  19.084  0.00  0.00    +0.000 N 
ATOM     10  C   UNL     1       0.816  12.020  20.354  0.00  0.00    +0.000 C 
ATOM     11  O   UNL     1       0.881  11.321  21.366  0.00  0.00    +0.000 OA
ATOM     12  N   UNL     1       1.385   9.208  19.604  0.00  0.00    +0.000 NA
ATOM     13  H   UNL     1       1.165  12.212  18.302  0.00  0.00    +0.000 HD
BRANCH  10  14
ATOM     14  C   UNL     1       0.423  13.527  20.399  0.00  0.00    +0.000 C 
ATOM     15  C   UNL     1       1.597  14.543  20.387  0.00  0.00    +0.000 C 
ATOM     16  C   UNL     1       0.762  15.429  19.451  0.00  0.00    +0.000 C 
ATOM     17  C   UNL     1      -0.042  14.174  19.066  0.00  0.00    +0.000 C 
ENDBRANCH  10  14
ENDBRANCH   2   5
BRANCH   1  23
ATOM     18  C   UNL     1       3.858   3.934  18.301  0.00  0.00    +0.000 A 
ATOM     19  C   UNL     1       3.954   2.534  18.468  0.00  0.00    +0.000 A 
ATOM     20  C   UNL     1       2.812   1.741  18.555  0.00  0.00    +0.000 A 
ATOM     21  C   UNL     1       1.565   2.336  18.467  0.00  0.00    +0.000 A 
ATOM     22  C   UNL     1       1.461   3.721  18.310  0.00  0.00    +0.000 A 
ATOM     23  C   UNL     1       2.592   4.555  18.253  0.00  0.00    +0.000 A 
BRANCH  18  25
ATOM     24  N   UNL     1       6.269   3.988  18.707  0.00  0.00    +0.000 N 
ATOM     25  C   UNL     1       5.161   4.648  18.253  0.00  0.00    +0.000 C 
ATOM     26  O   UNL     1       5.239   5.815  17.889  0.00  0.00    +0.000 OA
ATOM     27  H   UNL     1       7.094   4.573  18.810  0.00  0.00    +0.000 HD
ATOM     28  H   UNL     1       6.193   3.218  19.357  0.00  0.00    +0.000 HD
ENDBRANCH  18  25
ENDBRANCH   1  23
TORSDOF 4
ENDMDL
