MODEL 1
REMARK VINA RESULT:      -8.8      0.000      0.000
REMARK  Name = 
REMARK  7 active torsions:
REMARK  status: ('A' for Active; 'I' for Inactive)
REMARK    1  A    between atoms: C_1  and  C_2
REMARK    2  A    between atoms: N_4  and  C_5
REMARK    3  A    between atoms: C_8  and  C_9
REMARK    4  A    between atoms: C_12  and  C_13
REMARK    5  A    between atoms: C_13  and  N_14
REMARK    6  A    between atoms: C_16  and  C_17
REMARK    7  A    between atoms: C_17  and  O_19
REMARK                            x       y       z     vdW  Elec       q    Type
REMARK                         _______ _______ _______ _____ _____    ______ ____
ROOT
ATOM      1  C   UNL     1       7.639   8.174  17.898  0.00  0.00    +0.000 A 
ATOM      2  C   UNL     1       8.031   6.924  18.409  0.00  0.00    +0.000 A 
ATOM      3  C   UNL     1       7.346   5.693  18.091  0.00  0.00    +0.000 A 
ATOM      4  C   UNL     1       6.224   5.687  17.256  0.00  0.00    +0.000 A 
ATOM      5  N   UNL     1       5.823   6.883  16.733  0.00  0.00    +0.000 NA
ATOM      6  C   UNL     1       6.526   8.048  17.055  0.00  0.00    +0.000 A 
ENDROOT
BRANCH   1  10
ATOM      7  C   UNL     1       9.743  12.053  18.724  0.00  0.00    +0.000 A 
ATOM      8  C   UNL     1       9.996  10.892  19.465  0.00  0.00    +0.000 A 
ATOM      9  C   UNL     1       9.311   9.664  19.206  0.00  0.00    +0.000 A 
ATOM     10  C   UNL     1       8.335   9.507  18.194  0.00  0.00    +0.000 A 
ATOM     11  C   UNL     1       8.075  10.704  17.480  0.00  0.00    +0.000 A 
ATOM     12  C   UNL     1       8.749  11.937  17.745  0.00  0.00    +0.000 A 
BRANCH   7  16
ATOM     13  C   UNL     1      12.087  15.083  18.808  0.00  0.00    +0.000 C 
ATOM     14  C   UNL     1      11.629  13.698  18.397  0.00  0.00    +0.000 C 
ATOM     15  O   UNL     1      12.332  13.026  17.640  0.00  0.00    +0.000 OA
ATOM     16  N   UNL     1      10.405  13.301  18.921  0.00  0.00    +0.000 N 
ATOM     17  H   UNL     1       9.891  14.006  19.444  0.00  0.00    +0.000 HD
ENDBRANCH   7  16
ENDBRANCH   1  10
BRANCH   4  18
ATOM     18  C   UNL     1       5.441   4.340  16.820  0.00  0.00    +0.000 C 
BRANCH  18  19
ATOM     19  N   UNL     1       4.516   3.776  17.891  0.00  0.00    +0.000 N 
ATOM     20  C   UNL     1       4.173   2.408  17.724  0.00  0.00    +0.000 A 
ATOM     21  C   UNL     1       3.464   1.789  18.685  0.00  0.00    +0.000 A 
ATOM     22  C   UNL     1       2.144   2.449  18.469  0.00  0.00    +0.000 A 
ATOM     23  O   UNL     1       1.127   1.855  18.135  0.00  0.00    +0.000 OA
ATOM     24  C   UNL     1       2.203   3.901  18.772  0.00  0.00    +0.000 A 
ATOM     25  C   UNL     1       1.119   4.370  19.538  0.00  0.00    +0.000 A 
ATOM     26  C   UNL     1       1.355   5.397  20.429  0.00  0.00    +0.000 A 
ATOM     27  C   UNL     1       2.642   5.951  20.471  0.00  0.00    +0.000 A 
ATOM     28  C   UNL     1       3.682   5.562  19.564  0.00  0.00    +0.000 A 
ATOM     29  F   UNL     1       4.893   6.104  19.770  0.00  0.00    +0.000 F 
ATOM     30  C   UNL     1       3.502   4.517  18.642  0.00  0.00    +0.000 A 
BRANCH  21  31
ATOM     31  C   UNL     1       4.096   1.889  20.048  0.00  0.00    +0.000 C 
ATOM     32  O   UNL     1       3.549   2.294  21.063  0.00  0.00    +0.000 OA
BRANCH  31  33
ATOM     33  O   UNL     1       5.372   1.452  20.066  0.00  0.00    +0.000 OA
ATOM     34  H   UNL     1       5.769   1.505  20.953  0.00  0.00    +0.000 HD
ENDBRANCH  31  33
ENDBRANCH  21  31
ENDBRANCH  18  19
ENDBRANCH   4  18
TORSDOF 6
ENDMDL
MODEL 2
REMARK VINA RESULT:      -8.8      1.799      2.603
REMARK  Name = 
REMARK  7 active torsions:
REMARK  status: ('A' for Active; 'I' for Inactive)
REMARK    1  A    between atoms: C_1  and  C_2
REMARK    2  A    between atoms: N_4  and  C_5
REMARK    3  A    between atoms: C_8  and  C_9
REMARK    4  A    between atoms: C_12  and  C_13
REMARK    5  A    between atoms: C_13  and  N_14
REMARK    6  A    between atoms: C_16  and  C_17
REMARK    7  A    between atoms: C_17  and  O_19
REMARK                            x       y       z     vdW  Elec       q    Type
REMARK                         _______ _______ _______ _____ _____    ______ ____
ROOT
ATOM      1  C   UNL     1       8.016   8.420  18.261  0.00  0.00    +0.000 A 
ATOM      2  C   UNL     1       8.401   7.297  19.015  0.00  0.00    +0.000 A 
ATOM      3  C   UNL     1       7.763   6.008  18.889  0.00  0.00    +0.000 A 
ATOM      4  C   UNL     1       6.697   5.814  18.003  0.00  0.00    +0.000 A 
ATOM      5  N   UNL     1       6.305   6.882  17.248  0.00  0.00    +0.000 NA
ATOM      6  C   UNL     1       6.963   8.108  17.391  0.00  0.00    +0.000 A 
ENDROOT
BRANCH   1  10
ATOM      7  C   UNL     1       9.857  12.504  18.563  0.00  0.00    +0.000 A 
ATOM      8  C   UNL     1       8.802  12.222  17.687  0.00  0.00    +0.000 A 
ATOM      9  C   UNL     1       8.231  10.915  17.585  0.00  0.00    +0.000 A 
ATOM     10  C   UNL     1       8.665   9.806  18.348  0.00  0.00    +0.000 A 
ATOM     11  C   UNL     1       9.755  10.110  19.203  0.00  0.00    +0.000 A 
ATOM     12  C   UNL     1      10.337  11.414  19.298  0.00  0.00    +0.000 A 
BRANCH   7  16
ATOM     13  C   UNL     1      11.740  15.828  18.263  0.00  0.00    +0.000 C 
ATOM     14  C   UNL     1      11.210  14.489  17.789  0.00  0.00    +0.000 C 
ATOM     15  O   UNL     1      11.454  14.111  16.642  0.00  0.00    +0.000 OA
ATOM     16  N   UNL     1      10.457  13.788  18.723  0.00  0.00    +0.000 N 
ATOM     17  H   UNL     1      10.251  14.277  19.592  0.00  0.00    +0.000 HD
ENDBRANCH   7  16
ENDBRANCH   1  10
BRANCH   4  18
ATOM     18  C   UNL     1       5.970   4.387  17.777  0.00  0.00    +0.000 C 
BRANCH  18  19
ATOM     19  N   UNL     1       4.509   4.349  18.207  0.00  0.00    +0.000 N 
ATOM     20  C   UNL     1       3.683   5.333  17.600  0.00  0.00    +0.000 A 
ATOM     21  C   UNL     1       2.357   5.300  17.821  0.00  0.00    +0.000 A 
ATOM     22  C   UNL     1       2.340   5.743  19.245  0.00  0.00    +0.000 A 
ATOM     23  O   UNL     1       1.801   6.768  19.638  0.00  0.00    +0.000 OA
ATOM     24  C   UNL     1       3.003   4.753  20.132  0.00  0.00    +0.000 A 
ATOM     25  C   UNL     1       2.290   4.478  21.314  0.00  0.00    +0.000 A 
ATOM     26  C   UNL     1       2.368   3.203  21.834  0.00  0.00    +0.000 A 
ATOM     27  C   UNL     1       3.200   2.278  21.188  0.00  0.00    +0.000 A 
ATOM     28  C   UNL     1       4.039   2.632  20.081  0.00  0.00    +0.000 A 
ATOM     29  F   UNL     1       4.718   1.632  19.497  0.00  0.00    +0.000 F 
ATOM     30  C   UNL     1       3.995   3.913  19.505  0.00  0.00    +0.000 A 
BRANCH  21  31
ATOM     31  C   UNL     1       1.731   3.974  17.480  0.00  0.00    +0.000 C 
ATOM     32  O   UNL     1       0.799   3.449  18.071  0.00  0.00    +0.000 OA
BRANCH  31  33
ATOM     33  O   UNL     1       2.293   3.392  16.400  0.00  0.00    +0.000 OA
ATOM     34  H   UNL     1       1.630   3.031  15.786  0.00  0.00    +0.000 HD
ENDBRANCH  31  33
ENDBRANCH  21  31
ENDBRANCH  18  19
ENDBRANCH   4  18
TORSDOF 6
ENDMDL
MODEL 3
REMARK VINA RESULT:      -8.7      2.075      2.791
REMARK  Name = 
REMARK  7 active torsions:
REMARK  status: ('A' for Active; 'I' for Inactive)
REMARK    1  A    between atoms: C_1  and  C_2
REMARK    2  A    between atoms: N_4  and  C_5
REMARK    3  A    between atoms: C_8  and  C_9
REMARK    4  A    between atoms: C_12  and  C_13
REMARK    5  A    between atoms: C_13  and  N_14
REMARK    6  A    between atoms: C_16  and  C_17
REMARK    7  A    between atoms: C_17  and  O_19
REMARK                            x       y       z     vdW  Elec       q    Type
REMARK                         _______ _______ _______ _____ _____    ______ ____
ROOT
ATOM      1  C   UNL     1       8.255   8.403  18.431  0.00  0.00    +0.000 A 
ATOM      2  C   UNL     1       7.322   8.162  17.407  0.00  0.00    +0.000 A 
ATOM      3  C   UNL     1       6.673   6.887  17.218  0.00  0.00    +0.000 A 
ATOM      4  C   UNL     1       6.959   5.801  18.052  0.00  0.00    +0.000 A 
ATOM      5  N   UNL     1       7.853   6.003  19.064  0.00  0.00    +0.000 NA
ATOM      6  C   UNL     1       8.446   7.260  19.220  0.00  0.00    +0.000 A 
ENDROOT
BRANCH   1  10
ATOM      7  C   UNL     1      10.404  12.274  19.179  0.00  0.00    +0.000 A 
ATOM      8  C   UNL     1       9.981  11.440  20.221  0.00  0.00    +0.000 A 
ATOM      9  C   UNL     1       9.284  10.215  19.975  0.00  0.00    +0.000 A 
ATOM     10  C   UNL     1       8.965   9.738  18.683  0.00  0.00    +0.000 A 
ATOM     11  C   UNL     1       9.375  10.616  17.648  0.00  0.00    +0.000 A 
ATOM     12  C   UNL     1      10.061  11.848  17.890  0.00  0.00    +0.000 A 
BRANCH   7  16
ATOM     13  C   UNL     1      11.600  15.876  19.707  0.00  0.00    +0.000 C 
ATOM     14  C   UNL     1      10.583  14.759  19.583  0.00  0.00    +0.000 C 
ATOM     15  O   UNL     1       9.384  15.015  19.696  0.00  0.00    +0.000 OA
ATOM     16  N   UNL     1      11.117  13.496  19.357  0.00  0.00    +0.000 N 
ATOM     17  H   UNL     1      12.132  13.425  19.395  0.00  0.00    +0.000 HD
ENDBRANCH   7  16
ENDBRANCH   1  10
BRANCH   4  18
ATOM     18  C   UNL     1       6.232   4.361  17.927  0.00  0.00    +0.000 C 
BRANCH  18  19
ATOM     19  N   UNL     1       4.744   4.377  18.253  0.00  0.00    +0.000 N 
ATOM     20  C   UNL     1       3.994   5.373  17.570  0.00  0.00    +0.000 A 
ATOM     21  C   UNL     1       2.655   5.385  17.697  0.00  0.00    +0.000 A 
ATOM     22  C   UNL     1       2.553   5.859  19.108  0.00  0.00    +0.000 A 
ATOM     23  O   UNL     1       2.021   6.909  19.442  0.00  0.00    +0.000 OA
ATOM     24  C   UNL     1       3.120   4.869  20.058  0.00  0.00    +0.000 A 
ATOM     25  C   UNL     1       2.318   4.642  21.193  0.00  0.00    +0.000 A 
ATOM     26  C   UNL     1       2.319   3.376  21.741  0.00  0.00    +0.000 A 
ATOM     27  C   UNL     1       3.164   2.412  21.175  0.00  0.00    +0.000 A 
ATOM     28  C   UNL     1       4.089   2.717  20.122  0.00  0.00    +0.000 A 
ATOM     29  F   UNL     1       4.774   1.684  19.607  0.00  0.00    +0.000 F 
ATOM     30  C   UNL     1       4.127   3.985  19.520  0.00  0.00    +0.000 A 
BRANCH  21  31
ATOM     31  C   UNL     1       2.012   4.071  17.339  0.00  0.00    +0.000 C 
ATOM     32  O   UNL     1       2.492   3.214  16.612  0.00  0.00    +0.000 OA
BRANCH  31  33
ATOM     33  O   UNL     1       0.813   3.897  17.932  0.00  0.00    +0.000 OA
ATOM     34  H   UNL     1       0.751   3.044  18.398  0.00  0.00    +0.000 HD
ENDBRANCH  31  33
ENDBRANCH  21  31
ENDBRANCH  18  19
ENDBRANCH   4  18
TORSDOF 6
ENDMDL
MODEL 4
REMARK VINA RESULT:      -8.6      1.983      2.650
REMARK  Name = 
REMARK  7 active torsions:
REMARK  status: ('A' for Active; 'I' for Inactive)
REMARK    1  A    between atoms: C_1  and  C_2
REMARK    2  A    between atoms: N_4  and  C_5
REMARK    3  A    between atoms: C_8  and  C_9
REMARK    4  A    between atoms: C_12  and  C_13
REMARK    5  A    between atoms: C_13  and  N_14
REMARK    6  A    between atoms: C_16  and  C_17
REMARK    7  A    between atoms: C_17  and  O_19
REMARK                            x       y       z     vdW  Elec       q    Type
REMARK                         _______ _______ _______ _____ _____    ______ ____
ROOT
ATOM      1  C   UNL     1       8.031   8.483  18.242  0.00  0.00    +0.000 A 
ATOM      2  C   UNL     1       8.466   7.373  18.987  0.00  0.00    +0.000 A 
ATOM      3  C   UNL     1       7.853   6.070  18.889  0.00  0.00    +0.000 A 
ATOM      4  C   UNL     1       6.761   5.848  18.043  0.00  0.00    +0.000 A 
ATOM      5  N   UNL     1       6.320   6.902  17.296  0.00  0.00    +0.000 NA
ATOM      6  C   UNL     1       6.954   8.143  17.411  0.00  0.00    +0.000 A 
ENDROOT
BRANCH   1  10
ATOM      7  C   UNL     1       9.906  12.561  18.358  0.00  0.00    +0.000 A 
ATOM      8  C   UNL     1      10.407  11.486  19.102  0.00  0.00    +0.000 A 
ATOM      9  C   UNL     1       9.795  10.193  19.071  0.00  0.00    +0.000 A 
ATOM     10  C   UNL     1       8.651   9.883  18.299  0.00  0.00    +0.000 A 
ATOM     11  C   UNL     1       8.145  10.996  17.582  0.00  0.00    +0.000 A 
ATOM     12  C   UNL     1       8.747  12.294  17.620  0.00  0.00    +0.000 A 
BRANCH   7  16
ATOM     13  C   UNL     1      10.880  16.239  18.810  0.00  0.00    +0.000 C 
ATOM     14  C   UNL     1      10.090  14.973  19.076  0.00  0.00    +0.000 C 
ATOM     15  O   UNL     1       9.186  14.987  19.913  0.00  0.00    +0.000 OA
ATOM     16  N   UNL     1      10.480  13.866  18.332  0.00  0.00    +0.000 N 
ATOM     17  H   UNL     1      11.312  13.982  17.758  0.00  0.00    +0.000 HD
ENDBRANCH   7  16
ENDBRANCH   1  10
BRANCH   4  18
ATOM     18  C   UNL     1       6.059   4.403  17.849  0.00  0.00    +0.000 C 
BRANCH  18  19
ATOM     19  N   UNL     1       4.585   4.363  18.233  0.00  0.00    +0.000 N 
ATOM     20  C   UNL     1       3.776   5.343  17.597  0.00  0.00    +0.000 A 
ATOM     21  C   UNL     1       2.444   5.307  17.776  0.00  0.00    +0.000 A 
ATOM     22  C   UNL     1       2.381   5.755  19.198  0.00  0.00    +0.000 A 
ATOM     23  O   UNL     1       1.828   6.780  19.570  0.00  0.00    +0.000 OA
ATOM     24  C   UNL     1       3.018   4.769  20.108  0.00  0.00    +0.000 A 
ATOM     25  C   UNL     1       2.269   4.497  21.269  0.00  0.00    +0.000 A 
ATOM     26  C   UNL     1       2.334   3.224  21.795  0.00  0.00    +0.000 A 
ATOM     27  C   UNL     1       3.188   2.298  21.179  0.00  0.00    +0.000 A 
ATOM     28  C   UNL     1       4.060   2.651  20.097  0.00  0.00    +0.000 A 
ATOM     29  F   UNL     1       4.759   1.651  19.538  0.00  0.00    +0.000 F 
ATOM     30  C   UNL     1       4.032   3.930  19.516  0.00  0.00    +0.000 A 
BRANCH  21  31
ATOM     31  C   UNL     1       1.831   3.979  17.420  0.00  0.00    +0.000 C 
ATOM     32  O   UNL     1       2.263   3.190  16.593  0.00  0.00    +0.000 OA
BRANCH  31  33
ATOM     33  O   UNL     1       0.725   3.703  18.141  0.00  0.00    +0.000 OA
ATOM     34  H   UNL     1       0.542   4.384  18.813  0.00  0.00    +0.000 HD
ENDBRANCH  31  33
ENDBRANCH  21  31
ENDBRANCH  18  19
ENDBRANCH   4  18
TORSDOF 6
ENDMDL
MODEL 5
REMARK VINA RESULT:      -8.6      2.074      2.853
REMARK  Name = 
REMARK  7 active torsions:
REMARK  status: ('A' for Active; 'I' for Inactive)
REMARK    1  A    between atoms: C_1  and  C_2
REMARK    2  A    between atoms: N_4  and  C_5
REMARK    3  A    between atoms: C_8  and  C_9
REMARK    4  A    between atoms: C_12  and  C_13
REMARK    5  A    between atoms: C_13  and  N_14
REMARK    6  A    between atoms: C_16  and  C_17
REMARK    7  A    between atoms: C_17  and  O_19
REMARK                            x       y       z     vdW  Elec       q    Type
REMARK                         _______ _______ _______ _____ _____    ______ ____
ROOT
ATOM      1  C   UNL     1       8.253   8.373  18.428  0.00  0.00    +0.000 A 
ATOM      2  C   UNL     1       7.344   8.126  17.384  0.00  0.00    +0.000 A 
ATOM      3  C   UNL     1       6.684   6.855  17.200  0.00  0.00    +0.000 A 
ATOM      4  C   UNL     1       6.936   5.780  18.059  0.00  0.00    +0.000 A 
ATOM      5  N   UNL     1       7.806   5.989  19.090  0.00  0.00    +0.000 NA
ATOM      6  C   UNL     1       8.409   7.242  19.241  0.00  0.00    +0.000 A 
ENDROOT
BRANCH   1  10
ATOM      7  C   UNL     1      10.288  12.310  19.153  0.00  0.00    +0.000 A 
ATOM      8  C   UNL     1       9.866  11.909  17.879  0.00  0.00    +0.000 A 
ATOM      9  C   UNL     1       9.232  10.647  17.654  0.00  0.00    +0.000 A 
ATOM     10  C   UNL     1       8.972   9.704  18.676  0.00  0.00    +0.000 A 
ATOM     11  C   UNL     1       9.437  10.120  19.949  0.00  0.00    +0.000 A 
ATOM     12  C   UNL     1      10.083  11.376  20.176  0.00  0.00    +0.000 A 
BRANCH   7  16
ATOM     13  C   UNL     1      11.253  15.972  19.736  0.00  0.00    +0.000 C 
ATOM     14  C   UNL     1      10.328  14.821  19.392  0.00  0.00    +0.000 C 
ATOM     15  O   UNL     1       9.153  15.054  19.105  0.00  0.00    +0.000 OA
ATOM     16  N   UNL     1      10.908  13.560  19.446  0.00  0.00    +0.000 N 
ATOM     17  H   UNL     1      11.860  13.519  19.803  0.00  0.00    +0.000 HD
ENDBRANCH   7  16
ENDBRANCH   1  10
BRANCH   4  18
ATOM     18  C   UNL     1       6.195   4.347  17.939  0.00  0.00    +0.000 C 
BRANCH  18  19
ATOM     19  N   UNL     1       4.711   4.375  18.281  0.00  0.00    +0.000 N 
ATOM     20  C   UNL     1       3.967   5.393  17.626  0.00  0.00    +0.000 A 
ATOM     21  C   UNL     1       2.630   5.419  17.767  0.00  0.00    +0.000 A 
ATOM     22  C   UNL     1       2.548   5.866  19.188  0.00  0.00    +0.000 A 
ATOM     23  O   UNL     1       2.033   6.916  19.548  0.00  0.00    +0.000 OA
ATOM     24  C   UNL     1       3.112   4.850  20.113  0.00  0.00    +0.000 A 
ATOM     25  C   UNL     1       2.319   4.611  21.251  0.00  0.00    +0.000 A 
ATOM     26  C   UNL     1       2.309   3.335  21.774  0.00  0.00    +0.000 A 
ATOM     27  C   UNL     1       3.136   2.372  21.179  0.00  0.00    +0.000 A 
ATOM     28  C   UNL     1       4.055   2.686  20.124  0.00  0.00    +0.000 A 
ATOM     29  F   UNL     1       4.721   1.655  19.581  0.00  0.00    +0.000 F 
ATOM     30  C   UNL     1       4.102   3.965  19.546  0.00  0.00    +0.000 A 
BRANCH  21  31
ATOM     31  C   UNL     1       1.967   4.121  17.390  0.00  0.00    +0.000 C 
ATOM     32  O   UNL     1       0.971   3.646  17.916  0.00  0.00    +0.000 OA
BRANCH  31  33
ATOM     33  O   UNL     1       2.576   3.504  16.356  0.00  0.00    +0.000 OA
ATOM     34  H   UNL     1       3.489   3.242  16.567  0.00  0.00    +0.000 HD
ENDBRANCH  31  33
ENDBRANCH  21  31
ENDBRANCH  18  19
ENDBRANCH   4  18
TORSDOF 6
ENDMDL
MODEL 6
REMARK VINA RESULT:      -8.5      0.951      1.266
REMARK  Name = 
REMARK  7 active torsions:
REMARK  status: ('A' for Active; 'I' for Inactive)
REMARK    1  A    between atoms: C_1  and  C_2
REMARK    2  A    between atoms: N_4  and  C_5
REMARK    3  A    between atoms: C_8  and  C_9
REMARK    4  A    between atoms: C_12  and  C_13
REMARK    5  A    between atoms: C_13  and  N_14
REMARK    6  A    between atoms: C_16  and  C_17
REMARK    7  A    between atoms: C_17  and  O_19
REMARK                            x       y       z     vdW  Elec       q    Type
REMARK                         _______ _______ _______ _____ _____    ______ ____
ROOT
ATOM      1  C   UNL     1       7.711   8.151  17.959  0.00  0.00    +0.000 A 
ATOM      2  C   UNL     1       8.088   6.888  18.450  0.00  0.00    +0.000 A 
ATOM      3  C   UNL     1       7.385   5.672  18.116  0.00  0.00    +0.000 A 
ATOM      4  C   UNL     1       6.259   5.694  17.286  0.00  0.00    +0.000 A 
ATOM      5  N   UNL     1       5.872   6.903  16.784  0.00  0.00    +0.000 NA
ATOM      6  C   UNL     1       6.592   8.053  17.120  0.00  0.00    +0.000 A 
ENDROOT
BRANCH   1  10
ATOM      7  C   UNL     1       9.742  12.040  18.913  0.00  0.00    +0.000 A 
ATOM      8  C   UNL     1       8.856  11.903  17.838  0.00  0.00    +0.000 A 
ATOM      9  C   UNL     1       8.224  10.657  17.531  0.00  0.00    +0.000 A 
ATOM     10  C   UNL     1       8.427   9.469  18.272  0.00  0.00    +0.000 A 
ATOM     11  C   UNL     1       9.352   9.627  19.335  0.00  0.00    +0.000 A 
ATOM     12  C   UNL     1       9.996  10.868  19.637  0.00  0.00    +0.000 A 
BRANCH   7  16
ATOM     13  C   UNL     1      10.752  15.612  19.863  0.00  0.00    +0.000 C 
ATOM     14  C   UNL     1       9.794  14.491  19.509  0.00  0.00    +0.000 C 
ATOM     15  O   UNL     1       8.585  14.721  19.456  0.00  0.00    +0.000 OA
ATOM     16  N   UNL     1      10.389  13.256  19.281  0.00  0.00    +0.000 N 
ATOM     17  H   UNL     1      11.388  13.198  19.468  0.00  0.00    +0.000 HD
ENDBRANCH   7  16
ENDBRANCH   1  10
BRANCH   4  18
ATOM     18  C   UNL     1       5.455   4.365  16.833  0.00  0.00    +0.000 C 
BRANCH  18  19
ATOM     19  N   UNL     1       4.525   3.799  17.899  0.00  0.00    +0.000 N 
ATOM     20  C   UNL     1       4.194   2.427  17.736  0.00  0.00    +0.000 A 
ATOM     21  C   UNL     1       3.482   1.808  18.693  0.00  0.00    +0.000 A 
ATOM     22  C   UNL     1       2.158   2.456  18.463  0.00  0.00    +0.000 A 
ATOM     23  O   UNL     1       1.149   1.853  18.123  0.00  0.00    +0.000 OA
ATOM     24  C   UNL     1       2.204   3.910  18.759  0.00  0.00    +0.000 A 
ATOM     25  C   UNL     1       1.110   4.374  19.514  0.00  0.00    +0.000 A 
ATOM     26  C   UNL     1       1.330   5.407  20.401  0.00  0.00    +0.000 A 
ATOM     27  C   UNL     1       2.612   5.971  20.452  0.00  0.00    +0.000 A 
ATOM     28  C   UNL     1       3.663   5.586  19.556  0.00  0.00    +0.000 A 
ATOM     29  F   UNL     1       4.868   6.138  19.770  0.00  0.00    +0.000 F 
ATOM     30  C   UNL     1       3.499   4.536  18.638  0.00  0.00    +0.000 A 
BRANCH  21  31
ATOM     31  C   UNL     1       4.101   1.919  20.061  0.00  0.00    +0.000 C 
ATOM     32  O   UNL     1       3.543   2.328  21.068  0.00  0.00    +0.000 OA
BRANCH  31  33
ATOM     33  O   UNL     1       5.378   1.486  20.093  0.00  0.00    +0.000 OA
ATOM     34  H   UNL     1       5.459   0.599  20.486  0.00  0.00    +0.000 HD
ENDBRANCH  31  33
ENDBRANCH  21  31
ENDBRANCH  18  19
ENDBRANCH   4  18
TORSDOF 6
ENDMDL
MODEL 7
REMARK VINA RESULT:      -8.5      6.012      9.112
REMARK  Name = 
REMARK  7 active torsions:
REMARK  status: ('A' for Active; 'I' for Inactive)
REMARK    1  A    between atoms: C_1  and  C_2
REMARK    2  A    between atoms: N_4  and  C_5
REMARK    3  A    between atoms: C_8  and  C_9
REMARK    4  A    between atoms: C_12  and  C_13
REMARK    5  A    between atoms: C_13  and  N_14
REMARK    6  A    between atoms: C_16  and  C_17
REMARK    7  A    between atoms: C_17  and  O_19
REMARK                            x       y       z     vdW  Elec       q    Type
REMARK                         _______ _______ _______ _____ _____    ______ ____
ROOT
ATOM      1  C   UNL     1       3.453   6.483  17.931  0.00  0.00    +0.000 A 
ATOM      2  C   UNL     1       3.017   5.942  19.154  0.00  0.00    +0.000 A 
ATOM      3  C   UNL     1       2.228   6.687  20.107  0.00  0.00    +0.000 A 
ATOM      4  C   UNL     1       1.868   8.017  19.863  0.00  0.00    +0.000 A 
ATOM      5  N   UNL     1       2.266   8.569  18.680  0.00  0.00    +0.000 NA
ATOM      6  C   UNL     1       3.014   7.806  17.779  0.00  0.00    +0.000 A 
ENDROOT
BRANCH   1  10
ATOM      7  C   UNL     1       5.811   4.277  14.812  0.00  0.00    +0.000 A 
ATOM      8  C   UNL     1       5.108   3.614  15.825  0.00  0.00    +0.000 A 
ATOM      9  C   UNL     1       4.371   4.325  16.824  0.00  0.00    +0.000 A 
ATOM     10  C   UNL     1       4.281   5.735  16.880  0.00  0.00    +0.000 A 
ATOM     11  C   UNL     1       5.027   6.382  15.863  0.00  0.00    +0.000 A 
ATOM     12  C   UNL     1       5.776   5.675  14.870  0.00  0.00    +0.000 A 
BRANCH   7  16
ATOM     13  C   UNL     1       7.110   2.567  11.638  0.00  0.00    +0.000 C 
ATOM     14  C   UNL     1       6.094   3.275  12.513  0.00  0.00    +0.000 C 
ATOM     15  O   UNL     1       4.967   3.502  12.071  0.00  0.00    +0.000 OA
ATOM     16  N   UNL     1       6.548   3.627  13.778  0.00  0.00    +0.000 N 
ATOM     17  H   UNL     1       7.537   3.468  13.961  0.00  0.00    +0.000 HD
ENDBRANCH   7  16
ENDBRANCH   1  10
BRANCH   4  18
ATOM     18  C   UNL     1       0.946   8.891  20.865  0.00  0.00    +0.000 C 
BRANCH  18  19
ATOM     19  N   UNL     1       0.505  10.236  20.300  0.00  0.00    +0.000 N 
ATOM     20  C   UNL     1       0.951  11.367  21.036  0.00  0.00    +0.000 A 
ATOM     21  C   UNL     1       0.719  12.598  20.547  0.00  0.00    +0.000 A 
ATOM     22  C   UNL     1      -0.755  12.668  20.768  0.00  0.00    +0.000 A 
ATOM     23  O   UNL     1      -1.300  13.481  21.503  0.00  0.00    +0.000 OA
ATOM     24  C   UNL     1      -1.479  11.674  19.937  0.00  0.00    +0.000 A 
ATOM     25  C   UNL     1      -2.620  12.190  19.293  0.00  0.00    +0.000 A 
ATOM     26  C   UNL     1      -2.948  11.679  18.054  0.00  0.00    +0.000 A 
ATOM     27  C   UNL     1      -2.163  10.637  17.541  0.00  0.00    +0.000 A 
ATOM     28  C   UNL     1      -1.107  10.023  18.291  0.00  0.00    +0.000 A 
ATOM     29  F   UNL     1      -0.374   9.098  17.651  0.00  0.00    +0.000 F 
ATOM     30  C   UNL     1      -0.723  10.505  19.553  0.00  0.00    +0.000 A 
BRANCH  21  31
ATOM     31  C   UNL     1       1.239  12.790  19.148  0.00  0.00    +0.000 C 
ATOM     32  O   UNL     1       2.210  12.230  18.662  0.00  0.00    +0.000 OA
BRANCH  31  33
ATOM     33  O   UNL     1       0.496  13.656  18.428  0.00  0.00    +0.000 OA
ATOM     34  H   UNL     1      -0.310  13.244  18.070  0.00  0.00    +0.000 HD
ENDBRANCH  31  33
ENDBRANCH  21  31
ENDBRANCH  18  19
ENDBRANCH   4  18
TORSDOF 6
ENDMDL
MODEL 8
REMARK VINA RESULT:      -8.4      5.764      8.730
REMARK  Name = 
REMARK  7 active torsions:
REMARK  status: ('A' for Active; 'I' for Inactive)
REMARK    1  A    between atoms: C_1  and  C_2
REMARK    2  A    between atoms: N_4  and  C_5
REMARK    3  A    between atoms: C_8  and  C_9
REMARK    4  A    between atoms: C_12  and  C_13
REMARK    5  A    between atoms: C_13  and  N_14
REMARK    6  A    between atoms: C_16  and  C_17
REMARK    7  A    between atoms: C_17  and  O_19
REMARK                            x       y       z     vdW  Elec       q    Type
REMARK                         _______ _______ _______ _____ _____    ______ ____
ROOT
ATOM      1  C   UNL     1      -0.024   9.823  18.890  0.00  0.00    +0.000 A 
ATOM      2  C   UNL     1       0.681   9.268  19.973  0.00  0.00    +0.000 A 
ATOM      3  C   UNL     1       1.875   8.473  19.809  0.00  0.00    +0.000 A 
ATOM      4  C   UNL     1       2.390   8.196  18.538  0.00  0.00    +0.000 A 
ATOM      5  N   UNL     1       1.736   8.730  17.465  0.00  0.00    +0.000 NA
ATOM      6  C   UNL     1       0.592   9.508  17.671  0.00  0.00    +0.000 A 
ENDROOT
BRANCH   1  10
ATOM      7  C   UNL     1      -3.765  12.276  19.269  0.00  0.00    +0.000 A 
ATOM      8  C   UNL     1      -3.589  11.335  18.248  0.00  0.00    +0.000 A 
ATOM      9  C   UNL     1      -2.388  10.568  18.125  0.00  0.00    +0.000 A 
ATOM     10  C   UNL     1      -1.288  10.682  19.007  0.00  0.00    +0.000 A 
ATOM     11  C   UNL     1      -1.479  11.664  20.011  0.00  0.00    +0.000 A 
ATOM     12  C   UNL     1      -2.674  12.442  20.130  0.00  0.00    +0.000 A 
BRANCH   7  16
ATOM     13  C   UNL     1      -7.097  13.843  20.331  0.00  0.00    +0.000 C 
ATOM     14  C   UNL     1      -5.950  12.854  20.393  0.00  0.00    +0.000 C 
ATOM     15  O   UNL     1      -5.963  11.963  21.243  0.00  0.00    +0.000 OA
ATOM     16  N   UNL     1      -4.943  13.058  19.456  0.00  0.00    +0.000 N 
ATOM     17  H   UNL     1      -5.021  13.900  18.890  0.00  0.00    +0.000 HD
ENDBRANCH   7  16
ENDBRANCH   1  10
BRANCH   4  18
ATOM     18  C   UNL     1       3.749   7.356  18.287  0.00  0.00    +0.000 C 
BRANCH  18  19
ATOM     19  N   UNL     1       3.581   5.844  18.382  0.00  0.00    +0.000 N 
ATOM     20  C   UNL     1       4.212   5.107  17.345  0.00  0.00    +0.000 A 
ATOM     21  C   UNL     1       4.225   3.764  17.412  0.00  0.00    +0.000 A 
ATOM     22  C   UNL     1       2.785   3.496  17.126  0.00  0.00    +0.000 A 
ATOM     23  O   UNL     1       2.384   2.872  16.153  0.00  0.00    +0.000 OA
ATOM     24  C   UNL     1       1.908   4.025  18.201  0.00  0.00    +0.000 A 
ATOM     25  C   UNL     1       0.900   3.131  18.607  0.00  0.00    +0.000 A 
ATOM     26  C   UNL     1       0.512   3.154  19.931  0.00  0.00    +0.000 A 
ATOM     27  C   UNL     1       1.100   4.107  20.774  0.00  0.00    +0.000 A 
ATOM     28  C   UNL     1       2.005   5.111  20.296  0.00  0.00    +0.000 A 
ATOM     29  F   UNL     1       2.567   5.904  21.221  0.00  0.00    +0.000 F 
ATOM     30  C   UNL     1       2.442   5.131  18.961  0.00  0.00    +0.000 A 
BRANCH  21  31
ATOM     31  C   UNL     1       4.805   3.239  18.699  0.00  0.00    +0.000 C 
ATOM     32  O   UNL     1       4.319   2.362  19.398  0.00  0.00    +0.000 OA
BRANCH  31  33
ATOM     33  O   UNL     1       5.976   3.826  19.022  0.00  0.00    +0.000 OA
ATOM     34  H   UNL     1       5.850   4.675  19.480  0.00  0.00    +0.000 HD
ENDBRANCH  31  33
ENDBRANCH  21  31
ENDBRANCH  18  19
ENDBRANCH   4  18
TORSDOF 6
ENDMDL
MODEL 9
REMARK VINA RESULT:      -8.3      0.583      1.345
REMARK  Name = 
REMARK  7 active torsions:
REMARK  status: ('A' for Active; 'I' for Inactive)
REMARK    1  A    between atoms: C_1  and  C_2
REMARK    2  A    between atoms: N_4  and  C_5
REMARK    3  A    between atoms: C_8  and  C_9
REMARK    4  A    between atoms: C_12  and  C_13
REMARK    5  A    between atoms: C_13  and  N_14
REMARK    6  A    between atoms: C_16  and  C_17
REMARK    7  A    between atoms: C_17  and  O_19
REMARK                            x       y       z     vdW  Elec       q    Type
REMARK                         _______ _______ _______ _____ _____    ______ ____
ROOT
ATOM      1  C   UNL     1       7.456   7.987  17.770  0.00  0.00    +0.000 A 
ATOM      2  C   UNL     1       6.298   7.943  16.974  0.00  0.00    +0.000 A 
ATOM      3  C   UNL     1       5.605   6.716  16.661  0.00  0.00    +0.000 A 
ATOM      4  C   UNL     1       6.071   5.483  17.131  0.00  0.00    +0.000 A 
ATOM      5  N   UNL     1       7.188   5.492  17.917  0.00  0.00    +0.000 NA
ATOM      6  C   UNL     1       7.818   6.706  18.207  0.00  0.00    +0.000 A 
ENDROOT
BRANCH   1  10
ATOM      7  C   UNL     1       9.640  11.747  18.893  0.00  0.00    +0.000 A 
ATOM      8  C   UNL     1       8.771  11.685  17.796  0.00  0.00    +0.000 A 
ATOM      9  C   UNL     1       8.091  10.480  17.435  0.00  0.00    +0.000 A 
ATOM     10  C   UNL     1       8.224   9.261  18.141  0.00  0.00    +0.000 A 
ATOM     11  C   UNL     1       9.132   9.342  19.226  0.00  0.00    +0.000 A 
ATOM     12  C   UNL     1       9.824  10.543  19.582  0.00  0.00    +0.000 A 
BRANCH   7  16
ATOM     13  C   UNL     1      12.062  14.647  19.528  0.00  0.00    +0.000 C 
ATOM     14  C   UNL     1      11.570  13.372  18.872  0.00  0.00    +0.000 C 
ATOM     15  O   UNL     1      12.259  12.830  18.007  0.00  0.00    +0.000 OA
ATOM     16  N   UNL     1      10.332  12.920  19.314  0.00  0.00    +0.000 N 
ATOM     17  H   UNL     1       9.834  13.533  19.955  0.00  0.00    +0.000 HD
ENDBRANCH   7  16
ENDBRANCH   1  10
BRANCH   4  18
ATOM     18  C   UNL     1       5.316   4.079  16.860  0.00  0.00    +0.000 C 
BRANCH  18  19
ATOM     19  N   UNL     1       4.416   3.618  17.999  0.00  0.00    +0.000 N 
ATOM     20  C   UNL     1       4.046   2.247  17.951  0.00  0.00    +0.000 A 
ATOM     21  C   UNL     1       3.358   1.719  18.979  0.00  0.00    +0.000 A 
ATOM     22  C   UNL     1       2.042   2.384  18.752  0.00  0.00    +0.000 A 
ATOM     23  O   UNL     1       1.006   1.785  18.497  0.00  0.00    +0.000 OA
ATOM     24  C   UNL     1       2.135   3.854  18.937  0.00  0.00    +0.000 A 
ATOM     25  C   UNL     1       1.083   4.402  19.696  0.00  0.00    +0.000 A 
ATOM     26  C   UNL     1       1.364   5.490  20.496  0.00  0.00    +0.000 A 
ATOM     27  C   UNL     1       2.660   6.022  20.455  0.00  0.00    +0.000 A 
ATOM     28  C   UNL     1       3.665   5.544  19.550  0.00  0.00    +0.000 A 
ATOM     29  F   UNL     1       4.890   6.078  19.677  0.00  0.00    +0.000 F 
ATOM     30  C   UNL     1       3.439   4.434  18.720  0.00  0.00    +0.000 A 
BRANCH  21  31
ATOM     31  C   UNL     1       4.034   1.914  20.310  0.00  0.00    +0.000 C 
ATOM     32  O   UNL     1       5.237   1.852  20.519  0.00  0.00    +0.000 OA
BRANCH  31  33
ATOM     33  O   UNL     1       3.165   2.200  21.301  0.00  0.00    +0.000 OA
ATOM     34  H   UNL     1       2.239   2.055  21.035  0.00  0.00    +0.000 HD
ENDBRANCH  31  33
ENDBRANCH  21  31
ENDBRANCH  18  19
ENDBRANCH   4  18
TORSDOF 6
ENDMDL
