MODEL 1
REMARK VINA RESULT:      -6.9      0.000      0.000
REMARK  Name = 
REMARK  6 active torsions:
REMARK  status: ('A' for Active; 'I' for Inactive)
REMARK    1  A    between atoms: C_1  and  C_2
REMARK    2  A    between atoms: C_2  and  N_3
REMARK    3  A    between atoms: C_4  and  C_6
REMARK    4  A    between atoms: C_6  and  O_7
REMARK    5  A    between atoms: O_7  and  C_8
REMARK    6  A    between atoms: C_8  and  C_10
REMARK                            x       y       z     vdW  Elec       q    Type
REMARK                         _______ _______ _______ _____ _____    ______ ____
ROOT
ATOM      1  C   UNL     1       6.522   4.519  17.549  0.00  0.00    +0.000 C 
ATOM      2  O   UNL     1       7.346   4.422  18.447  0.00  0.00    +0.000 OA
ENDROOT
BRANCH   1   3
ATOM      3  C   UNL     1       5.150   4.992  17.757  0.00  0.00    +0.000 A 
ATOM      4  C   UNL     1       4.815   6.335  17.854  0.00  0.00    +0.000 A 
ATOM      5  S   UNL     1       3.146   6.601  18.104  0.00  0.00    +0.000 S 
ATOM      6  C   UNL     1       2.831   4.934  18.100  0.00  0.00    +0.000 A 
ATOM      7  C   UNL     1       3.967   4.171  17.894  0.00  0.00    +0.000 A 
ATOM      8  C   UNL     1       3.901   2.668  17.865  0.00  0.00    +0.000 C 
ATOM      9  C   UNL     1       2.467   2.163  17.638  0.00  0.00    +0.000 C 
ATOM     10  C   UNL     1       1.463   2.890  18.540  0.00  0.00    +0.000 C 
ATOM     11  C   UNL     1       1.440   4.400  18.267  0.00  0.00    +0.000 C 
ENDBRANCH   1   3
BRANCH   1  12
ATOM     12  O   UNL     1       6.763   4.193  16.246  0.00  0.00    +0.000 OA
BRANCH  12  13
ATOM     13  C   UNL     1       6.939   5.279  15.331  0.00  0.00    +0.000 C 
BRANCH  13  15
ATOM     14  N   UNL     1       6.165   3.755  13.575  0.00  0.00    +0.000 N 
ATOM     15  C   UNL     1       7.011   4.798  13.881  0.00  0.00    +0.000 C 
ATOM     16  O   UNL     1       7.755   5.327  13.060  0.00  0.00    +0.000 OA
ATOM     17  H   UNL     1       5.618   3.348  14.325  0.00  0.00    +0.000 HD
BRANCH  14  19
ATOM     18  C   UNL     1       4.696   3.194  11.689  0.00  0.00    +0.000 C 
ATOM     19  C   UNL     1       6.104   3.167  12.254  0.00  0.00    +0.000 C 
ENDBRANCH  14  19
ENDBRANCH  13  15
ENDBRANCH  12  13
ENDBRANCH   1  12
TORSDOF 5
ENDMDL
MODEL 2
REMARK VINA RESULT:      -6.7      1.423      1.704
REMARK  Name = 
REMARK  6 active torsions:
REMARK  status: ('A' for Active; 'I' for Inactive)
REMARK    1  A    between atoms: C_1  and  C_2
REMARK    2  A    between atoms: C_2  and  N_3
REMARK    3  A    between atoms: C_4  and  C_6
REMARK    4  A    between atoms: C_6  and  O_7
REMARK    5  A    between atoms: O_7  and  C_8
REMARK    6  A    between atoms: C_8  and  C_10
REMARK                            x       y       z     vdW  Elec       q    Type
REMARK                         _______ _______ _______ _____ _____    ______ ____
ROOT
ATOM      1  C   UNL     1       4.808   4.292  16.998  0.00  0.00    +0.000 C 
ATOM      2  O   UNL     1       4.632   3.189  16.501  0.00  0.00    +0.000 OA
ENDROOT
BRANCH   1   3
ATOM      3  C   UNL     1       3.861   4.922  17.925  0.00  0.00    +0.000 A 
ATOM      4  C   UNL     1       3.705   6.296  18.037  0.00  0.00    +0.000 A 
ATOM      5  S   UNL     1       2.541   6.755  19.199  0.00  0.00    +0.000 S 
ATOM      6  C   UNL     1       2.223   5.134  19.589  0.00  0.00    +0.000 A 
ATOM      7  C   UNL     1       2.972   4.243  18.842  0.00  0.00    +0.000 A 
ATOM      8  C   UNL     1       2.844   2.757  19.043  0.00  0.00    +0.000 C 
ATOM      9  C   UNL     1       1.547   2.391  19.782  0.00  0.00    +0.000 C 
ATOM     10  C   UNL     1       1.323   3.285  21.007  0.00  0.00    +0.000 C 
ATOM     11  C   UNL     1       1.198   4.764  20.618  0.00  0.00    +0.000 C 
ENDBRANCH   1   3
BRANCH   1  12
ATOM     12  O   UNL     1       5.892   5.083  16.752  0.00  0.00    +0.000 OA
BRANCH  12  13
ATOM     13  C   UNL     1       7.042   4.445  16.189  0.00  0.00    +0.000 C 
BRANCH  13  15
ATOM     14  N   UNL     1       6.420   3.739  13.925  0.00  0.00    +0.000 N 
ATOM     15  C   UNL     1       7.126   4.654  14.676  0.00  0.00    +0.000 C 
ATOM     16  O   UNL     1       7.759   5.584  14.185  0.00  0.00    +0.000 OA
ATOM     17  H   UNL     1       5.961   2.976  14.410  0.00  0.00    +0.000 HD
BRANCH  14  19
ATOM     18  C   UNL     1       5.639   2.596  11.897  0.00  0.00    +0.000 C 
ATOM     19  C   UNL     1       6.391   3.778  12.479  0.00  0.00    +0.000 C 
ENDBRANCH  14  19
ENDBRANCH  13  15
ENDBRANCH  12  13
ENDBRANCH   1  12
TORSDOF 5
ENDMDL
MODEL 3
REMARK VINA RESULT:      -6.7      1.757      2.485
REMARK  Name = 
REMARK  6 active torsions:
REMARK  status: ('A' for Active; 'I' for Inactive)
REMARK    1  A    between atoms: C_1  and  C_2
REMARK    2  A    between atoms: C_2  and  N_3
REMARK    3  A    between atoms: C_4  and  C_6
REMARK    4  A    between atoms: C_6  and  O_7
REMARK    5  A    between atoms: O_7  and  C_8
REMARK    6  A    between atoms: C_8  and  C_10
REMARK                            x       y       z     vdW  Elec       q    Type
REMARK                         _______ _______ _______ _____ _____    ______ ____
ROOT
ATOM      1  C   UNL     1       4.568   6.386  17.717  0.00  0.00    +0.000 C 
ATOM      2  O   UNL     1       4.383   6.961  16.653  0.00  0.00    +0.000 OA
ENDROOT
BRANCH   1   3
ATOM      3  C   UNL     1       3.481   5.887  18.565  0.00  0.00    +0.000 A 
ATOM      4  C   UNL     1       2.820   6.674  19.497  0.00  0.00    +0.000 A 
ATOM      5  S   UNL     1       1.602   5.836  20.353  0.00  0.00    +0.000 S 
ATOM      6  C   UNL     1       1.933   4.401  19.511  0.00  0.00    +0.000 A 
ATOM      7  C   UNL     1       2.942   4.545  18.575  0.00  0.00    +0.000 A 
ATOM      8  C   UNL     1       3.391   3.384  17.729  0.00  0.00    +0.000 C 
ATOM      9  C   UNL     1       2.351   2.252  17.713  0.00  0.00    +0.000 C 
ATOM     10  C   UNL     1       1.841   1.934  19.123  0.00  0.00    +0.000 C 
ATOM     11  C   UNL     1       1.155   3.146  19.768  0.00  0.00    +0.000 C 
ENDBRANCH   1   3
BRANCH   1  12
ATOM     12  O   UNL     1       5.796   6.143  18.257  0.00  0.00    +0.000 OA
BRANCH  12  13
ATOM     13  C   UNL     1       6.932   6.497  17.461  0.00  0.00    +0.000 C 
BRANCH  13  15
ATOM     14  N   UNL     1       6.807   5.664  15.159  0.00  0.00    +0.000 N 
ATOM     15  C   UNL     1       7.267   5.415  16.434  0.00  0.00    +0.000 C 
ATOM     16  O   UNL     1       7.917   4.416  16.733  0.00  0.00    +0.000 OA
ATOM     17  H   UNL     1       6.241   6.491  15.010  0.00  0.00    +0.000 HD
BRANCH  14  19
ATOM     18  C   UNL     1       5.805   3.888  13.792  0.00  0.00    +0.000 C 
ATOM     19  C   UNL     1       7.026   4.748  14.061  0.00  0.00    +0.000 C 
ENDBRANCH  14  19
ENDBRANCH  13  15
ENDBRANCH  12  13
ENDBRANCH   1  12
TORSDOF 5
ENDMDL
MODEL 4
REMARK VINA RESULT:      -6.6      1.250      1.588
REMARK  Name = 
REMARK  6 active torsions:
REMARK  status: ('A' for Active; 'I' for Inactive)
REMARK    1  A    between atoms: C_1  and  C_2
REMARK    2  A    between atoms: C_2  and  N_3
REMARK    3  A    between atoms: C_4  and  C_6
REMARK    4  A    between atoms: C_6  and  O_7
REMARK    5  A    between atoms: O_7  and  C_8
REMARK    6  A    between atoms: C_8  and  C_10
REMARK                            x       y       z     vdW  Elec       q    Type
REMARK                         _______ _______ _______ _____ _____    ______ ____
ROOT
ATOM      1  C   UNL     1       5.839   4.576  15.962  0.00  0.00    +0.000 C 
ATOM      2  O   UNL     1       6.902   4.194  16.430  0.00  0.00    +0.000 OA
ENDROOT
BRANCH   1   3
ATOM      3  C   UNL     1       4.734   5.091  16.778  0.00  0.00    +0.000 A 
ATOM      4  C   UNL     1       4.524   6.444  17.007  0.00  0.00    +0.000 A 
ATOM      5  S   UNL     1       3.171   6.762  17.998  0.00  0.00    +0.000 S 
ATOM      6  C   UNL     1       2.837   5.106  18.156  0.00  0.00    +0.000 A 
ATOM      7  C   UNL     1       3.725   4.309  17.455  0.00  0.00    +0.000 A 
ATOM      8  C   UNL     1       3.606   2.808  17.473  0.00  0.00    +0.000 C 
ATOM      9  C   UNL     1       2.214   2.351  17.940  0.00  0.00    +0.000 C 
ATOM     10  C   UNL     1       1.766   3.104  19.198  0.00  0.00    +0.000 C 
ATOM     11  C   UNL     1       1.666   4.615  18.953  0.00  0.00    +0.000 C 
ENDBRANCH   1   3
BRANCH   1  12
ATOM     12  O   UNL     1       5.535   4.565  14.632  0.00  0.00    +0.000 OA
BRANCH  12  13
ATOM     13  C   UNL     1       6.601   4.251  13.730  0.00  0.00    +0.000 C 
BRANCH  13  15
ATOM     14  N   UNL     1       4.744   3.574  12.280  0.00  0.00    +0.000 N 
ATOM     15  C   UNL     1       6.102   3.492  12.500  0.00  0.00    +0.000 C 
ATOM     16  O   UNL     1       6.868   2.879  11.761  0.00  0.00    +0.000 OA
ATOM     17  H   UNL     1       4.179   4.063  12.965  0.00  0.00    +0.000 HD
BRANCH  14  19
ATOM     18  C   UNL     1       3.345   3.895  10.288  0.00  0.00    +0.000 C 
ATOM     19  C   UNL     1       4.095   2.913  11.168  0.00  0.00    +0.000 C 
ENDBRANCH  14  19
ENDBRANCH  13  15
ENDBRANCH  12  13
ENDBRANCH   1  12
TORSDOF 5
ENDMDL
MODEL 5
REMARK VINA RESULT:      -6.6      1.425      1.555
REMARK  Name = 
REMARK  6 active torsions:
REMARK  status: ('A' for Active; 'I' for Inactive)
REMARK    1  A    between atoms: C_1  and  C_2
REMARK    2  A    between atoms: C_2  and  N_3
REMARK    3  A    between atoms: C_4  and  C_6
REMARK    4  A    between atoms: C_6  and  O_7
REMARK    5  A    between atoms: O_7  and  C_8
REMARK    6  A    between atoms: C_8  and  C_10
REMARK                            x       y       z     vdW  Elec       q    Type
REMARK                         _______ _______ _______ _____ _____    ______ ____
ROOT
ATOM      1  C   UNL     1       5.858   4.559  18.156  0.00  0.00    +0.000 C 
ATOM      2  O   UNL     1       6.836   4.445  18.881  0.00  0.00    +0.000 OA
ENDROOT
BRANCH   1   3
ATOM      3  C   UNL     1       4.559   5.055  18.622  0.00  0.00    +0.000 A 
ATOM      4  C   UNL     1       4.094   6.336  18.360  0.00  0.00    +0.000 A 
ATOM      5  S   UNL     1       2.555   6.650  19.028  0.00  0.00    +0.000 S 
ATOM      6  C   UNL     1       2.473   5.091  19.693  0.00  0.00    +0.000 A 
ATOM      7  C   UNL     1       3.587   4.323  19.404  0.00  0.00    +0.000 A 
ATOM      8  C   UNL     1       3.712   2.911  19.911  0.00  0.00    +0.000 C 
ATOM      9  C   UNL     1       2.354   2.337  20.345  0.00  0.00    +0.000 C 
ATOM     10  C   UNL     1       1.576   3.327  21.219  0.00  0.00    +0.000 C 
ATOM     11  C   UNL     1       1.276   4.634  20.471  0.00  0.00    +0.000 C 
ENDBRANCH   1   3
BRANCH   1  12
ATOM     12  O   UNL     1       5.839   4.233  16.831  0.00  0.00    +0.000 OA
BRANCH  12  13
ATOM     13  C   UNL     1       7.074   4.358  16.119  0.00  0.00    +0.000 C 
BRANCH  13  15
ATOM     14  N   UNL     1       6.162   3.551  13.992  0.00  0.00    +0.000 N 
ATOM     15  C   UNL     1       6.850   4.566  14.621  0.00  0.00    +0.000 C 
ATOM     16  O   UNL     1       7.239   5.576  14.041  0.00  0.00    +0.000 OA
ATOM     17  H   UNL     1       5.917   2.732  14.537  0.00  0.00    +0.000 HD
BRANCH  14  19
ATOM     18  C   UNL     1       6.863   2.758  11.776  0.00  0.00    +0.000 C 
ATOM     19  C   UNL     1       5.865   3.575  12.576  0.00  0.00    +0.000 C 
ENDBRANCH  14  19
ENDBRANCH  13  15
ENDBRANCH  12  13
ENDBRANCH   1  12
TORSDOF 5
ENDMDL
MODEL 6
REMARK VINA RESULT:      -6.5      1.784      2.260
REMARK  Name = 
REMARK  6 active torsions:
REMARK  status: ('A' for Active; 'I' for Inactive)
REMARK    1  A    between atoms: C_1  and  C_2
REMARK    2  A    between atoms: C_2  and  N_3
REMARK    3  A    between atoms: C_4  and  C_6
REMARK    4  A    between atoms: C_6  and  O_7
REMARK    5  A    between atoms: O_7  and  C_8
REMARK    6  A    between atoms: C_8  and  C_10
REMARK                            x       y       z     vdW  Elec       q    Type
REMARK                         _______ _______ _______ _____ _____    ______ ____
ROOT
ATOM      1  C   UNL     1       5.413   5.475  19.062  0.00  0.00    +0.000 C 
ATOM      2  O   UNL     1       6.351   5.027  19.706  0.00  0.00    +0.000 OA
ENDROOT
BRANCH   1   3
ATOM      3  C   UNL     1       4.008   5.201  19.381  0.00  0.00    +0.000 A 
ATOM      4  C   UNL     1       3.201   6.085  20.084  0.00  0.00    +0.000 A 
ATOM      5  S   UNL     1       1.611   5.509  20.322  0.00  0.00    +0.000 S 
ATOM      6  C   UNL     1       1.961   4.064  19.504  0.00  0.00    +0.000 A 
ATOM      7  C   UNL     1       3.261   4.012  19.035  0.00  0.00    +0.000 A 
ATOM      8  C   UNL     1       3.773   2.808  18.289  0.00  0.00    +0.000 C 
ATOM      9  C   UNL     1       2.625   1.936  17.757  0.00  0.00    +0.000 C 
ATOM     10  C   UNL     1       1.557   1.692  18.830  0.00  0.00    +0.000 C 
ATOM     11  C   UNL     1       0.919   3.005  19.307  0.00  0.00    +0.000 C 
ENDBRANCH   1   3
BRANCH   1  12
ATOM     12  O   UNL     1       5.545   6.274  17.964  0.00  0.00    +0.000 OA
BRANCH  12  13
ATOM     13  C   UNL     1       6.870   6.453  17.453  0.00  0.00    +0.000 C 
BRANCH  13  15
ATOM     14  N   UNL     1       6.733   5.647  15.142  0.00  0.00    +0.000 N 
ATOM     15  C   UNL     1       7.225   5.398  16.405  0.00  0.00    +0.000 C 
ATOM     16  O   UNL     1       7.916   4.420  16.678  0.00  0.00    +0.000 OA
ATOM     17  H   UNL     1       6.134   6.455  15.015  0.00  0.00    +0.000 HD
BRANCH  14  19
ATOM     18  C   UNL     1       5.764   3.864  13.760  0.00  0.00    +0.000 C 
ATOM     19  C   UNL     1       6.964   4.754  14.028  0.00  0.00    +0.000 C 
ENDBRANCH  14  19
ENDBRANCH  13  15
ENDBRANCH  12  13
ENDBRANCH   1  12
TORSDOF 5
ENDMDL
MODEL 7
REMARK VINA RESULT:      -6.4      1.495      1.607
REMARK  Name = 
REMARK  6 active torsions:
REMARK  status: ('A' for Active; 'I' for Inactive)
REMARK    1  A    between atoms: C_1  and  C_2
REMARK    2  A    between atoms: C_2  and  N_3
REMARK    3  A    between atoms: C_4  and  C_6
REMARK    4  A    between atoms: C_6  and  O_7
REMARK    5  A    between atoms: O_7  and  C_8
REMARK    6  A    between atoms: C_8  and  C_10
REMARK                            x       y       z     vdW  Elec       q    Type
REMARK                         _______ _______ _______ _____ _____    ______ ____
ROOT
ATOM      1  C   UNL     1       6.293   5.038  18.906  0.00  0.00    +0.000 C 
ATOM      2  O   UNL     1       6.911   5.413  19.893  0.00  0.00    +0.000 OA
ENDROOT
BRANCH   1   3
ATOM      3  C   UNL     1       4.840   5.174  18.763  0.00  0.00    +0.000 A 
ATOM      4  C   UNL     1       4.209   6.383  18.508  0.00  0.00    +0.000 A 
ATOM      5  S   UNL     1       2.510   6.253  18.397  0.00  0.00    +0.000 S 
ATOM      6  C   UNL     1       2.571   4.584  18.696  0.00  0.00    +0.000 A 
ATOM      7  C   UNL     1       3.861   4.113  18.863  0.00  0.00    +0.000 A 
ATOM      8  C   UNL     1       4.130   2.659  19.147  0.00  0.00    +0.000 C 
ATOM      9  C   UNL     1       2.926   1.775  18.784  0.00  0.00    +0.000 C 
ATOM     10  C   UNL     1       1.614   2.361  19.318  0.00  0.00    +0.000 C 
ATOM     11  C   UNL     1       1.327   3.748  18.726  0.00  0.00    +0.000 C 
ENDBRANCH   1   3
BRANCH   1  12
ATOM     12  O   UNL     1       6.864   4.441  17.821  0.00  0.00    +0.000 OA
BRANCH  12  13
ATOM     13  C   UNL     1       6.903   5.203  16.611  0.00  0.00    +0.000 C 
BRANCH  13  15
ATOM     14  N   UNL     1       6.812   4.303  14.332  0.00  0.00    +0.000 N 
ATOM     15  C   UNL     1       6.103   4.535  15.491  0.00  0.00    +0.000 C 
ATOM     16  O   UNL     1       4.926   4.216  15.637  0.00  0.00    +0.000 OA
ATOM     17  H   UNL     1       7.766   4.640  14.282  0.00  0.00    +0.000 HD
BRANCH  14  19
ATOM     18  C   UNL     1       7.044   3.921  11.918  0.00  0.00    +0.000 C 
ATOM     19  C   UNL     1       6.216   3.687  13.167  0.00  0.00    +0.000 C 
ENDBRANCH  14  19
ENDBRANCH  13  15
ENDBRANCH  12  13
ENDBRANCH   1  12
TORSDOF 5
ENDMDL
MODEL 8
REMARK VINA RESULT:      -6.4      1.790      2.502
REMARK  Name = 
REMARK  6 active torsions:
REMARK  status: ('A' for Active; 'I' for Inactive)
REMARK    1  A    between atoms: C_1  and  C_2
REMARK    2  A    between atoms: C_2  and  N_3
REMARK    3  A    between atoms: C_4  and  C_6
REMARK    4  A    between atoms: C_6  and  O_7
REMARK    5  A    between atoms: O_7  and  C_8
REMARK    6  A    between atoms: C_8  and  C_10
REMARK                            x       y       z     vdW  Elec       q    Type
REMARK                         _______ _______ _______ _____ _____    ______ ____
ROOT
ATOM      1  C   UNL     1       7.137   6.703  17.219  0.00  0.00    +0.000 C 
ATOM      2  O   UNL     1       7.624   7.706  17.721  0.00  0.00    +0.000 OA
ENDROOT
BRANCH   1   3
ATOM      3  C   UNL     1       6.112   5.886  17.876  0.00  0.00    +0.000 A 
ATOM      4  C   UNL     1       6.389   4.687  18.516  0.00  0.00    +0.000 A 
ATOM      5  S   UNL     1       5.008   3.940  19.188  0.00  0.00    +0.000 S 
ATOM      6  C   UNL     1       4.004   5.191  18.633  0.00  0.00    +0.000 A 
ATOM      7  C   UNL     1       4.698   6.180  17.959  0.00  0.00    +0.000 A 
ATOM      8  C   UNL     1       3.987   7.374  17.380  0.00  0.00    +0.000 C 
ATOM      9  C   UNL     1       2.592   7.563  17.997  0.00  0.00    +0.000 C 
ATOM     10  C   UNL     1       1.814   6.243  18.048  0.00  0.00    +0.000 C 
ATOM     11  C   UNL     1       2.531   5.192  18.908  0.00  0.00    +0.000 C 
ENDBRANCH   1   3
BRANCH   1  12
ATOM     12  O   UNL     1       7.485   6.207  15.996  0.00  0.00    +0.000 OA
BRANCH  12  13
ATOM     13  C   UNL     1       6.896   4.960  15.615  0.00  0.00    +0.000 C 
BRANCH  13  15
ATOM     14  N   UNL     1       6.249   3.660  13.640  0.00  0.00    +0.000 N 
ATOM     15  C   UNL     1       6.992   4.722  14.107  0.00  0.00    +0.000 C 
ATOM     16  O   UNL     1       7.666   5.444  13.378  0.00  0.00    +0.000 OA
ATOM     17  H   UNL     1       5.756   3.088  14.317  0.00  0.00    +0.000 HD
BRANCH  14  19
ATOM     18  C   UNL     1       4.806   3.183  11.711  0.00  0.00    +0.000 C 
ATOM     19  C   UNL     1       6.224   3.283  12.244  0.00  0.00    +0.000 C 
ENDBRANCH  14  19
ENDBRANCH  13  15
ENDBRANCH  12  13
ENDBRANCH   1  12
TORSDOF 5
ENDMDL
MODEL 9
REMARK VINA RESULT:      -6.3      1.269      1.667
REMARK  Name = 
REMARK  6 active torsions:
REMARK  status: ('A' for Active; 'I' for Inactive)
REMARK    1  A    between atoms: C_1  and  C_2
REMARK    2  A    between atoms: C_2  and  N_3
REMARK    3  A    between atoms: C_4  and  C_6
REMARK    4  A    between atoms: C_6  and  O_7
REMARK    5  A    between atoms: O_7  and  C_8
REMARK    6  A    between atoms: C_8  and  C_10
REMARK                            x       y       z     vdW  Elec       q    Type
REMARK                         _______ _______ _______ _____ _____    ______ ____
ROOT
ATOM      1  C   UNL     1       5.230   6.294  16.251  0.00  0.00    +0.000 C 
ATOM      2  O   UNL     1       5.050   6.756  15.132  0.00  0.00    +0.000 OA
ENDROOT
BRANCH   1   3
ATOM      3  C   UNL     1       4.174   6.193  17.263  0.00  0.00    +0.000 A 
ATOM      4  C   UNL     1       3.709   7.280  17.990  0.00  0.00    +0.000 A 
ATOM      5  S   UNL     1       2.482   6.876  19.107  0.00  0.00    +0.000 S 
ATOM      6  C   UNL     1       2.546   5.241  18.657  0.00  0.00    +0.000 A 
ATOM      7  C   UNL     1       3.472   4.992  17.659  0.00  0.00    +0.000 A 
ATOM      8  C   UNL     1       3.689   3.601  17.127  0.00  0.00    +0.000 C 
ATOM      9  C   UNL     1       2.517   2.668  17.472  0.00  0.00    +0.000 C 
ATOM     10  C   UNL     1       2.107   2.798  18.943  0.00  0.00    +0.000 C 
ATOM     11  C   UNL     1       1.643   4.221  19.283  0.00  0.00    +0.000 C 
ENDBRANCH   1   3
BRANCH   1  12
ATOM     12  O   UNL     1       6.427   5.826  16.707  0.00  0.00    +0.000 OA
BRANCH  12  13
ATOM     13  C   UNL     1       6.904   4.606  16.131  0.00  0.00    +0.000 C 
BRANCH  13  15
ATOM     14  N   UNL     1       5.998   3.918  13.960  0.00  0.00    +0.000 N 
ATOM     15  C   UNL     1       6.952   4.676  14.604  0.00  0.00    +0.000 C 
ATOM     16  O   UNL     1       7.769   5.376  14.013  0.00  0.00    +0.000 OA
ATOM     17  H   UNL     1       5.391   3.335  14.524  0.00  0.00    +0.000 HD
BRANCH  14  19
ATOM     18  C   UNL     1       6.696   2.702  11.944  0.00  0.00    +0.000 C 
ATOM     19  C   UNL     1       5.898   3.858  12.518  0.00  0.00    +0.000 C 
ENDBRANCH  14  19
ENDBRANCH  13  15
ENDBRANCH  12  13
ENDBRANCH   1  12
TORSDOF 5
ENDMDL
