MODEL 1
REMARK VINA RESULT:      -7.6      0.000      0.000
REMARK  Name = 
REMARK  7 active torsions:
REMARK  status: ('A' for Active; 'I' for Inactive)
REMARK    1  A    between atoms: C_1  and  C_2
REMARK    2  A    between atoms: C_2  and  O_3
REMARK    3  A    between atoms: O_3  and  C_4
REMARK    4  A    between atoms: C_10  and  C_12
REMARK    5  A    between atoms: C_12  and  S_13
REMARK    6  A    between atoms: S_13  and  C_14
REMARK    7  A    between atoms: C_22  and  C_23
REMARK                            x       y       z     vdW  Elec       q    Type
REMARK                         _______ _______ _______ _____ _____    ______ ____
ROOT
ATOM      1  C   UNL     1       1.376   5.225  18.884  0.00  0.00    +0.000 C 
ENDROOT
BRANCH   1   8
ATOM      2  C   UNL     1       7.120   5.382  16.007  0.00  0.00    +0.000 C 
ATOM      3  O   UNL     1       7.872   4.484  15.650  0.00  0.00    +0.000 OA
ATOM      4  N   UNL     1       5.777   5.205  16.259  0.00  0.00    +0.000 N 
ATOM      5  C   UNL     1       5.203   3.863  16.202  0.00  0.00    +0.000 C 
ATOM      6  C   UNL     1       4.547   3.494  17.540  0.00  0.00    +0.000 C 
ATOM      7  N   UNL     1       3.595   4.530  17.967  0.00  0.00    +0.000 N 
ATOM      8  C   UNL     1       2.348   4.136  18.437  0.00  0.00    +0.000 C 
ATOM      9  O   UNL     1       2.016   2.947  18.422  0.00  0.00    +0.000 OA
ATOM     10  C   UNL     1       4.164   5.886  18.027  0.00  0.00    +0.000 C 
ATOM     11  C   UNL     1       4.873   6.264  16.714  0.00  0.00    +0.000 C 
BRANCH   2  12
ATOM     12  O   UNL     1       7.532   6.648  16.283  0.00  0.00    +0.000 OA
BRANCH  12  14
ATOM     13  C   UNL     1       7.864   8.434  17.834  0.00  0.00    +0.000 C 
ATOM     14  C   UNL     1       7.735   6.929  17.674  0.00  0.00    +0.000 C 
ENDBRANCH  12  14
ENDBRANCH   2  12
ENDBRANCH   1   8
BRANCH   1  15
ATOM     15  S   UNL     1       1.776   5.864  20.534  0.00  0.00    +0.000 S 
BRANCH  15  16
ATOM     16  C   UNL     1       1.555   7.583  20.264  0.00  0.00    +0.000 A 
ATOM     17  N   UNL     1       1.885   8.096  19.135  0.00  0.00    +0.000 NA
ATOM     18  C   UNL     1       1.592   9.408  18.900  0.00  0.00    +0.000 A 
ATOM     19  O   UNL     1       1.978   9.942  17.860  0.00  0.00    +0.000 OA
ATOM     20  N   UNL     1       0.841  10.098  19.842  0.00  0.00    +0.000 N 
ATOM     21  C   UNL     1       0.357  11.373  19.573  0.00  0.00    +0.000 A 
ATOM     22  C   UNL     1      -0.363  12.049  20.471  0.00  0.00    +0.000 A 
ATOM     23  C   UNL     1      -0.591  11.486  21.776  0.00  0.00    +0.000 A 
ATOM     24  C   UNL     1      -0.119  10.270  22.097  0.00  0.00    +0.000 A 
ATOM     25  C   UNL     1      -0.253   9.661  23.456  0.00  0.00    +0.000 C 
ATOM     26  C   UNL     1       0.597   9.475  21.041  0.00  0.00    +0.000 A 
ATOM     27  N   UNL     1       0.954   8.261  21.272  0.00  0.00    +0.000 NA
ENDBRANCH  15  16
ENDBRANCH   1  15
TORSDOF 5
ENDMDL
MODEL 2
REMARK VINA RESULT:      -7.4      2.669      7.158
REMARK  Name = 
REMARK  7 active torsions:
REMARK  status: ('A' for Active; 'I' for Inactive)
REMARK    1  A    between atoms: C_1  and  C_2
REMARK    2  A    between atoms: C_2  and  O_3
REMARK    3  A    between atoms: O_3  and  C_4
REMARK    4  A    between atoms: C_10  and  C_12
REMARK    5  A    between atoms: C_12  and  S_13
REMARK    6  A    between atoms: S_13  and  C_14
REMARK    7  A    between atoms: C_22  and  C_23
REMARK                            x       y       z     vdW  Elec       q    Type
REMARK                         _______ _______ _______ _____ _____    ______ ____
ROOT
ATOM      1  C   UNL     1       1.997   2.012  18.208  0.00  0.00    +0.000 C 
ENDROOT
BRANCH   1   8
ATOM      2  C   UNL     1       1.811   8.266  19.673  0.00  0.00    +0.000 C 
ATOM      3  O   UNL     1       1.470   8.849  20.694  0.00  0.00    +0.000 OA
ATOM      4  N   UNL     1       2.156   6.933  19.628  0.00  0.00    +0.000 N 
ATOM      5  C   UNL     1       2.026   6.112  20.829  0.00  0.00    +0.000 C 
ATOM      6  C   UNL     1       1.097   4.918  20.575  0.00  0.00    +0.000 C 
ATOM      7  N   UNL     1       1.516   4.165  19.384  0.00  0.00    +0.000 N 
ATOM      8  C   UNL     1       1.567   2.778  19.456  0.00  0.00    +0.000 C 
ATOM      9  O   UNL     1       1.341   2.193  20.520  0.00  0.00    +0.000 OA
ATOM     10  C   UNL     1       1.652   4.982  18.168  0.00  0.00    +0.000 C 
ATOM     11  C   UNL     1       2.539   6.217  18.409  0.00  0.00    +0.000 C 
BRANCH   2  12
ATOM     12  O   UNL     1       1.810   8.838  18.439  0.00  0.00    +0.000 OA
BRANCH  12  14
ATOM     13  C   UNL     1      -0.228   9.973  17.927  0.00  0.00    +0.000 C 
ATOM     14  C   UNL     1       1.214  10.140  18.376  0.00  0.00    +0.000 C 
ENDBRANCH  12  14
ENDBRANCH   2  12
ENDBRANCH   1   8
BRANCH   1  15
ATOM     15  S   UNL     1       3.703   1.409  18.328  0.00  0.00    +0.000 S 
BRANCH  15  16
ATOM     16  C   UNL     1       4.580   2.916  18.142  0.00  0.00    +0.000 A 
ATOM     17  N   UNL     1       5.023   3.526  19.181  0.00  0.00    +0.000 NA
ATOM     18  C   UNL     1       5.808   4.629  19.010  0.00  0.00    +0.000 A 
ATOM     19  O   UNL     1       6.168   5.280  19.992  0.00  0.00    +0.000 OA
ATOM     20  N   UNL     1       6.196   4.972  17.722  0.00  0.00    +0.000 N 
ATOM     21  C   UNL     1       7.140   5.969  17.504  0.00  0.00    +0.000 A 
ATOM     22  C   UNL     1       7.520   6.312  16.270  0.00  0.00    +0.000 A 
ATOM     23  C   UNL     1       6.894   5.692  15.131  0.00  0.00    +0.000 A 
ATOM     24  C   UNL     1       5.955   4.746  15.288  0.00  0.00    +0.000 A 
ATOM     25  C   UNL     1       5.211   4.119  14.151  0.00  0.00    +0.000 C 
ATOM     26  C   UNL     1       5.615   4.293  16.680  0.00  0.00    +0.000 A 
ATOM     27  N   UNL     1       4.812   3.304  16.865  0.00  0.00    +0.000 NA
ENDBRANCH  15  16
ENDBRANCH   1  15
TORSDOF 5
ENDMDL
MODEL 3
REMARK VINA RESULT:      -7.4      2.163      3.078
REMARK  Name = 
REMARK  7 active torsions:
REMARK  status: ('A' for Active; 'I' for Inactive)
REMARK    1  A    between atoms: C_1  and  C_2
REMARK    2  A    between atoms: C_2  and  O_3
REMARK    3  A    between atoms: O_3  and  C_4
REMARK    4  A    between atoms: C_10  and  C_12
REMARK    5  A    between atoms: C_12  and  S_13
REMARK    6  A    between atoms: S_13  and  C_14
REMARK    7  A    between atoms: C_22  and  C_23
REMARK                            x       y       z     vdW  Elec       q    Type
REMARK                         _______ _______ _______ _____ _____    ______ ____
ROOT
ATOM      1  C   UNL     1       1.712   7.593  18.127  0.00  0.00    +0.000 C 
ENDROOT
BRANCH   1   8
ATOM      2  C   UNL     1       7.222   4.813  16.333  0.00  0.00    +0.000 C 
ATOM      3  O   UNL     1       8.039   4.154  16.963  0.00  0.00    +0.000 OA
ATOM      4  N   UNL     1       5.922   5.020  16.742  0.00  0.00    +0.000 N 
ATOM      5  C   UNL     1       5.487   4.522  18.045  0.00  0.00    +0.000 C 
ATOM      6  C   UNL     1       4.957   5.668  18.917  0.00  0.00    +0.000 C 
ATOM      7  N   UNL     1       3.931   6.444  18.205  0.00  0.00    +0.000 N 
ATOM      8  C   UNL     1       2.762   6.780  18.878  0.00  0.00    +0.000 C 
ATOM      9  O   UNL     1       2.555   6.368  20.024  0.00  0.00    +0.000 OA
ATOM     10  C   UNL     1       4.358   6.950  16.891  0.00  0.00    +0.000 C 
ATOM     11  C   UNL     1       4.943   5.829  16.013  0.00  0.00    +0.000 C 
BRANCH   2  12
ATOM     12  O   UNL     1       7.516   5.495  15.194  0.00  0.00    +0.000 OA
BRANCH  12  14
ATOM     13  C   UNL     1       8.093   5.483  12.876  0.00  0.00    +0.000 C 
ATOM     14  C   UNL     1       7.357   4.745  13.982  0.00  0.00    +0.000 C 
ENDBRANCH  12  14
ENDBRANCH   2  12
ENDBRANCH   1   8
BRANCH   1  15
ATOM     15  S   UNL     1       2.017   9.377  18.241  0.00  0.00    +0.000 S 
BRANCH  15  16
ATOM     16  C   UNL     1       0.999   9.780  19.612  0.00  0.00    +0.000 A 
ATOM     17  N   UNL     1       1.356   9.427  20.794  0.00  0.00    +0.000 NA
ATOM     18  C   UNL     1       0.616   9.856  21.857  0.00  0.00    +0.000 A 
ATOM     19  O   UNL     1       0.889   9.456  22.990  0.00  0.00    +0.000 OA
ATOM     20  N   UNL     1      -0.415  10.756  21.627  0.00  0.00    +0.000 N 
ATOM     21  C   UNL     1      -1.078  11.366  22.686  0.00  0.00    +0.000 A 
ATOM     22  C   UNL     1      -2.074  12.231  22.479  0.00  0.00    +0.000 A 
ATOM     23  C   UNL     1      -2.528  12.491  21.138  0.00  0.00    +0.000 A 
ATOM     24  C   UNL     1      -1.942  11.904  20.083  0.00  0.00    +0.000 A 
ATOM     25  C   UNL     1      -2.414  12.070  18.673  0.00  0.00    +0.000 C 
ATOM     26  C   UNL     1      -0.753  11.017  20.322  0.00  0.00    +0.000 A 
ATOM     27  N   UNL     1      -0.089  10.536  19.330  0.00  0.00    +0.000 NA
ENDBRANCH  15  16
ENDBRANCH   1  15
TORSDOF 5
ENDMDL
MODEL 4
REMARK VINA RESULT:      -7.4      3.304      5.138
REMARK  Name = 
REMARK  7 active torsions:
REMARK  status: ('A' for Active; 'I' for Inactive)
REMARK    1  A    between atoms: C_1  and  C_2
REMARK    2  A    between atoms: C_2  and  O_3
REMARK    3  A    between atoms: O_3  and  C_4
REMARK    4  A    between atoms: C_10  and  C_12
REMARK    5  A    between atoms: C_12  and  S_13
REMARK    6  A    between atoms: S_13  and  C_14
REMARK    7  A    between atoms: C_22  and  C_23
REMARK                            x       y       z     vdW  Elec       q    Type
REMARK                         _______ _______ _______ _____ _____    ______ ____
ROOT
ATOM      1  C   UNL     1       1.052   9.324  19.540  0.00  0.00    +0.000 C 
ENDROOT
BRANCH   1   8
ATOM      2  C   UNL     1       4.779   4.260  18.205  0.00  0.00    +0.000 C 
ATOM      3  O   UNL     1       5.478   4.003  17.233  0.00  0.00    +0.000 OA
ATOM      4  N   UNL     1       4.342   5.528  18.523  0.00  0.00    +0.000 N 
ATOM      5  C   UNL     1       4.630   6.639  17.620  0.00  0.00    +0.000 C 
ATOM      6  C   UNL     1       3.333   7.320  17.164  0.00  0.00    +0.000 C 
ATOM      7  N   UNL     1       2.496   7.692  18.315  0.00  0.00    +0.000 N 
ATOM      8  C   UNL     1       1.924   8.958  18.342  0.00  0.00    +0.000 C 
ATOM      9  O   UNL     1       2.177   9.782  17.458  0.00  0.00    +0.000 OA
ATOM     10  C   UNL     1       2.201   6.580  19.232  0.00  0.00    +0.000 C 
ATOM     11  C   UNL     1       3.482   5.846  19.666  0.00  0.00    +0.000 C 
BRANCH   2  12
ATOM     12  O   UNL     1       4.272   3.318  19.043  0.00  0.00    +0.000 OA
BRANCH  12  14
ATOM     13  C   UNL     1       2.295   2.751  17.828  0.00  0.00    +0.000 C 
ATOM     14  C   UNL     1       3.604   2.227  18.395  0.00  0.00    +0.000 C 
ENDBRANCH  12  14
ENDBRANCH   2  12
ENDBRANCH   1   8
BRANCH   1  15
ATOM     15  S   UNL     1       0.933  11.118  19.777  0.00  0.00    +0.000 S 
BRANCH  15  16
ATOM     16  C   UNL     1      -0.803  11.335  19.647  0.00  0.00    +0.000 A 
ATOM     17  N   UNL     1      -1.436  11.966  20.569  0.00  0.00    +0.000 NA
ATOM     18  C   UNL     1      -2.762  12.232  20.390  0.00  0.00    +0.000 A 
ATOM     19  O   UNL     1      -3.407  12.756  21.299  0.00  0.00    +0.000 OA
ATOM     20  N   UNL     1      -3.341  11.919  19.168  0.00  0.00    +0.000 N 
ATOM     21  C   UNL     1      -4.633  12.334  18.864  0.00  0.00    +0.000 A 
ATOM     22  C   UNL     1      -5.204  12.037  17.693  0.00  0.00    +0.000 A 
ATOM     23  C   UNL     1      -4.504  11.210  16.746  0.00  0.00    +0.000 A 
ATOM     24  C   UNL     1      -3.266  10.758  17.004  0.00  0.00    +0.000 A 
ATOM     25  C   UNL     1      -2.515   9.834  16.099  0.00  0.00    +0.000 C 
ATOM     26  C   UNL     1      -2.593  11.189  18.277  0.00  0.00    +0.000 A 
ATOM     27  N   UNL     1      -1.365  10.879  18.502  0.00  0.00    +0.000 NA
ENDBRANCH  15  16
ENDBRANCH   1  15
TORSDOF 5
ENDMDL
MODEL 5
REMARK VINA RESULT:      -7.3      3.099      4.778
REMARK  Name = 
REMARK  7 active torsions:
REMARK  status: ('A' for Active; 'I' for Inactive)
REMARK    1  A    between atoms: C_1  and  C_2
REMARK    2  A    between atoms: C_2  and  O_3
REMARK    3  A    between atoms: O_3  and  C_4
REMARK    4  A    between atoms: C_10  and  C_12
REMARK    5  A    between atoms: C_12  and  S_13
REMARK    6  A    between atoms: S_13  and  C_14
REMARK    7  A    between atoms: C_22  and  C_23
REMARK                            x       y       z     vdW  Elec       q    Type
REMARK                         _______ _______ _______ _____ _____    ______ ____
ROOT
ATOM      1  C   UNL     1       1.103   9.143  19.485  0.00  0.00    +0.000 C 
ENDROOT
BRANCH   1   8
ATOM      2  C   UNL     1       4.935   4.155  18.168  0.00  0.00    +0.000 C 
ATOM      3  O   UNL     1       5.685   3.936  17.224  0.00  0.00    +0.000 OA
ATOM      4  N   UNL     1       4.473   5.407  18.507  0.00  0.00    +0.000 N 
ATOM      5  C   UNL     1       4.796   6.551  17.658  0.00  0.00    +0.000 C 
ATOM      6  C   UNL     1       3.517   7.238  17.160  0.00  0.00    +0.000 C 
ATOM      7  N   UNL     1       2.621   7.564  18.279  0.00  0.00    +0.000 N 
ATOM      8  C   UNL     1       2.037   8.825  18.321  0.00  0.00    +0.000 C 
ATOM      9  O   UNL     1       2.327   9.681  17.480  0.00  0.00    +0.000 OA
ATOM     10  C   UNL     1       2.289   6.419  19.142  0.00  0.00    +0.000 C 
ATOM     11  C   UNL     1       3.554   5.679  19.615  0.00  0.00    +0.000 C 
BRANCH   2  12
ATOM     12  O   UNL     1       4.396   3.180  18.947  0.00  0.00    +0.000 OA
BRANCH  12  14
ATOM     13  C   UNL     1       2.286   2.061  19.012  0.00  0.00    +0.000 C 
ATOM     14  C   UNL     1       3.589   2.223  18.247  0.00  0.00    +0.000 C 
ENDBRANCH  12  14
ENDBRANCH   2  12
ENDBRANCH   1   8
BRANCH   1  15
ATOM     15  S   UNL     1       0.794  10.923  19.649  0.00  0.00    +0.000 S 
BRANCH  15  16
ATOM     16  C   UNL     1      -0.781  11.038  18.886  0.00  0.00    +0.000 A 
ATOM     17  N   UNL     1      -1.027  10.350  17.830  0.00  0.00    +0.000 NA
ATOM     18  C   UNL     1      -2.294  10.357  17.324  0.00  0.00    +0.000 A 
ATOM     19  O   UNL     1      -2.530   9.776  16.263  0.00  0.00    +0.000 OA
ATOM     20  N   UNL     1      -3.290  11.007  18.039  0.00  0.00    +0.000 N 
ATOM     21  C   UNL     1      -4.625  10.890  17.670  0.00  0.00    +0.000 A 
ATOM     22  C   UNL     1      -5.593  11.513  18.348  0.00  0.00    +0.000 A 
ATOM     23  C   UNL     1      -5.253  12.384  19.442  0.00  0.00    +0.000 A 
ATOM     24  C   UNL     1      -3.976  12.555  19.820  0.00  0.00    +0.000 A 
ATOM     25  C   UNL     1      -3.549  13.502  20.896  0.00  0.00    +0.000 C 
ATOM     26  C   UNL     1      -2.907  11.764  19.119  0.00  0.00    +0.000 A 
ATOM     27  N   UNL     1      -1.689  11.807  19.532  0.00  0.00    +0.000 NA
ENDBRANCH  15  16
ENDBRANCH   1  15
TORSDOF 5
ENDMDL
MODEL 6
REMARK VINA RESULT:      -7.3      2.468      3.448
REMARK  Name = 
REMARK  7 active torsions:
REMARK  status: ('A' for Active; 'I' for Inactive)
REMARK    1  A    between atoms: C_1  and  C_2
REMARK    2  A    between atoms: C_2  and  O_3
REMARK    3  A    between atoms: O_3  and  C_4
REMARK    4  A    between atoms: C_10  and  C_12
REMARK    5  A    between atoms: C_12  and  S_13
REMARK    6  A    between atoms: S_13  and  C_14
REMARK    7  A    between atoms: C_22  and  C_23
REMARK                            x       y       z     vdW  Elec       q    Type
REMARK                         _______ _______ _______ _____ _____    ______ ____
ROOT
ATOM      1  C   UNL     1       1.731   7.712  18.177  0.00  0.00    +0.000 C 
ENDROOT
BRANCH   1   8
ATOM      2  C   UNL     1       7.123   4.839  16.182  0.00  0.00    +0.000 C 
ATOM      3  O   UNL     1       7.942   4.151  16.778  0.00  0.00    +0.000 OA
ATOM      4  N   UNL     1       5.840   5.069  16.631  0.00  0.00    +0.000 N 
ATOM      5  C   UNL     1       5.431   4.558  17.937  0.00  0.00    +0.000 C 
ATOM      6  C   UNL     1       4.952   5.701  18.843  0.00  0.00    +0.000 C 
ATOM      7  N   UNL     1       3.925   6.513  18.173  0.00  0.00    +0.000 N 
ATOM      8  C   UNL     1       2.783   6.863  18.885  0.00  0.00    +0.000 C 
ATOM      9  O   UNL     1       2.599   6.436  20.029  0.00  0.00    +0.000 OA
ATOM     10  C   UNL     1       4.326   7.031  16.856  0.00  0.00    +0.000 C 
ATOM     11  C   UNL     1       4.860   5.912  15.943  0.00  0.00    +0.000 C 
BRANCH   2  12
ATOM     12  O   UNL     1       7.400   5.534  15.046  0.00  0.00    +0.000 OA
BRANCH  12  14
ATOM     13  C   UNL     1       6.384   4.016  13.506  0.00  0.00    +0.000 C 
ATOM     14  C   UNL     1       7.671   4.725  13.893  0.00  0.00    +0.000 C 
ENDBRANCH  12  14
ENDBRANCH   2  12
ENDBRANCH   1   8
BRANCH   1  15
ATOM     15  S   UNL     1       2.196   9.465  18.114  0.00  0.00    +0.000 S 
BRANCH  15  16
ATOM     16  C   UNL     1       0.840  10.178  18.969  0.00  0.00    +0.000 A 
ATOM     17  N   UNL     1       1.034  10.760  20.097  0.00  0.00    +0.000 NA
ATOM     18  C   UNL     1      -0.008  11.414  20.685  0.00  0.00    +0.000 A 
ATOM     19  O   UNL     1       0.134  11.903  21.807  0.00  0.00    +0.000 OA
ATOM     20  N   UNL     1      -1.200  11.529  19.983  0.00  0.00    +0.000 N 
ATOM     21  C   UNL     1      -2.228  12.339  20.450  0.00  0.00    +0.000 A 
ATOM     22  C   UNL     1      -3.381  12.456  19.786  0.00  0.00    +0.000 A 
ATOM     23  C   UNL     1      -3.603  11.676  18.597  0.00  0.00    +0.000 A 
ATOM     24  C   UNL     1      -2.653  10.856  18.120  0.00  0.00    +0.000 A 
ATOM     25  C   UNL     1      -2.848   9.962  16.937  0.00  0.00    +0.000 C 
ATOM     26  C   UNL     1      -1.322  10.816  18.815  0.00  0.00    +0.000 A 
ATOM     27  N   UNL     1      -0.348  10.137  18.318  0.00  0.00    +0.000 NA
ENDBRANCH  15  16
ENDBRANCH   1  15
TORSDOF 5
ENDMDL
MODEL 7
REMARK VINA RESULT:      -7.2      3.316      8.446
REMARK  Name = 
REMARK  7 active torsions:
REMARK  status: ('A' for Active; 'I' for Inactive)
REMARK    1  A    between atoms: C_1  and  C_2
REMARK    2  A    between atoms: C_2  and  O_3
REMARK    3  A    between atoms: O_3  and  C_4
REMARK    4  A    between atoms: C_10  and  C_12
REMARK    5  A    between atoms: C_12  and  S_13
REMARK    6  A    between atoms: S_13  and  C_14
REMARK    7  A    between atoms: C_22  and  C_23
REMARK                            x       y       z     vdW  Elec       q    Type
REMARK                         _______ _______ _______ _____ _____    ______ ____
ROOT
ATOM      1  C   UNL     1       1.256   9.390  18.770  0.00  0.00    +0.000 C 
ENDROOT
BRANCH   1   8
ATOM      2  C   UNL     1       1.005  15.782  19.387  0.00  0.00    +0.000 C 
ATOM      3  O   UNL     1       0.083  16.574  19.242  0.00  0.00    +0.000 OA
ATOM      4  N   UNL     1       0.832  14.430  19.592  0.00  0.00    +0.000 N 
ATOM      5  C   UNL     1      -0.511  13.859  19.543  0.00  0.00    +0.000 C 
ATOM      6  C   UNL     1      -0.596  12.758  18.477  0.00  0.00    +0.000 C 
ATOM      7  N   UNL     1       0.468  11.760  18.661  0.00  0.00    +0.000 N 
ATOM      8  C   UNL     1       0.138  10.412  18.586  0.00  0.00    +0.000 C 
ATOM      9  O   UNL     1      -1.037  10.058  18.447  0.00  0.00    +0.000 OA
ATOM     10  C   UNL     1       1.826  12.325  18.713  0.00  0.00    +0.000 C 
ATOM     11  C   UNL     1       1.927  13.468  19.739  0.00  0.00    +0.000 C 
BRANCH   2  12
ATOM     12  O   UNL     1       2.318  16.120  19.278  0.00  0.00    +0.000 OA
BRANCH  12  14
ATOM     13  C   UNL     1       3.642  15.630  17.351  0.00  0.00    +0.000 C 
ATOM     14  C   UNL     1       2.706  16.637  17.998  0.00  0.00    +0.000 C 
ENDBRANCH  12  14
ENDBRANCH   2  12
ENDBRANCH   1   8
BRANCH   1  15
ATOM     15  S   UNL     1       1.304   8.724  20.456  0.00  0.00    +0.000 S 
BRANCH  15  16
ATOM     16  C   UNL     1       1.934   7.117  20.139  0.00  0.00    +0.000 A 
ATOM     17  N   UNL     1       1.532   6.126  20.849  0.00  0.00    +0.000 NA
ATOM     18  C   UNL     1       1.938   4.869  20.508  0.00  0.00    +0.000 A 
ATOM     19  O   UNL     1       1.637   3.915  21.227  0.00  0.00    +0.000 OA
ATOM     20  N   UNL     1       2.665   4.702  19.338  0.00  0.00    +0.000 N 
ATOM     21  C   UNL     1       2.944   3.432  18.847  0.00  0.00    +0.000 A 
ATOM     22  C   UNL     1       3.646   3.257  17.724  0.00  0.00    +0.000 A 
ATOM     23  C   UNL     1       4.192   4.397  17.037  0.00  0.00    +0.000 A 
ATOM     24  C   UNL     1       3.977   5.644  17.487  0.00  0.00    +0.000 A 
ATOM     25  C   UNL     1       4.578   6.865  16.866  0.00  0.00    +0.000 C 
ATOM     26  C   UNL     1       3.096   5.833  18.689  0.00  0.00    +0.000 A 
ATOM     27  N   UNL     1       2.767   7.015  19.076  0.00  0.00    +0.000 NA
ENDBRANCH  15  16
ENDBRANCH   1  15
TORSDOF 5
ENDMDL
MODEL 8
REMARK VINA RESULT:      -7.2      3.403      9.686
REMARK  Name = 
REMARK  7 active torsions:
REMARK  status: ('A' for Active; 'I' for Inactive)
REMARK    1  A    between atoms: C_1  and  C_2
REMARK    2  A    between atoms: C_2  and  O_3
REMARK    3  A    between atoms: O_3  and  C_4
REMARK    4  A    between atoms: C_10  and  C_12
REMARK    5  A    between atoms: C_12  and  S_13
REMARK    6  A    between atoms: S_13  and  C_14
REMARK    7  A    between atoms: C_22  and  C_23
REMARK                            x       y       z     vdW  Elec       q    Type
REMARK                         _______ _______ _______ _____ _____    ______ ____
ROOT
ATOM      1  C   UNL     1       0.856   9.752  19.480  0.00  0.00    +0.000 C 
ENDROOT
BRANCH   1   8
ATOM      2  C   UNL     1      -2.396  13.957  23.093  0.00  0.00    +0.000 C 
ATOM      3  O   UNL     1      -3.303  14.731  22.816  0.00  0.00    +0.000 OA
ATOM      4  N   UNL     1      -2.058  12.864  22.326  0.00  0.00    +0.000 N 
ATOM      5  C   UNL     1      -2.735  12.638  21.052  0.00  0.00    +0.000 C 
ATOM      6  C   UNL     1      -1.724  12.586  19.899  0.00  0.00    +0.000 C 
ATOM      7  N   UNL     1      -0.650  11.622  20.179  0.00  0.00    +0.000 N 
ATOM      8  C   UNL     1      -0.266  10.741  19.175  0.00  0.00    +0.000 C 
ATOM      9  O   UNL     1      -0.867  10.714  18.097  0.00  0.00    +0.000 OA
ATOM     10  C   UNL     1       0.039  11.839  21.461  0.00  0.00    +0.000 C 
ATOM     11  C   UNL     1      -0.957  11.946  22.630  0.00  0.00    +0.000 C 
BRANCH   2  12
ATOM     12  O   UNL     1      -1.551  14.126  24.145  0.00  0.00    +0.000 OA
BRANCH  12  14
ATOM     13  C   UNL     1      -1.500  15.725  25.919  0.00  0.00    +0.000 C 
ATOM     14  C   UNL     1      -1.222  15.489  24.444  0.00  0.00    +0.000 C 
ENDBRANCH  12  14
ENDBRANCH   2  12
ENDBRANCH   1   8
BRANCH   1  15
ATOM     15  S   UNL     1       1.857   9.379  18.015  0.00  0.00    +0.000 S 
BRANCH  15  16
ATOM     16  C   UNL     1       2.481   7.800  18.457  0.00  0.00    +0.000 A 
ATOM     17  N   UNL     1       2.038   7.214  19.510  0.00  0.00    +0.000 NA
ATOM     18  C   UNL     1       2.443   5.937  19.769  0.00  0.00    +0.000 A 
ATOM     19  O   UNL     1       2.100   5.390  20.818  0.00  0.00    +0.000 OA
ATOM     20  N   UNL     1       3.217   5.282  18.822  0.00  0.00    +0.000 N 
ATOM     21  C   UNL     1       3.501   3.927  18.946  0.00  0.00    +0.000 A 
ATOM     22  C   UNL     1       4.248   3.286  18.043  0.00  0.00    +0.000 A 
ATOM     23  C   UNL     1       4.835   4.017  16.952  0.00  0.00    +0.000 A 
ATOM     24  C   UNL     1       4.617   5.334  16.803  0.00  0.00    +0.000 A 
ATOM     25  C   UNL     1       5.259   6.166  15.739  0.00  0.00    +0.000 C 
ATOM     26  C   UNL     1       3.688   6.021  17.764  0.00  0.00    +0.000 A 
ATOM     27  N   UNL     1       3.357   7.251  17.582  0.00  0.00    +0.000 NA
ENDBRANCH  15  16
ENDBRANCH   1  15
TORSDOF 5
ENDMDL
MODEL 9
REMARK VINA RESULT:      -7.2      2.224      6.813
REMARK  Name = 
REMARK  7 active torsions:
REMARK  status: ('A' for Active; 'I' for Inactive)
REMARK    1  A    between atoms: C_1  and  C_2
REMARK    2  A    between atoms: C_2  and  O_3
REMARK    3  A    between atoms: O_3  and  C_4
REMARK    4  A    between atoms: C_10  and  C_12
REMARK    5  A    between atoms: C_12  and  S_13
REMARK    6  A    between atoms: S_13  and  C_14
REMARK    7  A    between atoms: C_22  and  C_23
REMARK                            x       y       z     vdW  Elec       q    Type
REMARK                         _______ _______ _______ _____ _____    ______ ____
ROOT
ATOM      1  C   UNL     1       2.744   2.575  18.013  0.00  0.00    +0.000 C 
ENDROOT
BRANCH   1   8
ATOM      2  C   UNL     1       1.495   8.535  20.069  0.00  0.00    +0.000 C 
ATOM      3  O   UNL     1       0.876   8.942  21.044  0.00  0.00    +0.000 OA
ATOM      4  N   UNL     1       2.001   7.257  19.959  0.00  0.00    +0.000 N 
ATOM      5  C   UNL     1       1.718   6.276  21.003  0.00  0.00    +0.000 C 
ATOM      6  C   UNL     1       1.015   5.044  20.416  0.00  0.00    +0.000 C 
ATOM      7  N   UNL     1       1.767   4.498  19.277  0.00  0.00    +0.000 N 
ATOM      8  C   UNL     1       1.969   3.125  19.207  0.00  0.00    +0.000 C 
ATOM      9  O   UNL     1       1.594   2.386  20.122  0.00  0.00    +0.000 OA
ATOM     10  C   UNL     1       2.059   5.479  18.219  0.00  0.00    +0.000 C 
ATOM     11  C   UNL     1       2.718   6.749  18.788  0.00  0.00    +0.000 C 
BRANCH   2  12
ATOM     12  O   UNL     1       1.688   9.262  18.937  0.00  0.00    +0.000 OA
BRANCH  12  14
ATOM     13  C   UNL     1      -0.381  10.121  18.108  0.00  0.00    +0.000 C 
ATOM     14  C   UNL     1       0.904  10.459  18.845  0.00  0.00    +0.000 C 
ENDBRANCH  12  14
ENDBRANCH   2  12
ENDBRANCH   1   8
BRANCH   1  15
ATOM     15  S   UNL     1       4.471   2.209  18.428  0.00  0.00    +0.000 S 
BRANCH  15  16
ATOM     16  C   UNL     1       5.261   3.622  17.751  0.00  0.00    +0.000 A 
ATOM     17  N   UNL     1       4.846   4.109  16.638  0.00  0.00    +0.000 NA
ATOM     18  C   UNL     1       5.390   5.278  16.191  0.00  0.00    +0.000 A 
ATOM     19  O   UNL     1       5.071   5.714  15.084  0.00  0.00    +0.000 OA
ATOM     20  N   UNL     1       6.277   5.954  17.016  0.00  0.00    +0.000 N 
ATOM     21  C   UNL     1       6.717   7.234  16.695  0.00  0.00    +0.000 A 
ATOM     22  C   UNL     1       7.573   7.894  17.479  0.00  0.00    +0.000 A 
ATOM     23  C   UNL     1       8.115   7.252  18.647  0.00  0.00    +0.000 A 
ATOM     24  C   UNL     1       7.746   6.006  18.985  0.00  0.00    +0.000 A 
ATOM     25  C   UNL     1       8.328   5.253  20.139  0.00  0.00    +0.000 C 
ATOM     26  C   UNL     1       6.701   5.315  18.155  0.00  0.00    +0.000 A 
ATOM     27  N   UNL     1       6.233   4.172  18.518  0.00  0.00    +0.000 NA
ENDBRANCH  15  16
ENDBRANCH   1  15
TORSDOF 5
ENDMDL
