MODEL 1
REMARK VINA RESULT:      -7.6      0.000      0.000
REMARK  Name = 
REMARK  6 active torsions:
REMARK  status: ('A' for Active; 'I' for Inactive)
REMARK    1  A    between atoms: C_1  and  O_2
REMARK    2  A    between atoms: O_2  and  C_3
REMARK    3  A    between atoms: C_6  and  C_7
REMARK    4  A    between atoms: C_9  and  C_10
REMARK    5  A    between atoms: C_16  and  C_17
REMARK    6  A    between atoms: C_19  and  N_20
REMARK                            x       y       z     vdW  Elec       q    Type
REMARK                         _______ _______ _______ _____ _____    ______ ____
ROOT
ATOM      1  C   UNL     1       2.456   6.362  19.548  0.00  0.00    +0.000 A 
ATOM      2  C   UNL     1       3.486   6.147  18.630  0.00  0.00    +0.000 A 
ATOM      3  C   UNL     1       3.925   4.851  18.321  0.00  0.00    +0.000 A 
ATOM      4  C   UNL     1       3.262   3.789  18.973  0.00  0.00    +0.000 A 
ATOM      5  C   UNL     1       2.285   4.074  19.934  0.00  0.00    +0.000 A 
ATOM      6  N   UNL     1       1.882   5.329  20.211  0.00  0.00    +0.000 NA
ENDROOT
BRANCH   1  10
ATOM      7  C   UNL     1       0.713  10.245  20.279  0.00  0.00    +0.000 A 
ATOM      8  C   UNL     1       0.791   9.297  21.295  0.00  0.00    +0.000 A 
ATOM      9  C   UNL     1       1.386   8.052  21.060  0.00  0.00    +0.000 A 
ATOM     10  C   UNL     1       1.886   7.705  19.794  0.00  0.00    +0.000 A 
ATOM     11  C   UNL     1       1.769   8.670  18.776  0.00  0.00    +0.000 A 
ATOM     12  C   UNL     1       1.189   9.923  19.011  0.00  0.00    +0.000 A 
BRANCH   7  14
ATOM     13  C   UNL     1      -0.459  11.471  21.914  0.00  0.00    +0.000 C 
ATOM     14  O   UNL     1       0.133  11.435  20.619  0.00  0.00    +0.000 OA
ENDBRANCH   7  14
ENDBRANCH   1  10
BRANCH   3  15
ATOM     15  C   UNL     1       5.026   4.674  17.334  0.00  0.00    +0.000 A 
ATOM     16  C   UNL     1       4.800   4.425  15.974  0.00  0.00    +0.000 A 
ATOM     17  C   UNL     1       5.857   4.308  15.071  0.00  0.00    +0.000 A 
ATOM     18  C   UNL     1       7.143   4.392  15.570  0.00  0.00    +0.000 A 
ATOM     19  N   UNL     1       7.428   4.582  16.873  0.00  0.00    +0.000 NA
ATOM     20  C   UNL     1       6.375   4.727  17.710  0.00  0.00    +0.000 A 
ENDBRANCH   3  15
BRANCH   5  21
ATOM     21  N   UNL     1       1.580   3.065  20.588  0.00  0.00    +0.000 N 
ATOM     22  H   UNL     1       1.286   2.290  20.006  0.00  0.00    +0.000 HD
ATOM     23  H   UNL     1       2.102   2.772  21.410  0.00  0.00    +0.000 HD
ENDBRANCH   5  21
BRANCH   4  24
ATOM     24  C   UNL     1       3.545   2.414  18.698  0.00  0.00    +0.000 C 
ATOM     25  N   UNL     1       3.724   1.278  18.510  0.00  0.00    +0.000 NA
ENDBRANCH   4  24
TORSDOF 5
ENDMDL
MODEL 2
REMARK VINA RESULT:      -7.6      0.997      1.080
REMARK  Name = 
REMARK  6 active torsions:
REMARK  status: ('A' for Active; 'I' for Inactive)
REMARK    1  A    between atoms: C_1  and  O_2
REMARK    2  A    between atoms: O_2  and  C_3
REMARK    3  A    between atoms: C_6  and  C_7
REMARK    4  A    between atoms: C_9  and  C_10
REMARK    5  A    between atoms: C_16  and  C_17
REMARK    6  A    between atoms: C_19  and  N_20
REMARK                            x       y       z     vdW  Elec       q    Type
REMARK                         _______ _______ _______ _____ _____    ______ ____
ROOT
ATOM      1  C   UNL     1       2.530   6.794  19.485  0.00  0.00    +0.000 A 
ATOM      2  C   UNL     1       3.507   6.442  18.552  0.00  0.00    +0.000 A 
ATOM      3  C   UNL     1       4.075   5.159  18.543  0.00  0.00    +0.000 A 
ATOM      4  C   UNL     1       3.595   4.251  19.511  0.00  0.00    +0.000 A 
ATOM      5  C   UNL     1       2.665   4.688  20.462  0.00  0.00    +0.000 A 
ATOM      6  N   UNL     1       2.136   5.926  20.447  0.00  0.00    +0.000 NA
ENDROOT
BRANCH   1  10
ATOM      7  C   UNL     1       0.389  10.542  19.349  0.00  0.00    +0.000 A 
ATOM      8  C   UNL     1       0.442   9.794  20.522  0.00  0.00    +0.000 A 
ATOM      9  C   UNL     1       1.164   8.596  20.568  0.00  0.00    +0.000 A 
ATOM     10  C   UNL     1       1.823   8.093  19.434  0.00  0.00    +0.000 A 
ATOM     11  C   UNL     1       1.730   8.853  18.253  0.00  0.00    +0.000 A 
ATOM     12  C   UNL     1       1.022  10.061  18.207  0.00  0.00    +0.000 A 
BRANCH   7  14
ATOM     13  C   UNL     1      -1.222  11.931  18.334  0.00  0.00    +0.000 C 
ATOM     14  O   UNL     1      -0.325  11.706  19.418  0.00  0.00    +0.000 OA
ENDBRANCH   7  14
ENDBRANCH   1  10
BRANCH   3  15
ATOM     15  C   UNL     1       5.112   4.831  17.526  0.00  0.00    +0.000 A 
ATOM     16  C   UNL     1       4.804   4.349  16.248  0.00  0.00    +0.000 A 
ATOM     17  C   UNL     1       5.801   4.094  15.307  0.00  0.00    +0.000 A 
ATOM     18  C   UNL     1       7.114   4.281  15.693  0.00  0.00    +0.000 A 
ATOM     19  N   UNL     1       7.480   4.696  16.922  0.00  0.00    +0.000 NA
ATOM     20  C   UNL     1       6.481   4.968  17.793  0.00  0.00    +0.000 A 
ENDBRANCH   3  15
BRANCH   5  21
ATOM     21  N   UNL     1       2.137   3.827  21.424  0.00  0.00    +0.000 N 
ATOM     22  H   UNL     1       2.219   2.839  21.219  0.00  0.00    +0.000 HD
ATOM     23  H   UNL     1       2.508   4.078  22.337  0.00  0.00    +0.000 HD
ENDBRANCH   5  21
BRANCH   4  24
ATOM     24  C   UNL     1       4.020   2.887  19.573  0.00  0.00    +0.000 C 
ATOM     25  N   UNL     1       4.379   1.784  19.685  0.00  0.00    +0.000 NA
ENDBRANCH   4  24
TORSDOF 5
ENDMDL
MODEL 3
REMARK VINA RESULT:      -7.6      1.034      1.505
REMARK  Name = 
REMARK  6 active torsions:
REMARK  status: ('A' for Active; 'I' for Inactive)
REMARK    1  A    between atoms: C_1  and  O_2
REMARK    2  A    between atoms: O_2  and  C_3
REMARK    3  A    between atoms: C_6  and  C_7
REMARK    4  A    between atoms: C_9  and  C_10
REMARK    5  A    between atoms: C_16  and  C_17
REMARK    6  A    between atoms: C_19  and  N_20
REMARK                            x       y       z     vdW  Elec       q    Type
REMARK                         _______ _______ _______ _____ _____    ______ ____
ROOT
ATOM      1  C   UNL     1       2.522   6.819  19.442  0.00  0.00    +0.000 A 
ATOM      2  C   UNL     1       3.502   6.459  18.516  0.00  0.00    +0.000 A 
ATOM      3  C   UNL     1       4.077   5.179  18.526  0.00  0.00    +0.000 A 
ATOM      4  C   UNL     1       3.602   4.283  19.508  0.00  0.00    +0.000 A 
ATOM      5  C   UNL     1       2.669   4.728  20.452  0.00  0.00    +0.000 A 
ATOM      6  N   UNL     1       2.132   5.963  20.417  0.00  0.00    +0.000 NA
ENDROOT
BRANCH   1  10
ATOM      7  C   UNL     1       0.512  10.635  19.223  0.00  0.00    +0.000 A 
ATOM      8  C   UNL     1       1.163  10.108  18.111  0.00  0.00    +0.000 A 
ATOM      9  C   UNL     1       1.786   8.856  18.180  0.00  0.00    +0.000 A 
ATOM     10  C   UNL     1       1.807   8.112  19.372  0.00  0.00    +0.000 A 
ATOM     11  C   UNL     1       1.166   8.679  20.489  0.00  0.00    +0.000 A 
ATOM     12  C   UNL     1       0.528   9.925  20.420  0.00  0.00    +0.000 A 
BRANCH   7  14
ATOM     13  C   UNL     1      -1.292  11.831  18.292  0.00  0.00    +0.000 C 
ATOM     14  O   UNL     1      -0.081  11.853  19.043  0.00  0.00    +0.000 OA
ENDBRANCH   7  14
ENDBRANCH   1  10
BRANCH   3  15
ATOM     15  C   UNL     1       5.117   4.843  17.515  0.00  0.00    +0.000 A 
ATOM     16  C   UNL     1       4.813   4.343  16.243  0.00  0.00    +0.000 A 
ATOM     17  C   UNL     1       5.812   4.080  15.306  0.00  0.00    +0.000 A 
ATOM     18  C   UNL     1       7.124   4.276  15.693  0.00  0.00    +0.000 A 
ATOM     19  N   UNL     1       7.487   4.708  16.916  0.00  0.00    +0.000 NA
ATOM     20  C   UNL     1       6.485   4.987  17.782  0.00  0.00    +0.000 A 
ENDBRANCH   3  15
BRANCH   5  21
ATOM     21  N   UNL     1       2.145   3.879  21.426  0.00  0.00    +0.000 N 
ATOM     22  H   UNL     1       1.656   3.063  21.078  0.00  0.00    +0.000 HD
ATOM     23  H   UNL     1       2.874   3.651  22.097  0.00  0.00    +0.000 HD
ENDBRANCH   5  21
BRANCH   4  24
ATOM     24  C   UNL     1       4.035   2.922  19.590  0.00  0.00    +0.000 C 
ATOM     25  N   UNL     1       4.377   1.816  19.721  0.00  0.00    +0.000 NA
ENDBRANCH   4  24
TORSDOF 5
ENDMDL
MODEL 4
REMARK VINA RESULT:      -7.3      0.606      1.028
REMARK  Name = 
REMARK  6 active torsions:
REMARK  status: ('A' for Active; 'I' for Inactive)
REMARK    1  A    between atoms: C_1  and  O_2
REMARK    2  A    between atoms: O_2  and  C_3
REMARK    3  A    between atoms: C_6  and  C_7
REMARK    4  A    between atoms: C_9  and  C_10
REMARK    5  A    between atoms: C_16  and  C_17
REMARK    6  A    between atoms: C_19  and  N_20
REMARK                            x       y       z     vdW  Elec       q    Type
REMARK                         _______ _______ _______ _____ _____    ______ ____
ROOT
ATOM      1  C   UNL     1       2.347   6.430  19.766  0.00  0.00    +0.000 A 
ATOM      2  C   UNL     1       3.413   6.216  18.891  0.00  0.00    +0.000 A 
ATOM      3  C   UNL     1       3.858   4.919  18.589  0.00  0.00    +0.000 A 
ATOM      4  C   UNL     1       3.162   3.856  19.203  0.00  0.00    +0.000 A 
ATOM      5  C   UNL     1       2.147   4.140  20.124  0.00  0.00    +0.000 A 
ATOM      6  N   UNL     1       1.740   5.395  20.395  0.00  0.00    +0.000 NA
ENDROOT
BRANCH   1  10
ATOM      7  C   UNL     1       0.598  10.317  20.457  0.00  0.00    +0.000 A 
ATOM      8  C   UNL     1       0.662   9.373  21.479  0.00  0.00    +0.000 A 
ATOM      9  C   UNL     1       1.258   8.126  21.257  0.00  0.00    +0.000 A 
ATOM     10  C   UNL     1       1.775   7.774  19.999  0.00  0.00    +0.000 A 
ATOM     11  C   UNL     1       1.672   8.735  18.975  0.00  0.00    +0.000 A 
ATOM     12  C   UNL     1       1.090   9.990  19.198  0.00  0.00    +0.000 A 
BRANCH   7  14
ATOM     13  C   UNL     1      -0.551  11.567  22.091  0.00  0.00    +0.000 C 
ATOM     14  O   UNL     1       0.015  11.509  20.785  0.00  0.00    +0.000 OA
ENDBRANCH   7  14
ENDBRANCH   1  10
BRANCH   3  15
ATOM     15  C   UNL     1       4.999   4.744  17.648  0.00  0.00    +0.000 A 
ATOM     16  C   UNL     1       6.338   4.791  18.054  0.00  0.00    +0.000 A 
ATOM     17  C   UNL     1       7.380   4.580  17.152  0.00  0.00    +0.000 A 
ATOM     18  C   UNL     1       7.051   4.376  15.825  0.00  0.00    +0.000 A 
ATOM     19  N   UNL     1       5.786   4.367  15.362  0.00  0.00    +0.000 NA
ATOM     20  C   UNL     1       4.804   4.539  16.276  0.00  0.00    +0.000 A 
ENDBRANCH   3  15
BRANCH   5  21
ATOM     21  N   UNL     1       1.408   3.130  20.740  0.00  0.00    +0.000 N 
ATOM     22  H   UNL     1       1.197   2.327  20.159  0.00  0.00    +0.000 HD
ATOM     23  H   UNL     1       1.853   2.880  21.620  0.00  0.00    +0.000 HD
ENDBRANCH   5  21
BRANCH   4  24
ATOM     24  C   UNL     1       3.448   2.482  18.930  0.00  0.00    +0.000 C 
ATOM     25  N   UNL     1       3.620   1.355  18.689  0.00  0.00    +0.000 NA
ENDBRANCH   4  24
TORSDOF 5
ENDMDL
MODEL 5
REMARK VINA RESULT:      -7.3      1.096      1.747
REMARK  Name = 
REMARK  6 active torsions:
REMARK  status: ('A' for Active; 'I' for Inactive)
REMARK    1  A    between atoms: C_1  and  O_2
REMARK    2  A    between atoms: O_2  and  C_3
REMARK    3  A    between atoms: C_6  and  C_7
REMARK    4  A    between atoms: C_9  and  C_10
REMARK    5  A    between atoms: C_16  and  C_17
REMARK    6  A    between atoms: C_19  and  N_20
REMARK                            x       y       z     vdW  Elec       q    Type
REMARK                         _______ _______ _______ _____ _____    ______ ____
ROOT
ATOM      1  C   UNL     1       2.448   6.769  19.646  0.00  0.00    +0.000 A 
ATOM      2  C   UNL     1       3.449   6.445  18.728  0.00  0.00    +0.000 A 
ATOM      3  C   UNL     1       4.013   5.161  18.689  0.00  0.00    +0.000 A 
ATOM      4  C   UNL     1       3.504   4.221  19.611  0.00  0.00    +0.000 A 
ATOM      5  C   UNL     1       2.550   4.628  20.552  0.00  0.00    +0.000 A 
ATOM      6  N   UNL     1       2.025   5.869  20.566  0.00  0.00    +0.000 NA
ENDROOT
BRANCH   1  10
ATOM      7  C   UNL     1       0.478  10.610  19.562  0.00  0.00    +0.000 A 
ATOM      8  C   UNL     1       1.088  10.098  18.420  0.00  0.00    +0.000 A 
ATOM      9  C   UNL     1       1.697   8.838  18.446  0.00  0.00    +0.000 A 
ATOM     10  C   UNL     1       1.746   8.071  19.622  0.00  0.00    +0.000 A 
ATOM     11  C   UNL     1       1.147   8.624  20.770  0.00  0.00    +0.000 A 
ATOM     12  C   UNL     1       0.523   9.877  20.744  0.00  0.00    +0.000 A 
BRANCH   7  14
ATOM     13  C   UNL     1      -1.050  11.943  18.362  0.00  0.00    +0.000 C 
ATOM     14  O   UNL     1      -0.107  11.839  19.424  0.00  0.00    +0.000 OA
ENDBRANCH   7  14
ENDBRANCH   1  10
BRANCH   3  15
ATOM     15  C   UNL     1       5.076   4.865  17.689  0.00  0.00    +0.000 A 
ATOM     16  C   UNL     1       6.443   4.968  17.975  0.00  0.00    +0.000 A 
ATOM     17  C   UNL     1       7.412   4.642  17.026  0.00  0.00    +0.000 A 
ATOM     18  C   UNL     1       6.979   4.264  15.769  0.00  0.00    +0.000 A 
ATOM     19  N   UNL     1       5.681   4.192  15.416  0.00  0.00    +0.000 NA
ATOM     20  C   UNL     1       4.774   4.480  16.377  0.00  0.00    +0.000 A 
ENDBRANCH   3  15
BRANCH   5  21
ATOM     21  N   UNL     1       1.993   3.737  21.468  0.00  0.00    +0.000 N 
ATOM     22  H   UNL     1       2.627   3.040  21.841  0.00  0.00    +0.000 HD
ATOM     23  H   UNL     1       1.506   4.261  22.191  0.00  0.00    +0.000 HD
ENDBRANCH   5  21
BRANCH   4  24
ATOM     24  C   UNL     1       3.923   2.854  19.636  0.00  0.00    +0.000 C 
ATOM     25  N   UNL     1       4.207   1.725  19.681  0.00  0.00    +0.000 NA
ENDBRANCH   4  24
TORSDOF 5
ENDMDL
MODEL 6
REMARK VINA RESULT:      -6.7      2.500      4.612
REMARK  Name = 
REMARK  6 active torsions:
REMARK  status: ('A' for Active; 'I' for Inactive)
REMARK    1  A    between atoms: C_1  and  O_2
REMARK    2  A    between atoms: O_2  and  C_3
REMARK    3  A    between atoms: C_6  and  C_7
REMARK    4  A    between atoms: C_9  and  C_10
REMARK    5  A    between atoms: C_16  and  C_17
REMARK    6  A    between atoms: C_19  and  N_20
REMARK                            x       y       z     vdW  Elec       q    Type
REMARK                         _______ _______ _______ _____ _____    ______ ____
ROOT
ATOM      1  C   UNL     1       1.020   8.505  20.377  0.00  0.00    +0.000 A 
ATOM      2  C   UNL     1       1.038   7.164  20.768  0.00  0.00    +0.000 A 
ATOM      3  C   UNL     1       1.764   6.205  20.046  0.00  0.00    +0.000 A 
ATOM      4  C   UNL     1       2.479   6.672  18.922  0.00  0.00    +0.000 A 
ATOM      5  C   UNL     1       2.365   8.015  18.543  0.00  0.00    +0.000 A 
ATOM      6  N   UNL     1       1.660   8.914  19.256  0.00  0.00    +0.000 NA
ENDROOT
BRANCH   1  10
ATOM      7  C   UNL     1      -0.789  11.607  22.775  0.00  0.00    +0.000 A 
ATOM      8  C   UNL     1      -0.123  11.918  21.593  0.00  0.00    +0.000 A 
ATOM      9  C   UNL     1       0.434  10.905  20.804  0.00  0.00    +0.000 A 
ATOM     10  C   UNL     1       0.373   9.556  21.193  0.00  0.00    +0.000 A 
ATOM     11  C   UNL     1      -0.280   9.270  22.406  0.00  0.00    +0.000 A 
ATOM     12  C   UNL     1      -0.853  10.280  23.191  0.00  0.00    +0.000 A 
BRANCH   7  14
ATOM     13  C   UNL     1      -2.229  13.471  22.719  0.00  0.00    +0.000 C 
ATOM     14  O   UNL     1      -1.315  12.668  23.459  0.00  0.00    +0.000 OA
ENDBRANCH   7  14
ENDBRANCH   1  10
BRANCH   3  15
ATOM     15  C   UNL     1       1.752   4.789  20.505  0.00  0.00    +0.000 A 
ATOM     16  C   UNL     1       1.014   3.785  19.866  0.00  0.00    +0.000 A 
ATOM     17  C   UNL     1       1.061   2.460  20.299  0.00  0.00    +0.000 A 
ATOM     18  C   UNL     1       1.820   2.175  21.418  0.00  0.00    +0.000 A 
ATOM     19  N   UNL     1       2.514   3.102  22.106  0.00  0.00    +0.000 NA
ATOM     20  C   UNL     1       2.471   4.368  21.631  0.00  0.00    +0.000 A 
ENDBRANCH   3  15
BRANCH   5  21
ATOM     21  N   UNL     1       3.070   8.536  17.459  0.00  0.00    +0.000 N 
ATOM     22  H   UNL     1       3.877   9.102  17.694  0.00  0.00    +0.000 HD
ATOM     23  H   UNL     1       3.285   7.785  16.808  0.00  0.00    +0.000 HD
ENDBRANCH   5  21
BRANCH   4  24
ATOM     24  C   UNL     1       3.327   5.828  18.138  0.00  0.00    +0.000 C 
ATOM     25  N   UNL     1       4.059   5.190  17.495  0.00  0.00    +0.000 NA
ENDBRANCH   4  24
TORSDOF 5
ENDMDL
MODEL 7
REMARK VINA RESULT:      -6.6      2.463      4.490
REMARK  Name = 
REMARK  6 active torsions:
REMARK  status: ('A' for Active; 'I' for Inactive)
REMARK    1  A    between atoms: C_1  and  O_2
REMARK    2  A    between atoms: O_2  and  C_3
REMARK    3  A    between atoms: C_6  and  C_7
REMARK    4  A    between atoms: C_9  and  C_10
REMARK    5  A    between atoms: C_16  and  C_17
REMARK    6  A    between atoms: C_19  and  N_20
REMARK                            x       y       z     vdW  Elec       q    Type
REMARK                         _______ _______ _______ _____ _____    ______ ____
ROOT
ATOM      1  C   UNL     1       1.102   8.500  20.321  0.00  0.00    +0.000 A 
ATOM      2  C   UNL     1       1.095   7.166  20.732  0.00  0.00    +0.000 A 
ATOM      3  C   UNL     1       1.811   6.184  20.028  0.00  0.00    +0.000 A 
ATOM      4  C   UNL     1       2.542   6.623  18.904  0.00  0.00    +0.000 A 
ATOM      5  C   UNL     1       2.452   7.962  18.504  0.00  0.00    +0.000 A 
ATOM      6  N   UNL     1       1.757   8.883  19.199  0.00  0.00    +0.000 NA
ENDROOT
BRANCH   1  10
ATOM      7  C   UNL     1      -0.833  11.592  22.632  0.00  0.00    +0.000 A 
ATOM      8  C   UNL     1      -0.760  10.286  23.110  0.00  0.00    +0.000 A 
ATOM      9  C   UNL     1      -0.104   9.296  22.370  0.00  0.00    +0.000 A 
ATOM     10  C   UNL     1       0.466   9.573  21.116  0.00  0.00    +0.000 A 
ATOM     11  C   UNL     1       0.353  10.894  20.642  0.00  0.00    +0.000 A 
ATOM     12  C   UNL     1      -0.289  11.892  21.387  0.00  0.00    +0.000 A 
BRANCH   7  14
ATOM     13  C   UNL     1      -1.094  13.847  23.265  0.00  0.00    +0.000 C 
ATOM     14  O   UNL     1      -1.477  12.486  23.442  0.00  0.00    +0.000 OA
ENDBRANCH   7  14
ENDBRANCH   1  10
BRANCH   3  15
ATOM     15  C   UNL     1       1.773   4.775  20.508  0.00  0.00    +0.000 A 
ATOM     16  C   UNL     1       0.999   3.781  19.896  0.00  0.00    +0.000 A 
ATOM     17  C   UNL     1       1.021   2.461  20.347  0.00  0.00    +0.000 A 
ATOM     18  C   UNL     1       1.793   2.173  21.457  0.00  0.00    +0.000 A 
ATOM     19  N   UNL     1       2.521   3.093  22.120  0.00  0.00    +0.000 NA
ATOM     20  C   UNL     1       2.501   4.353  21.627  0.00  0.00    +0.000 A 
ENDBRANCH   3  15
BRANCH   5  21
ATOM     21  N   UNL     1       3.174   8.456  17.419  0.00  0.00    +0.000 N 
ATOM     22  H   UNL     1       4.141   8.691  17.607  0.00  0.00    +0.000 HD
ATOM     23  H   UNL     1       3.063   7.825  16.629  0.00  0.00    +0.000 HD
ENDBRANCH   5  21
BRANCH   4  24
ATOM     24  C   UNL     1       3.382   5.755  18.138  0.00  0.00    +0.000 C 
ATOM     25  N   UNL     1       4.051   5.000  17.556  0.00  0.00    +0.000 NA
ENDBRANCH   4  24
TORSDOF 5
ENDMDL
MODEL 8
REMARK VINA RESULT:      -6.6      1.769      2.122
REMARK  Name = 
REMARK  6 active torsions:
REMARK  status: ('A' for Active; 'I' for Inactive)
REMARK    1  A    between atoms: C_1  and  O_2
REMARK    2  A    between atoms: O_2  and  C_3
REMARK    3  A    between atoms: C_6  and  C_7
REMARK    4  A    between atoms: C_9  and  C_10
REMARK    5  A    between atoms: C_16  and  C_17
REMARK    6  A    between atoms: C_19  and  N_20
REMARK                            x       y       z     vdW  Elec       q    Type
REMARK                         _______ _______ _______ _____ _____    ______ ____
ROOT
ATOM      1  C   UNL     1       2.354   7.817  18.720  0.00  0.00    +0.000 A 
ATOM      2  C   UNL     1       3.309   7.422  17.781  0.00  0.00    +0.000 A 
ATOM      3  C   UNL     1       4.026   6.225  17.933  0.00  0.00    +0.000 A 
ATOM      4  C   UNL     1       3.717   5.446  19.068  0.00  0.00    +0.000 A 
ATOM      5  C   UNL     1       2.800   5.932  20.007  0.00  0.00    +0.000 A 
ATOM      6  N   UNL     1       2.126   7.085  19.836  0.00  0.00    +0.000 NA
ENDROOT
BRANCH   1  10
ATOM      7  C   UNL     1      -0.169  11.285  18.217  0.00  0.00    +0.000 A 
ATOM      8  C   UNL     1       1.056  11.385  18.872  0.00  0.00    +0.000 A 
ATOM      9  C   UNL     1       1.883  10.263  19.003  0.00  0.00    +0.000 A 
ATOM     10  C   UNL     1       1.494   9.004  18.517  0.00  0.00    +0.000 A 
ATOM     11  C   UNL     1       0.239   8.924  17.885  0.00  0.00    +0.000 A 
ATOM     12  C   UNL     1      -0.585  10.047  17.738  0.00  0.00    +0.000 A 
BRANCH   7  14
ATOM     13  C   UNL     1      -0.191  13.623  18.511  0.00  0.00    +0.000 C 
ATOM     14  O   UNL     1      -0.889  12.444  18.125  0.00  0.00    +0.000 OA
ENDBRANCH   7  14
ENDBRANCH   1  10
BRANCH   3  15
ATOM     15  C   UNL     1       5.032   5.847  16.903  0.00  0.00    +0.000 A 
ATOM     16  C   UNL     1       4.770   4.926  15.880  0.00  0.00    +0.000 A 
ATOM     17  C   UNL     1       5.724   4.629  14.907  0.00  0.00    +0.000 A 
ATOM     18  C   UNL     1       6.963   5.232  15.015  0.00  0.00    +0.000 A 
ATOM     19  N   UNL     1       7.295   6.087  16.001  0.00  0.00    +0.000 NA
ATOM     20  C   UNL     1       6.329   6.378  16.903  0.00  0.00    +0.000 A 
ENDBRANCH   3  15
BRANCH   5  21
ATOM     21  N   UNL     1       2.437   5.193  21.133  0.00  0.00    +0.000 N 
ATOM     22  H   UNL     1       1.450   5.197  21.359  0.00  0.00    +0.000 HD
ATOM     23  H   UNL     1       2.826   4.256  21.057  0.00  0.00    +0.000 HD
ENDBRANCH   5  21
BRANCH   4  24
ATOM     24  C   UNL     1       4.306   4.166  19.314  0.00  0.00    +0.000 C 
ATOM     25  N   UNL     1       4.749   3.118  19.566  0.00  0.00    +0.000 NA
ENDBRANCH   4  24
TORSDOF 5
ENDMDL
MODEL 9
REMARK VINA RESULT:      -6.6      1.096      1.541
REMARK  Name = 
REMARK  6 active torsions:
REMARK  status: ('A' for Active; 'I' for Inactive)
REMARK    1  A    between atoms: C_1  and  O_2
REMARK    2  A    between atoms: O_2  and  C_3
REMARK    3  A    between atoms: C_6  and  C_7
REMARK    4  A    between atoms: C_9  and  C_10
REMARK    5  A    between atoms: C_16  and  C_17
REMARK    6  A    between atoms: C_19  and  N_20
REMARK                            x       y       z     vdW  Elec       q    Type
REMARK                         _______ _______ _______ _____ _____    ______ ____
ROOT
ATOM      1  C   UNL     1       2.158   6.860  19.869  0.00  0.00    +0.000 A 
ATOM      2  C   UNL     1       2.983   6.695  18.755  0.00  0.00    +0.000 A 
ATOM      3  C   UNL     1       3.452   5.427  18.378  0.00  0.00    +0.000 A 
ATOM      4  C   UNL     1       3.032   4.339  19.173  0.00  0.00    +0.000 A 
ATOM      5  C   UNL     1       2.261   4.579  20.317  0.00  0.00    +0.000 A 
ATOM      6  N   UNL     1       1.825   5.808  20.655  0.00  0.00    +0.000 NA
ENDROOT
BRANCH   1  10
ATOM      7  C   UNL     1       0.447  10.702  20.846  0.00  0.00    +0.000 A 
ATOM      8  C   UNL     1       0.803  10.394  19.536  0.00  0.00    +0.000 A 
ATOM      9  C   UNL     1       1.328   9.135  19.221  0.00  0.00    +0.000 A 
ATOM     10  C   UNL     1       1.546   8.163  20.211  0.00  0.00    +0.000 A 
ATOM     11  C   UNL     1       1.204   8.509  21.532  0.00  0.00    +0.000 A 
ATOM     12  C   UNL     1       0.664   9.762  21.849  0.00  0.00    +0.000 A 
BRANCH   7  14
ATOM     13  C   UNL     1       0.869  13.015  21.005  0.00  0.00    +0.000 C 
ATOM     14  O   UNL     1      -0.077  11.950  21.042  0.00  0.00    +0.000 OA
ENDBRANCH   7  14
ENDBRANCH   1  10
BRANCH   3  15
ATOM     15  C   UNL     1       4.328   5.304  17.181  0.00  0.00    +0.000 A 
ATOM     16  C   UNL     1       4.646   4.074  16.590  0.00  0.00    +0.000 A 
ATOM     17  C   UNL     1       5.436   4.001  15.443  0.00  0.00    +0.000 A 
ATOM     18  C   UNL     1       5.943   5.181  14.934  0.00  0.00    +0.000 A 
ATOM     19  N   UNL     1       5.715   6.391  15.482  0.00  0.00    +0.000 NA
ATOM     20  C   UNL     1       4.913   6.422  16.572  0.00  0.00    +0.000 A 
ENDBRANCH   3  15
BRANCH   5  21
ATOM     21  N   UNL     1       1.796   3.541  21.122  0.00  0.00    +0.000 N 
ATOM     22  H   UNL     1       0.879   3.680  21.529  0.00  0.00    +0.000 HD
ATOM     23  H   UNL     1       1.879   2.662  20.616  0.00  0.00    +0.000 HD
ENDBRANCH   5  21
BRANCH   4  24
ATOM     24  C   UNL     1       3.361   2.982  18.865  0.00  0.00    +0.000 C 
ATOM     25  N   UNL     1       3.584   1.877  18.569  0.00  0.00    +0.000 NA
ENDBRANCH   4  24
TORSDOF 5
ENDMDL
