MODEL 1
REMARK VINA RESULT:      -8.3      0.000      0.000
REMARK  Name = 
REMARK  5 active torsions:
REMARK  status: ('A' for Active; 'I' for Inactive)
REMARK    1  A    between atoms: O_1  and  C_2
REMARK    2  A    between atoms: C_2  and  C_3
REMARK    3  A    between atoms: C_2  and  C_11
REMARK    4  A    between atoms: C_13  and  C_14
REMARK    5  A    between atoms: C_19  and  C_20
REMARK                            x       y       z     vdW  Elec       q    Type
REMARK                         _______ _______ _______ _____ _____    ______ ____
ROOT
ATOM      1  C   UNL     1       1.810   8.954  18.728  0.00  0.00    +0.000 A 
ATOM      2  N   UNL     1       2.391   8.218  17.798  0.00  0.00    +0.000 NA
ATOM      3  C   UNL     1       2.780   7.059  18.419  0.00  0.00    +0.000 A 
ATOM      4  C   UNL     1       2.285   7.023  19.707  0.00  0.00    +0.000 A 
ATOM      5  N   UNL     1       1.659   8.223  19.882  0.00  0.00    +0.000 N 
ATOM      6  H   UNL     1       1.203   8.572  20.717  0.00  0.00    +0.000 HD
ENDROOT
BRANCH   3   7
ATOM      7  C   UNL     1       3.614   6.038  17.808  0.00  0.00    +0.000 A 
ATOM      8  C   UNL     1       4.910   6.409  17.381  0.00  0.00    +0.000 A 
ATOM      9  C   UNL     1       5.756   5.507  16.732  0.00  0.00    +0.000 A 
ATOM     10  C   UNL     1       5.333   4.207  16.512  0.00  0.00    +0.000 A 
ATOM     11  C   UNL     1       4.063   3.818  16.949  0.00  0.00    +0.000 A 
ATOM     12  C   UNL     1       3.180   4.717  17.588  0.00  0.00    +0.000 A 
BRANCH  12  13
ATOM     13  C   UNL     1       1.823   4.139  17.937  0.00  0.00    +0.000 C 
ATOM     14  F   UNL     1       1.382   4.195  19.215  0.00  0.00    +0.000 F 
ATOM     15  F   UNL     1       0.836   4.773  17.222  0.00  0.00    +0.000 F 
ATOM     16  F   UNL     1       1.725   2.827  17.563  0.00  0.00    +0.000 F 
ENDBRANCH  12  13
ENDBRANCH   3   7
BRANCH   1  17
ATOM     17  C   UNL     1       1.352  10.375  18.629  0.00  0.00    +0.000 C 
BRANCH  17  18
ATOM     18  C   UNL     1      -0.144  10.543  18.412  0.00  0.00    +0.000 A 
ATOM     19  C   UNL     1      -0.807   9.760  17.450  0.00  0.00    +0.000 A 
ATOM     20  C   UNL     1      -2.192   9.858  17.282  0.00  0.00    +0.000 A 
ATOM     21  C   UNL     1      -2.941  10.736  18.068  0.00  0.00    +0.000 A 
ATOM     22 CL   UNL     1      -4.650  10.774  17.832  0.00  0.00    +0.000 Cl
ATOM     23  C   UNL     1      -2.294  11.536  19.018  0.00  0.00    +0.000 A 
ATOM     24 CL   UNL     1      -3.149  12.649  20.026  0.00  0.00    +0.000 Cl
ATOM     25  C   UNL     1      -0.904  11.435  19.190  0.00  0.00    +0.000 A 
ENDBRANCH  17  18
BRANCH  17  26
ATOM     26  O   UNL     1       2.043  10.976  17.525  0.00  0.00    +0.000 OA
ATOM     27  H   UNL     1       2.893  10.508  17.450  0.00  0.00    +0.000 HD
ENDBRANCH  17  26
ENDBRANCH   1  17
TORSDOF 5
ENDMDL
MODEL 2
REMARK VINA RESULT:      -8.2      0.658      1.601
REMARK  Name = 
REMARK  5 active torsions:
REMARK  status: ('A' for Active; 'I' for Inactive)
REMARK    1  A    between atoms: O_1  and  C_2
REMARK    2  A    between atoms: C_2  and  C_3
REMARK    3  A    between atoms: C_2  and  C_11
REMARK    4  A    between atoms: C_13  and  C_14
REMARK    5  A    between atoms: C_19  and  C_20
REMARK                            x       y       z     vdW  Elec       q    Type
REMARK                         _______ _______ _______ _____ _____    ______ ____
ROOT
ATOM      1  C   UNL     1       1.979   8.927  18.642  0.00  0.00    +0.000 A 
ATOM      2  N   UNL     1       2.629   8.256  17.709  0.00  0.00    +0.000 NA
ATOM      3  C   UNL     1       2.967   7.053  18.273  0.00  0.00    +0.000 A 
ATOM      4  C   UNL     1       2.374   6.928  19.513  0.00  0.00    +0.000 A 
ATOM      5  N   UNL     1       1.738   8.116  19.725  0.00  0.00    +0.000 N 
ATOM      6  H   UNL     1       1.220   8.407  20.546  0.00  0.00    +0.000 HD
ENDROOT
BRANCH   3   7
ATOM      7  C   UNL     1       3.844   6.073  17.655  0.00  0.00    +0.000 A 
ATOM      8  C   UNL     1       5.131   6.497  17.249  0.00  0.00    +0.000 A 
ATOM      9  C   UNL     1       6.016   5.637  16.597  0.00  0.00    +0.000 A 
ATOM     10  C   UNL     1       5.643   4.327  16.351  0.00  0.00    +0.000 A 
ATOM     11  C   UNL     1       4.383   3.886  16.765  0.00  0.00    +0.000 A 
ATOM     12  C   UNL     1       3.461   4.741  17.409  0.00  0.00    +0.000 A 
BRANCH  12  13
ATOM     13  C   UNL     1       2.122   4.109  17.732  0.00  0.00    +0.000 C 
ATOM     14  F   UNL     1       0.983   4.700  17.301  0.00  0.00    +0.000 F 
ATOM     15  F   UNL     1       2.052   2.843  17.205  0.00  0.00    +0.000 F 
ATOM     16  F   UNL     1       1.964   3.927  19.078  0.00  0.00    +0.000 F 
ENDBRANCH  12  13
ENDBRANCH   3   7
BRANCH   1  17
ATOM     17  C   UNL     1       1.531  10.355  18.612  0.00  0.00    +0.000 C 
BRANCH  17  18
ATOM     18  C   UNL     1       0.025  10.544  18.525  0.00  0.00    +0.000 A 
ATOM     19  C   UNL     1      -0.638  11.344  19.472  0.00  0.00    +0.000 A 
ATOM     20  C   UNL     1      -2.013  11.579  19.370  0.00  0.00    +0.000 A 
ATOM     21  C   UNL     1      -2.751  11.021  18.324  0.00  0.00    +0.000 A 
ATOM     22 CL   UNL     1      -4.436  11.387  18.240  0.00  0.00    +0.000 Cl
ATOM     23  C   UNL     1      -2.110  10.207  17.383  0.00  0.00    +0.000 A 
ATOM     24 CL   UNL     1      -2.953   9.478  16.063  0.00  0.00    +0.000 Cl
ATOM     25  C   UNL     1      -0.728   9.975  17.482  0.00  0.00    +0.000 A 
ENDBRANCH  17  18
BRANCH  17  26
ATOM     26  O   UNL     1       2.135  10.973  17.466  0.00  0.00    +0.000 OA
ATOM     27  H   UNL     1       2.978  10.509  17.321  0.00  0.00    +0.000 HD
ENDBRANCH  17  26
ENDBRANCH   1  17
TORSDOF 5
ENDMDL
MODEL 3
REMARK VINA RESULT:      -8.0      1.965      2.856
REMARK  Name = 
REMARK  5 active torsions:
REMARK  status: ('A' for Active; 'I' for Inactive)
REMARK    1  A    between atoms: O_1  and  C_2
REMARK    2  A    between atoms: C_2  and  C_3
REMARK    3  A    between atoms: C_2  and  C_11
REMARK    4  A    between atoms: C_13  and  C_14
REMARK    5  A    between atoms: C_19  and  C_20
REMARK                            x       y       z     vdW  Elec       q    Type
REMARK                         _______ _______ _______ _____ _____    ______ ____
ROOT
ATOM      1  C   UNL     1       1.871   8.222  18.991  0.00  0.00    +0.000 A 
ATOM      2  N   UNL     1       1.999   7.178  18.192  0.00  0.00    +0.000 NA
ATOM      3  C   UNL     1       2.300   6.114  19.004  0.00  0.00    +0.000 A 
ATOM      4  C   UNL     1       2.194   6.485  20.329  0.00  0.00    +0.000 A 
ATOM      5  N   UNL     1       1.905   7.819  20.304  0.00  0.00    +0.000 N 
ATOM      6  H   UNL     1       1.787   8.445  21.091  0.00  0.00    +0.000 HD
ENDROOT
BRANCH   3   7
ATOM      7  C   UNL     1       2.697   4.801  18.526  0.00  0.00    +0.000 A 
ATOM      8  C   UNL     1       1.696   3.809  18.405  0.00  0.00    +0.000 A 
ATOM      9  C   UNL     1       1.998   2.505  18.008  0.00  0.00    +0.000 A 
ATOM     10  C   UNL     1       3.306   2.166  17.705  0.00  0.00    +0.000 A 
ATOM     11  C   UNL     1       4.303   3.141  17.797  0.00  0.00    +0.000 A 
ATOM     12  C   UNL     1       4.027   4.462  18.217  0.00  0.00    +0.000 A 
BRANCH  12  13
ATOM     13  C   UNL     1       5.239   5.366  18.317  0.00  0.00    +0.000 C 
ATOM     14  F   UNL     1       5.202   6.598  17.759  0.00  0.00    +0.000 F 
ATOM     15  F   UNL     1       5.544   5.612  19.634  0.00  0.00    +0.000 F 
ATOM     16  F   UNL     1       6.360   4.761  17.816  0.00  0.00    +0.000 F 
ENDBRANCH  12  13
ENDBRANCH   3   7
BRANCH   1  17
ATOM     17  C   UNL     1       1.707   9.660  18.612  0.00  0.00    +0.000 C 
BRANCH  17  18
ATOM     18  C   UNL     1       0.279  10.176  18.689  0.00  0.00    +0.000 A 
ATOM     19  C   UNL     1      -0.087  11.082  19.701  0.00  0.00    +0.000 A 
ATOM     20  C   UNL     1      -1.379  11.614  19.748  0.00  0.00    +0.000 A 
ATOM     21  C   UNL     1      -2.330  11.254  18.791  0.00  0.00    +0.000 A 
ATOM     22 CL   UNL     1      -3.892  11.981  18.890  0.00  0.00    +0.000 Cl
ATOM     23  C   UNL     1      -1.987  10.338  17.788  0.00  0.00    +0.000 A 
ATOM     24 CL   UNL     1      -3.107   9.840  16.570  0.00  0.00    +0.000 Cl
ATOM     25  C   UNL     1      -0.688   9.808  17.736  0.00  0.00    +0.000 A 
ENDBRANCH  17  18
BRANCH  17  26
ATOM     26  O   UNL     1       2.173   9.807  17.263  0.00  0.00    +0.000 OA
ATOM     27  H   UNL     1       1.705  10.578  16.897  0.00  0.00    +0.000 HD
ENDBRANCH  17  26
ENDBRANCH   1  17
TORSDOF 5
ENDMDL
MODEL 4
REMARK VINA RESULT:      -7.9      0.915      1.197
REMARK  Name = 
REMARK  5 active torsions:
REMARK  status: ('A' for Active; 'I' for Inactive)
REMARK    1  A    between atoms: O_1  and  C_2
REMARK    2  A    between atoms: C_2  and  C_3
REMARK    3  A    between atoms: C_2  and  C_11
REMARK    4  A    between atoms: C_13  and  C_14
REMARK    5  A    between atoms: C_19  and  C_20
REMARK                            x       y       z     vdW  Elec       q    Type
REMARK                         _______ _______ _______ _____ _____    ______ ____
ROOT
ATOM      1  C   UNL     1       1.678   8.808  19.041  0.00  0.00    +0.000 A 
ATOM      2  N   UNL     1       2.371   7.896  18.384  0.00  0.00    +0.000 NA
ATOM      3  C   UNL     1       2.572   6.865  19.266  0.00  0.00    +0.000 A 
ATOM      4  C   UNL     1       1.854   7.085  20.423  0.00  0.00    +0.000 A 
ATOM      5  N   UNL     1       1.279   8.312  20.259  0.00  0.00    +0.000 N 
ATOM      6  H   UNL     1       0.703   8.823  20.917  0.00  0.00    +0.000 HD
ENDROOT
BRANCH   3   7
ATOM      7  C   UNL     1       3.439   5.727  19.015  0.00  0.00    +0.000 A 
ATOM      8  C   UNL     1       4.830   5.897  19.210  0.00  0.00    +0.000 A 
ATOM      9  C   UNL     1       5.740   4.874  18.938  0.00  0.00    +0.000 A 
ATOM     10  C   UNL     1       5.280   3.650  18.483  0.00  0.00    +0.000 A 
ATOM     11  C   UNL     1       3.907   3.458  18.307  0.00  0.00    +0.000 A 
ATOM     12  C   UNL     1       2.967   4.484  18.555  0.00  0.00    +0.000 A 
BRANCH  12  13
ATOM     13  C   UNL     1       1.528   4.117  18.251  0.00  0.00    +0.000 C 
ATOM     14  F   UNL     1       0.857   4.788  17.287  0.00  0.00    +0.000 F 
ATOM     15  F   UNL     1       1.443   2.804  17.856  0.00  0.00    +0.000 F 
ATOM     16  F   UNL     1       0.745   4.186  19.371  0.00  0.00    +0.000 F 
ENDBRANCH  12  13
ENDBRANCH   3   7
BRANCH   1  17
ATOM     17  C   UNL     1       1.330  10.197  18.604  0.00  0.00    +0.000 C 
BRANCH  17  18
ATOM     18  C   UNL     1      -0.158  10.448  18.421  0.00  0.00    +0.000 A 
ATOM     19  C   UNL     1      -0.884   9.706  17.471  0.00  0.00    +0.000 A 
ATOM     20  C   UNL     1      -2.264   9.881  17.333  0.00  0.00    +0.000 A 
ATOM     21  C   UNL     1      -2.947  10.795  18.138  0.00  0.00    +0.000 A 
ATOM     22 CL   UNL     1      -4.656  10.928  17.939  0.00  0.00    +0.000 Cl
ATOM     23  C   UNL     1      -2.237  11.556  19.075  0.00  0.00    +0.000 A 
ATOM     24 CL   UNL     1      -3.007  12.710  20.104  0.00  0.00    +0.000 Cl
ATOM     25  C   UNL     1      -0.851  11.377  19.217  0.00  0.00    +0.000 A 
ENDBRANCH  17  18
BRANCH  17  26
ATOM     26  O   UNL     1       1.991  10.434  17.353  0.00  0.00    +0.000 OA
ATOM     27  H   UNL     1       2.684   9.755  17.279  0.00  0.00    +0.000 HD
ENDBRANCH  17  26
ENDBRANCH   1  17
TORSDOF 5
ENDMDL
MODEL 5
REMARK VINA RESULT:      -7.8      1.354      2.180
REMARK  Name = 
REMARK  5 active torsions:
REMARK  status: ('A' for Active; 'I' for Inactive)
REMARK    1  A    between atoms: O_1  and  C_2
REMARK    2  A    between atoms: C_2  and  C_3
REMARK    3  A    between atoms: C_2  and  C_11
REMARK    4  A    between atoms: C_13  and  C_14
REMARK    5  A    between atoms: C_19  and  C_20
REMARK                            x       y       z     vdW  Elec       q    Type
REMARK                         _______ _______ _______ _____ _____    ______ ____
ROOT
ATOM      1  C   UNL     1       1.762   8.556  19.067  0.00  0.00    +0.000 A 
ATOM      2  N   UNL     1       1.966   7.514  18.280  0.00  0.00    +0.000 NA
ATOM      3  C   UNL     1       2.335   6.483  19.106  0.00  0.00    +0.000 A 
ATOM      4  C   UNL     1       2.197   6.860  20.426  0.00  0.00    +0.000 A 
ATOM      5  N   UNL     1       1.816   8.170  20.385  0.00  0.00    +0.000 N 
ATOM      6  H   UNL     1       1.651   8.795  21.164  0.00  0.00    +0.000 HD
ENDROOT
BRANCH   3   7
ATOM      7  C   UNL     1       2.824   5.195  18.644  0.00  0.00    +0.000 A 
ATOM      8  C   UNL     1       3.725   5.180  17.553  0.00  0.00    +0.000 A 
ATOM      9  C   UNL     1       4.199   3.985  17.009  0.00  0.00    +0.000 A 
ATOM     10  C   UNL     1       3.800   2.777  17.554  0.00  0.00    +0.000 A 
ATOM     11  C   UNL     1       2.928   2.775  18.646  0.00  0.00    +0.000 A 
ATOM     12  C   UNL     1       2.417   3.970  19.203  0.00  0.00    +0.000 A 
BRANCH  12  13
ATOM     13  C   UNL     1       1.438   3.774  20.343  0.00  0.00    +0.000 C 
ATOM     14  F   UNL     1       0.268   4.455  20.342  0.00  0.00    +0.000 F 
ATOM     15  F   UNL     1       1.050   2.459  20.419  0.00  0.00    +0.000 F 
ATOM     16  F   UNL     1       2.020   4.029  21.554  0.00  0.00    +0.000 F 
ENDBRANCH  12  13
ENDBRANCH   3   7
BRANCH   1  17
ATOM     17  C   UNL     1       1.501   9.975  18.671  0.00  0.00    +0.000 C 
BRANCH  17  18
ATOM     18  C   UNL     1       0.030  10.359  18.626  0.00  0.00    +0.000 A 
ATOM     19  C   UNL     1      -0.496  11.237  19.591  0.00  0.00    +0.000 A 
ATOM     20  C   UNL     1      -1.831  11.649  19.527  0.00  0.00    +0.000 A 
ATOM     21  C   UNL     1      -2.664  11.196  18.503  0.00  0.00    +0.000 A 
ATOM     22 CL   UNL     1      -4.289  11.778  18.465  0.00  0.00    +0.000 Cl
ATOM     23  C   UNL     1      -2.161  10.307  17.545  0.00  0.00    +0.000 A 
ATOM     24 CL   UNL     1      -3.129   9.698  16.250  0.00  0.00    +0.000 Cl
ATOM     25  C   UNL     1      -0.820   9.897  17.605  0.00  0.00    +0.000 A 
ENDBRANCH  17  18
BRANCH  17  26
ATOM     26  O   UNL     1       2.063  10.170  17.365  0.00  0.00    +0.000 OA
ATOM     27  H   UNL     1       1.408  10.683  16.862  0.00  0.00    +0.000 HD
ENDBRANCH  17  26
ENDBRANCH   1  17
TORSDOF 5
ENDMDL
MODEL 6
REMARK VINA RESULT:      -7.7      2.076      2.861
REMARK  Name = 
REMARK  5 active torsions:
REMARK  status: ('A' for Active; 'I' for Inactive)
REMARK    1  A    between atoms: O_1  and  C_2
REMARK    2  A    between atoms: C_2  and  C_3
REMARK    3  A    between atoms: C_2  and  C_11
REMARK    4  A    between atoms: C_13  and  C_14
REMARK    5  A    between atoms: C_19  and  C_20
REMARK                            x       y       z     vdW  Elec       q    Type
REMARK                         _______ _______ _______ _____ _____    ______ ____
ROOT
ATOM      1  C   UNL     1       2.004   8.188  19.025  0.00  0.00    +0.000 A 
ATOM      2  N   UNL     1       2.096   7.127  18.244  0.00  0.00    +0.000 NA
ATOM      3  C   UNL     1       2.237   6.051  19.083  0.00  0.00    +0.000 A 
ATOM      4  C   UNL     1       2.068   6.446  20.394  0.00  0.00    +0.000 A 
ATOM      5  N   UNL     1       1.904   7.800  20.340  0.00  0.00    +0.000 N 
ATOM      6  H   UNL     1       1.785   8.445  21.112  0.00  0.00    +0.000 HD
ENDROOT
BRANCH   3   7
ATOM      7  C   UNL     1       2.547   4.701  18.643  0.00  0.00    +0.000 A 
ATOM      8  C   UNL     1       1.489   3.765  18.577  0.00  0.00    +0.000 A 
ATOM      9  C   UNL     1       1.707   2.433  18.221  0.00  0.00    +0.000 A 
ATOM     10  C   UNL     1       2.986   2.009  17.902  0.00  0.00    +0.000 A 
ATOM     11  C   UNL     1       4.039   2.927  17.940  0.00  0.00    +0.000 A 
ATOM     12  C   UNL     1       3.849   4.276  18.318  0.00  0.00    +0.000 A 
BRANCH  12  13
ATOM     13  C   UNL     1       5.113   5.111  18.361  0.00  0.00    +0.000 C 
ATOM     14  F   UNL     1       5.178   6.261  17.651  0.00  0.00    +0.000 F 
ATOM     15  F   UNL     1       5.380   5.506  19.649  0.00  0.00    +0.000 F 
ATOM     16  F   UNL     1       6.210   4.381  17.994  0.00  0.00    +0.000 F 
ENDBRANCH  12  13
ENDBRANCH   3   7
BRANCH   1  17
ATOM     17  C   UNL     1       2.000   9.631  18.627  0.00  0.00    +0.000 C 
BRANCH  17  18
ATOM     18  C   UNL     1       0.765  10.403  19.060  0.00  0.00    +0.000 A 
ATOM     19  C   UNL     1      -0.444  10.247  18.357  0.00  0.00    +0.000 A 
ATOM     20  C   UNL     1      -1.605  10.901  18.780  0.00  0.00    +0.000 A 
ATOM     21  C   UNL     1      -1.584  11.723  19.909  0.00  0.00    +0.000 A 
ATOM     22 CL   UNL     1      -3.064  12.467  20.395  0.00  0.00    +0.000 Cl
ATOM     23  C   UNL     1      -0.384  11.904  20.610  0.00  0.00    +0.000 A 
ATOM     24 CL   UNL     1      -0.275  12.907  22.012  0.00  0.00    +0.000 Cl
ATOM     25  C   UNL     1       0.780  11.243  20.188  0.00  0.00    +0.000 A 
ENDBRANCH  17  18
BRANCH  17  26
ATOM     26  O   UNL     1       2.094   9.684  17.196  0.00  0.00    +0.000 OA
ATOM     27  H   UNL     1       2.885  10.214  16.996  0.00  0.00    +0.000 HD
ENDBRANCH  17  26
ENDBRANCH   1  17
TORSDOF 5
ENDMDL
MODEL 7
REMARK VINA RESULT:      -7.6      1.895      2.515
REMARK  Name = 
REMARK  5 active torsions:
REMARK  status: ('A' for Active; 'I' for Inactive)
REMARK    1  A    between atoms: O_1  and  C_2
REMARK    2  A    between atoms: C_2  and  C_3
REMARK    3  A    between atoms: C_2  and  C_11
REMARK    4  A    between atoms: C_13  and  C_14
REMARK    5  A    between atoms: C_19  and  C_20
REMARK                            x       y       z     vdW  Elec       q    Type
REMARK                         _______ _______ _______ _____ _____    ______ ____
ROOT
ATOM      1  C   UNL     1       1.831   8.342  18.988  0.00  0.00    +0.000 A 
ATOM      2  N   UNL     1       1.920   7.286  18.199  0.00  0.00    +0.000 NA
ATOM      3  C   UNL     1       2.203   6.224  19.019  0.00  0.00    +0.000 A 
ATOM      4  C   UNL     1       2.126   6.612  20.341  0.00  0.00    +0.000 A 
ATOM      5  N   UNL     1       1.872   7.952  20.305  0.00  0.00    +0.000 N 
ATOM      6  H   UNL     1       1.782   8.590  21.087  0.00  0.00    +0.000 HD
ENDROOT
BRANCH   3   7
ATOM      7  C   UNL     1       2.557   4.896  18.549  0.00  0.00    +0.000 A 
ATOM      8  C   UNL     1       1.521   3.943  18.409  0.00  0.00    +0.000 A 
ATOM      9  C   UNL     1       1.780   2.628  18.019  0.00  0.00    +0.000 A 
ATOM     10  C   UNL     1       3.079   2.238  17.742  0.00  0.00    +0.000 A 
ATOM     11  C   UNL     1       4.112   3.173  17.854  0.00  0.00    +0.000 A 
ATOM     12  C   UNL     1       3.879   4.504  18.267  0.00  0.00    +0.000 A 
BRANCH  12  13
ATOM     13  C   UNL     1       5.124   5.360  18.391  0.00  0.00    +0.000 C 
ATOM     14  F   UNL     1       6.300   4.904  17.901  0.00  0.00    +0.000 F 
ATOM     15  F   UNL     1       4.945   6.560  17.746  0.00  0.00    +0.000 F 
ATOM     16  F   UNL     1       5.368   5.706  19.691  0.00  0.00    +0.000 F 
ENDBRANCH  12  13
ENDBRANCH   3   7
BRANCH   1  17
ATOM     17  C   UNL     1       1.700   9.780  18.595  0.00  0.00    +0.000 C 
BRANCH  17  18
ATOM     18  C   UNL     1       0.275  10.309  18.595  0.00  0.00    +0.000 A 
ATOM     19  C   UNL     1      -0.656   9.819  17.661  0.00  0.00    +0.000 A 
ATOM     20  C   UNL     1      -1.986  10.249  17.687  0.00  0.00    +0.000 A 
ATOM     21  C   UNL     1      -2.414  11.173  18.643  0.00  0.00    +0.000 A 
ATOM     22 CL   UNL     1      -4.079  11.626  18.639  0.00  0.00    +0.000 Cl
ATOM     23  C   UNL     1      -1.496  11.685  19.568  0.00  0.00    +0.000 A 
ATOM     24 CL   UNL     1      -1.945  12.833  20.778  0.00  0.00    +0.000 Cl
ATOM     25  C   UNL     1      -0.161  11.250  19.545  0.00  0.00    +0.000 A 
ENDBRANCH  17  18
BRANCH  17  26
ATOM     26  O   UNL     1       2.238   9.918  17.273  0.00  0.00    +0.000 OA
ATOM     27  H   UNL     1       1.543   9.613  16.664  0.00  0.00    +0.000 HD
ENDBRANCH  17  26
ENDBRANCH   1  17
TORSDOF 5
ENDMDL
MODEL 8
REMARK VINA RESULT:      -7.6      3.605      4.749
REMARK  Name = 
REMARK  5 active torsions:
REMARK  status: ('A' for Active; 'I' for Inactive)
REMARK    1  A    between atoms: O_1  and  C_2
REMARK    2  A    between atoms: C_2  and  C_3
REMARK    3  A    between atoms: C_2  and  C_11
REMARK    4  A    between atoms: C_13  and  C_14
REMARK    5  A    between atoms: C_19  and  C_20
REMARK                            x       y       z     vdW  Elec       q    Type
REMARK                         _______ _______ _______ _____ _____    ______ ____
ROOT
ATOM      1  C   UNL     1       3.293   5.016  19.079  0.00  0.00    +0.000 A 
ATOM      2  N   UNL     1       3.591   5.212  17.807  0.00  0.00    +0.000 NA
ATOM      3  C   UNL     1       4.796   4.590  17.601  0.00  0.00    +0.000 A 
ATOM      4  C   UNL     1       5.156   3.871  18.722  0.00  0.00    +0.000 A 
ATOM      5  N   UNL     1       4.185   4.137  19.644  0.00  0.00    +0.000 N 
ATOM      6  H   UNL     1       4.129   3.811  20.601  0.00  0.00    +0.000 HD
ENDROOT
BRANCH   3   7
ATOM      7  C   UNL     1       5.582   4.703  16.384  0.00  0.00    +0.000 A 
ATOM      8  C   UNL     1       5.268   3.839  15.309  0.00  0.00    +0.000 A 
ATOM      9  C   UNL     1       6.008   3.840  14.125  0.00  0.00    +0.000 A 
ATOM     10  C   UNL     1       7.068   4.719  13.980  0.00  0.00    +0.000 A 
ATOM     11  C   UNL     1       7.377   5.595  15.024  0.00  0.00    +0.000 A 
ATOM     12  C   UNL     1       6.657   5.599  16.240  0.00  0.00    +0.000 A 
BRANCH  12  13
ATOM     13  C   UNL     1       7.171   6.573  17.282  0.00  0.00    +0.000 C 
ATOM     14  F   UNL     1       8.028   7.554  16.914  0.00  0.00    +0.000 F 
ATOM     15  F   UNL     1       6.125   7.253  17.857  0.00  0.00    +0.000 F 
ATOM     16  F   UNL     1       7.769   5.923  18.325  0.00  0.00    +0.000 F 
ENDBRANCH  12  13
ENDBRANCH   3   7
BRANCH   1  17
ATOM     17  C   UNL     1       2.172   5.617  19.867  0.00  0.00    +0.000 C 
BRANCH  17  18
ATOM     18  C   UNL     1       1.945   7.100  19.617  0.00  0.00    +0.000 A 
ATOM     19  C   UNL     1       2.250   7.654  18.361  0.00  0.00    +0.000 A 
ATOM     20  C   UNL     1       1.989   9.002  18.094  0.00  0.00    +0.000 A 
ATOM     21  C   UNL     1       1.421   9.821  19.072  0.00  0.00    +0.000 A 
ATOM     22 CL   UNL     1       1.091  11.464  18.658  0.00  0.00    +0.000 Cl
ATOM     23  C   UNL     1       1.129   9.289  20.334  0.00  0.00    +0.000 A 
ATOM     24 CL   UNL     1       0.430  10.237  21.598  0.00  0.00    +0.000 Cl
ATOM     25  C   UNL     1       1.386   7.935  20.601  0.00  0.00    +0.000 A 
ENDBRANCH  17  18
BRANCH  17  26
ATOM     26  O   UNL     1       2.473   5.430  21.257  0.00  0.00    +0.000 OA
ATOM     27  H   UNL     1       1.934   6.080  21.741  0.00  0.00    +0.000 HD
ENDBRANCH  17  26
ENDBRANCH   1  17
TORSDOF 5
ENDMDL
MODEL 9
REMARK VINA RESULT:      -7.6      1.697      2.434
REMARK  Name = 
REMARK  5 active torsions:
REMARK  status: ('A' for Active; 'I' for Inactive)
REMARK    1  A    between atoms: O_1  and  C_2
REMARK    2  A    between atoms: C_2  and  C_3
REMARK    3  A    between atoms: C_2  and  C_11
REMARK    4  A    between atoms: C_13  and  C_14
REMARK    5  A    between atoms: C_19  and  C_20
REMARK                            x       y       z     vdW  Elec       q    Type
REMARK                         _______ _______ _______ _____ _____    ______ ____
ROOT
ATOM      1  C   UNL     1       1.808   8.109  19.641  0.00  0.00    +0.000 A 
ATOM      2  N   UNL     1       2.627   7.078  19.547  0.00  0.00    +0.000 NA
ATOM      3  C   UNL     1       3.048   7.046  18.243  0.00  0.00    +0.000 A 
ATOM      4  C   UNL     1       2.605   8.168  17.574  0.00  0.00    +0.000 A 
ATOM      5  N   UNL     1       1.835   8.841  18.478  0.00  0.00    +0.000 N 
ATOM      6  H   UNL     1       1.313   9.698  18.336  0.00  0.00    +0.000 HD
ENDROOT
BRANCH   3   7
ATOM      7  C   UNL     1       3.825   5.967  17.656  0.00  0.00    +0.000 A 
ATOM      8  C   UNL     1       5.117   6.270  17.166  0.00  0.00    +0.000 A 
ATOM      9  C   UNL     1       5.908   5.308  16.536  0.00  0.00    +0.000 A 
ATOM     10  C   UNL     1       5.435   4.015  16.397  0.00  0.00    +0.000 A 
ATOM     11  C   UNL     1       4.170   3.693  16.895  0.00  0.00    +0.000 A 
ATOM     12  C   UNL     1       3.340   4.653  17.518  0.00  0.00    +0.000 A 
BRANCH  12  13
ATOM     13  C   UNL     1       1.978   4.141  17.942  0.00  0.00    +0.000 C 
ATOM     14  F   UNL     1       1.596   4.249  19.236  0.00  0.00    +0.000 F 
ATOM     15  F   UNL     1       0.986   4.795  17.252  0.00  0.00    +0.000 F 
ATOM     16  F   UNL     1       1.812   2.824  17.610  0.00  0.00    +0.000 F 
ENDBRANCH  12  13
ENDBRANCH   3   7
BRANCH   1  17
ATOM     17  C   UNL     1       0.944   8.501  20.799  0.00  0.00    +0.000 C 
BRANCH  17  18
ATOM     18  C   UNL     1       0.283   9.863  20.662  0.00  0.00    +0.000 A 
ATOM     19  C   UNL     1       0.751  10.951  21.421  0.00  0.00    +0.000 A 
ATOM     20  C   UNL     1       0.195  12.224  21.261  0.00  0.00    +0.000 A 
ATOM     21  C   UNL     1      -0.836  12.437  20.343  0.00  0.00    +0.000 A 
ATOM     22 CL   UNL     1      -1.446  14.042  20.172  0.00  0.00    +0.000 Cl
ATOM     23  C   UNL     1      -1.327  11.361  19.593  0.00  0.00    +0.000 A 
ATOM     24 CL   UNL     1      -2.602  11.542  18.442  0.00  0.00    +0.000 Cl
ATOM     25  C   UNL     1      -0.765  10.083  19.750  0.00  0.00    +0.000 A 
ENDBRANCH  17  18
BRANCH  17  26
ATOM     26  O   UNL     1       1.771   8.511  21.971  0.00  0.00    +0.000 OA
ATOM     27  H   UNL     1       1.432   9.227  22.535  0.00  0.00    +0.000 HD
ENDBRANCH  17  26
ENDBRANCH   1  17
TORSDOF 5
ENDMDL
