MODEL 1
REMARK VINA RESULT:      -7.7      0.000      0.000
REMARK  Name = 
REMARK  4 active torsions:
REMARK  status: ('A' for Active; 'I' for Inactive)
REMARK    1  A    between atoms: C_1  and  C_2
REMARK    2  A    between atoms: C_2  and  C_3
REMARK    3  A    between atoms: C_8  and  N_9
REMARK    4  A    between atoms: C_10  and  C_12
REMARK                            x       y       z     vdW  Elec       q    Type
REMARK                         _______ _______ _______ _____ _____    ______ ____
ROOT
ATOM      1  C   UNL     1      -1.595  11.519  19.472  0.00  0.00    +0.000 C 
ATOM      2  C   UNL     1      -0.125  11.799  19.817  0.00  0.00    +0.000 C 
ATOM      3  C   UNL     1       0.125  13.311  19.756  0.00  0.00    +0.000 C 
ATOM      4  O   UNL     1       0.674  11.221  18.782  0.00  0.00    +0.000 OA
ATOM      5  C   UNL     1       1.126   9.954  19.022  0.00  0.00    +0.000 A 
ATOM      6  C   UNL     1       1.641   9.268  17.929  0.00  0.00    +0.000 A 
ATOM      7  C   UNL     1       2.170   7.985  18.095  0.00  0.00    +0.000 A 
ATOM      8  C   UNL     1       2.207   7.378  19.353  0.00  0.00    +0.000 A 
ATOM      9  C   UNL     1       1.671   8.069  20.451  0.00  0.00    +0.000 A 
ATOM     10  C   UNL     1       1.139   9.356  20.281  0.00  0.00    +0.000 A 
ATOM     11  N   UNL     1       0.661  10.060  21.386  0.00  0.00    +0.000 N 
ATOM     12  C   UNL     1       0.130  11.319  21.265  0.00  0.00    +0.000 C 
ATOM     13  O   UNL     1      -0.192  11.953  22.267  0.00  0.00    +0.000 OA
ATOM     14  H   UNL     1       0.766   9.703  22.323  0.00  0.00    +0.000 HD
ENDROOT
BRANCH   8  15
ATOM     15  N   UNL     1       2.751   6.089  19.570  0.00  0.00    +0.000 N 
ATOM     16  C   UNL     1       2.091   5.014  20.153  0.00  0.00    +0.000 C 
ATOM     17  O   UNL     1       0.904   5.004  20.467  0.00  0.00    +0.000 OA
ATOM     18  H   UNL     1       3.661   5.905  19.168  0.00  0.00    +0.000 HD
BRANCH  16  19
ATOM     19  C   UNL     1       2.976   3.772  20.334  0.00  0.00    +0.000 C 
ATOM     20  C   UNL     1       2.158   2.472  20.325  0.00  0.00    +0.000 C 
ATOM     21  C   UNL     1       1.696   2.071  18.924  0.00  0.00    +0.000 C 
ATOM     22  C   UNL     1       2.868   1.976  17.954  0.00  0.00    +0.000 C 
ATOM     23  C   UNL     1       3.649   3.282  17.902  0.00  0.00    +0.000 C 
ATOM     24  C   UNL     1       4.110   3.724  19.292  0.00  0.00    +0.000 C 
ENDBRANCH  16  19
ENDBRANCH   8  15
TORSDOF 2
ENDMDL
MODEL 2
REMARK VINA RESULT:      -7.6      1.360      2.050
REMARK  Name = 
REMARK  4 active torsions:
REMARK  status: ('A' for Active; 'I' for Inactive)
REMARK    1  A    between atoms: C_1  and  C_2
REMARK    2  A    between atoms: C_2  and  C_3
REMARK    3  A    between atoms: C_8  and  N_9
REMARK    4  A    between atoms: C_10  and  C_12
REMARK                            x       y       z     vdW  Elec       q    Type
REMARK                         _______ _______ _______ _____ _____    ______ ____
ROOT
ATOM      1  C   UNL     1      -1.087  10.816  20.318  0.00  0.00    +0.000 C 
ATOM      2  C   UNL     1       0.404  10.903  20.675  0.00  0.00    +0.000 C 
ATOM      3  C   UNL     1       0.711  12.310  21.203  0.00  0.00    +0.000 C 
ATOM      4  O   UNL     1       1.144  10.765  19.459  0.00  0.00    +0.000 OA
ATOM      5  C   UNL     1       1.554   9.497  19.158  0.00  0.00    +0.000 A 
ATOM      6  C   UNL     1       2.003   9.288  17.860  0.00  0.00    +0.000 A 
ATOM      7  C   UNL     1       2.487   8.033  17.480  0.00  0.00    +0.000 A 
ATOM      8  C   UNL     1       2.544   6.977  18.394  0.00  0.00    +0.000 A 
ATOM      9  C   UNL     1       2.075   7.189  19.699  0.00  0.00    +0.000 A 
ATOM     10  C   UNL     1       1.588   8.449  20.076  0.00  0.00    +0.000 A 
ATOM     11  N   UNL     1       1.176   8.669  21.391  0.00  0.00    +0.000 N 
ATOM     12  C   UNL     1       0.691   9.884  21.802  0.00  0.00    +0.000 C 
ATOM     13  O   UNL     1       0.430  10.076  22.987  0.00  0.00    +0.000 OA
ATOM     14  H   UNL     1       1.300   7.967  22.105  0.00  0.00    +0.000 HD
ENDROOT
BRANCH   8  15
ATOM     15  N   UNL     1       3.045   5.696  18.059  0.00  0.00    +0.000 N 
ATOM     16  C   UNL     1       2.286   4.609  17.644  0.00  0.00    +0.000 C 
ATOM     17  O   UNL     1       1.082   4.639  17.409  0.00  0.00    +0.000 OA
ATOM     18  H   UNL     1       4.051   5.598  18.014  0.00  0.00    +0.000 HD
BRANCH  16  19
ATOM     19  C   UNL     1       3.107   3.327  17.440  0.00  0.00    +0.000 C 
ATOM     20  C   UNL     1       4.590   3.526  17.786  0.00  0.00    +0.000 C 
ATOM     21  C   UNL     1       4.846   3.580  19.291  0.00  0.00    +0.000 C 
ATOM     22  C   UNL     1       4.292   2.348  19.998  0.00  0.00    +0.000 C 
ATOM     23  C   UNL     1       2.804   2.175  19.718  0.00  0.00    +0.000 C 
ATOM     24  C   UNL     1       2.510   2.138  18.218  0.00  0.00    +0.000 C 
ENDBRANCH  16  19
ENDBRANCH   8  15
TORSDOF 2
ENDMDL
MODEL 3
REMARK VINA RESULT:      -7.5      1.348      1.656
REMARK  Name = 
REMARK  4 active torsions:
REMARK  status: ('A' for Active; 'I' for Inactive)
REMARK    1  A    between atoms: C_1  and  C_2
REMARK    2  A    between atoms: C_2  and  C_3
REMARK    3  A    between atoms: C_8  and  N_9
REMARK    4  A    between atoms: C_10  and  C_12
REMARK                            x       y       z     vdW  Elec       q    Type
REMARK                         _______ _______ _______ _____ _____    ______ ____
ROOT
ATOM      1  C   UNL     1      -1.084  11.319  20.002  0.00  0.00    +0.000 C 
ATOM      2  C   UNL     1       0.374  11.312  20.486  0.00  0.00    +0.000 C 
ATOM      3  C   UNL     1       0.758  12.727  20.938  0.00  0.00    +0.000 C 
ATOM      4  O   UNL     1       1.198  11.018  19.356  0.00  0.00    +0.000 OA
ATOM      5  C   UNL     1       1.519   9.701  19.185  0.00  0.00    +0.000 A 
ATOM      6  C   UNL     1       2.056   9.354  17.951  0.00  0.00    +0.000 A 
ATOM      7  C   UNL     1       2.457   8.037  17.708  0.00  0.00    +0.000 A 
ATOM      8  C   UNL     1       2.343   7.056  18.697  0.00  0.00    +0.000 A 
ATOM      9  C   UNL     1       1.785   7.408  19.935  0.00  0.00    +0.000 A 
ATOM     10  C   UNL     1       1.382   8.730  20.175  0.00  0.00    +0.000 A 
ATOM     11  N   UNL     1       0.881   9.085  21.428  0.00  0.00    +0.000 N 
ATOM     12  C   UNL     1       0.473  10.365  21.705  0.00  0.00    +0.000 C 
ATOM     13  O   UNL     1       0.130  10.672  22.844  0.00  0.00    +0.000 OA
ATOM     14  H   UNL     1       0.882   8.435  22.199  0.00  0.00    +0.000 HD
ENDROOT
BRANCH   8  15
ATOM     15  N   UNL     1       2.755   5.716  18.501  0.00  0.00    +0.000 N 
ATOM     16  C   UNL     1       3.995   5.187  18.839  0.00  0.00    +0.000 C 
ATOM     17  O   UNL     1       4.873   5.788  19.452  0.00  0.00    +0.000 OA
ATOM     18  H   UNL     1       2.048   5.063  18.189  0.00  0.00    +0.000 HD
BRANCH  16  19
ATOM     19  C   UNL     1       4.175   3.721  18.420  0.00  0.00    +0.000 C 
ATOM     20  C   UNL     1       4.286   2.782  19.630  0.00  0.00    +0.000 C 
ATOM     21  C   UNL     1       2.943   2.534  20.314  0.00  0.00    +0.000 C 
ATOM     22  C   UNL     1       1.899   2.019  19.330  0.00  0.00    +0.000 C 
ATOM     23  C   UNL     1       1.729   2.975  18.156  0.00  0.00    +0.000 C 
ATOM     24  C   UNL     1       3.060   3.262  17.460  0.00  0.00    +0.000 C 
ENDBRANCH  16  19
ENDBRANCH   8  15
TORSDOF 2
ENDMDL
MODEL 4
REMARK VINA RESULT:      -7.5      1.060      1.172
REMARK  Name = 
REMARK  4 active torsions:
REMARK  status: ('A' for Active; 'I' for Inactive)
REMARK    1  A    between atoms: C_1  and  C_2
REMARK    2  A    between atoms: C_2  and  C_3
REMARK    3  A    between atoms: C_8  and  N_9
REMARK    4  A    between atoms: C_10  and  C_12
REMARK                            x       y       z     vdW  Elec       q    Type
REMARK                         _______ _______ _______ _____ _____    ______ ____
ROOT
ATOM      1  C   UNL     1      -1.305  12.048  19.279  0.00  0.00    +0.000 C 
ATOM      2  C   UNL     1       0.156  12.178  19.732  0.00  0.00    +0.000 C 
ATOM      3  C   UNL     1       0.590  13.644  19.611  0.00  0.00    +0.000 C 
ATOM      4  O   UNL     1       0.959  11.448  18.801  0.00  0.00    +0.000 OA
ATOM      5  C   UNL     1       1.237  10.156  19.145  0.00  0.00    +0.000 A 
ATOM      6  C   UNL     1       1.749   9.347  18.138  0.00  0.00    +0.000 A 
ATOM      7  C   UNL     1       2.107   8.025  18.416  0.00  0.00    +0.000 A 
ATOM      8  C   UNL     1       1.973   7.499  19.704  0.00  0.00    +0.000 A 
ATOM      9  C   UNL     1       1.440   8.315  20.714  0.00  0.00    +0.000 A 
ATOM     10  C   UNL     1       1.080   9.640  20.430  0.00  0.00    +0.000 A 
ATOM     11  N   UNL     1       0.605  10.463  21.452  0.00  0.00    +0.000 N 
ATOM     12  C   UNL     1       0.240  11.764  21.219  0.00  0.00    +0.000 C 
ATOM     13  O   UNL     1      -0.081  12.493  22.156  0.00  0.00    +0.000 OA
ATOM     14  H   UNL     1       0.593  10.156  22.413  0.00  0.00    +0.000 HD
ENDROOT
BRANCH   8  15
ATOM     15  N   UNL     1       2.341   6.172  20.035  0.00  0.00    +0.000 N 
ATOM     16  C   UNL     1       3.302   5.408  19.386  0.00  0.00    +0.000 C 
ATOM     17  O   UNL     1       4.043   5.816  18.496  0.00  0.00    +0.000 OA
ATOM     18  H   UNL     1       1.946   5.789  20.884  0.00  0.00    +0.000 HD
BRANCH  16  19
ATOM     19  C   UNL     1       3.412   3.972  19.920  0.00  0.00    +0.000 C 
ATOM     20  C   UNL     1       2.176   3.560  20.734  0.00  0.00    +0.000 C 
ATOM     21  C   UNL     1       0.962   3.256  19.857  0.00  0.00    +0.000 C 
ATOM     22  C   UNL     1       1.284   2.205  18.801  0.00  0.00    +0.000 C 
ATOM     23  C   UNL     1       2.467   2.631  17.941  0.00  0.00    +0.000 C 
ATOM     24  C   UNL     1       3.695   2.964  18.790  0.00  0.00    +0.000 C 
ENDBRANCH  16  19
ENDBRANCH   8  15
TORSDOF 2
ENDMDL
MODEL 5
REMARK VINA RESULT:      -7.4      0.936      1.621
REMARK  Name = 
REMARK  4 active torsions:
REMARK  status: ('A' for Active; 'I' for Inactive)
REMARK    1  A    between atoms: C_1  and  C_2
REMARK    2  A    between atoms: C_2  and  C_3
REMARK    3  A    between atoms: C_8  and  N_9
REMARK    4  A    between atoms: C_10  and  C_12
REMARK                            x       y       z     vdW  Elec       q    Type
REMARK                         _______ _______ _______ _____ _____    ______ ____
ROOT
ATOM      1  C   UNL     1      -1.469  11.797  19.405  0.00  0.00    +0.000 C 
ATOM      2  C   UNL     1      -0.010  11.995  19.843  0.00  0.00    +0.000 C 
ATOM      3  C   UNL     1       0.293  13.497  19.913  0.00  0.00    +0.000 C 
ATOM      4  O   UNL     1       0.822  11.470  18.806  0.00  0.00    +0.000 OA
ATOM      5  C   UNL     1       1.220  10.173  18.966  0.00  0.00    +0.000 A 
ATOM      6  C   UNL     1       1.767   9.554  17.849  0.00  0.00    +0.000 A 
ATOM      7  C   UNL     1       2.245   8.244  17.939  0.00  0.00    +0.000 A 
ATOM      8  C   UNL     1       2.197   7.541  19.145  0.00  0.00    +0.000 A 
ATOM      9  C   UNL     1       1.628   8.164  20.267  0.00  0.00    +0.000 A 
ATOM     10  C   UNL     1       1.148   9.479  20.173  0.00  0.00    +0.000 A 
ATOM     11  N   UNL     1       0.637  10.112  21.306  0.00  0.00    +0.000 N 
ATOM     12  C   UNL     1       0.155  11.395  21.259  0.00  0.00    +0.000 C 
ATOM     13  O   UNL     1      -0.197  11.962  22.291  0.00  0.00    +0.000 OA
ATOM     14  H   UNL     1       0.682   9.680  22.216  0.00  0.00    +0.000 HD
ENDROOT
BRANCH   8  15
ATOM     15  N   UNL     1       2.687   6.220  19.286  0.00  0.00    +0.000 N 
ATOM     16  C   UNL     1       2.276   5.116  18.549  0.00  0.00    +0.000 C 
ATOM     17  O   UNL     1       1.503   5.155  17.596  0.00  0.00    +0.000 OA
ATOM     18  H   UNL     1       3.480   6.091  19.902  0.00  0.00    +0.000 HD
BRANCH  16  19
ATOM     19  C   UNL     1       2.928   3.799  18.995  0.00  0.00    +0.000 C 
ATOM     20  C   UNL     1       3.401   3.852  20.455  0.00  0.00    +0.000 C 
ATOM     21  C   UNL     1       2.250   3.747  21.456  0.00  0.00    +0.000 C 
ATOM     22  C   UNL     1       1.407   2.502  21.209  0.00  0.00    +0.000 C 
ATOM     23  C   UNL     1       0.874   2.469  19.782  0.00  0.00    +0.000 C 
ATOM     24  C   UNL     1       2.000   2.594  18.754  0.00  0.00    +0.000 C 
ENDBRANCH  16  19
ENDBRANCH   8  15
TORSDOF 2
ENDMDL
MODEL 6
REMARK VINA RESULT:      -7.3      1.413      1.627
REMARK  Name = 
REMARK  4 active torsions:
REMARK  status: ('A' for Active; 'I' for Inactive)
REMARK    1  A    between atoms: C_1  and  C_2
REMARK    2  A    between atoms: C_2  and  C_3
REMARK    3  A    between atoms: C_8  and  N_9
REMARK    4  A    between atoms: C_10  and  C_12
REMARK                            x       y       z     vdW  Elec       q    Type
REMARK                         _______ _______ _______ _____ _____    ______ ____
ROOT
ATOM      1  C   UNL     1      -2.254  12.303  20.305  0.00  0.00    +0.000 C 
ATOM      2  C   UNL     1      -0.819  12.561  20.786  0.00  0.00    +0.000 C 
ATOM      3  C   UNL     1      -0.575  14.074  20.845  0.00  0.00    +0.000 C 
ATOM      4  O   UNL     1       0.066  12.055  19.785  0.00  0.00    +0.000 OA
ATOM      5  C   UNL     1       0.506  10.775  19.976  0.00  0.00    +0.000 A 
ATOM      6  C   UNL     1       1.113  10.164  18.886  0.00  0.00    +0.000 A 
ATOM      7  C   UNL     1       1.636   8.873  19.010  0.00  0.00    +0.000 A 
ATOM      8  C   UNL     1       1.574   8.185  20.224  0.00  0.00    +0.000 A 
ATOM      9  C   UNL     1       0.946   8.801  21.318  0.00  0.00    +0.000 A 
ATOM     10  C   UNL     1       0.421  10.095  21.190  0.00  0.00    +0.000 A 
ATOM     11  N   UNL     1      -0.151  10.723  22.296  0.00  0.00    +0.000 N 
ATOM     12  C   UNL     1      -0.679  11.987  22.215  0.00  0.00    +0.000 C 
ATOM     13  O   UNL     1      -1.086  12.553  23.228  0.00  0.00    +0.000 OA
ATOM     14  H   UNL     1      -0.120  10.305  23.213  0.00  0.00    +0.000 HD
ENDROOT
BRANCH   8  15
ATOM     15  N   UNL     1       2.108   6.885  20.400  0.00  0.00    +0.000 N 
ATOM     16  C   UNL     1       2.670   6.095  19.405  0.00  0.00    +0.000 C 
ATOM     17  O   UNL     1       2.877   6.458  18.251  0.00  0.00    +0.000 OA
ATOM     18  H   UNL     1       2.184   6.549  21.351  0.00  0.00    +0.000 HD
BRANCH  16  19
ATOM     19  C   UNL     1       3.079   4.695  19.887  0.00  0.00    +0.000 C 
ATOM     20  C   UNL     1       2.084   4.119  20.905  0.00  0.00    +0.000 C 
ATOM     21  C   UNL     1       0.787   3.634  20.258  0.00  0.00    +0.000 C 
ATOM     22  C   UNL     1       1.059   2.629  19.144  0.00  0.00    +0.000 C 
ATOM     23  C   UNL     1       1.993   3.212  18.091  0.00  0.00    +0.000 C 
ATOM     24  C   UNL     1       3.294   3.727  18.709  0.00  0.00    +0.000 C 
ENDBRANCH  16  19
ENDBRANCH   8  15
TORSDOF 2
ENDMDL
MODEL 7
REMARK VINA RESULT:      -7.3      1.471      2.417
REMARK  Name = 
REMARK  4 active torsions:
REMARK  status: ('A' for Active; 'I' for Inactive)
REMARK    1  A    between atoms: C_1  and  C_2
REMARK    2  A    between atoms: C_2  and  C_3
REMARK    3  A    between atoms: C_8  and  N_9
REMARK    4  A    between atoms: C_10  and  C_12
REMARK                            x       y       z     vdW  Elec       q    Type
REMARK                         _______ _______ _______ _____ _____    ______ ____
ROOT
ATOM      1  C   UNL     1      -0.228  13.326  20.204  0.00  0.00    +0.000 C 
ATOM      2  C   UNL     1      -1.175  12.145  19.949  0.00  0.00    +0.000 C 
ATOM      3  C   UNL     1      -2.625  12.623  20.099  0.00  0.00    +0.000 C 
ATOM      4  O   UNL     1      -0.961  11.192  20.993  0.00  0.00    +0.000 OA
ATOM      5  C   UNL     1      -0.064  10.200  20.714  0.00  0.00    +0.000 A 
ATOM      6  C   UNL     1       0.381   9.450  21.795  0.00  0.00    +0.000 A 
ATOM      7  C   UNL     1       1.262   8.384  21.592  0.00  0.00    +0.000 A 
ATOM      8  C   UNL     1       1.696   8.043  20.309  0.00  0.00    +0.000 A 
ATOM      9  C   UNL     1       1.256   8.814  19.221  0.00  0.00    +0.000 A 
ATOM     10  C   UNL     1       0.374   9.884  19.429  0.00  0.00    +0.000 A 
ATOM     11  N   UNL     1      -0.104  10.609  18.337  0.00  0.00    +0.000 N 
ATOM     12  C   UNL     1      -0.967  11.664  18.494  0.00  0.00    +0.000 C 
ATOM     13  O   UNL     1      -1.448  12.221  17.510  0.00  0.00    +0.000 OA
ATOM     14  H   UNL     1       0.099  10.331  17.390  0.00  0.00    +0.000 HD
ENDROOT
BRANCH   8  15
ATOM     15  N   UNL     1       2.572   6.960  20.055  0.00  0.00    +0.000 N 
ATOM     16  C   UNL     1       2.267   5.613  20.208  0.00  0.00    +0.000 C 
ATOM     17  O   UNL     1       1.156   5.170  20.486  0.00  0.00    +0.000 OA
ATOM     18  H   UNL     1       3.459   7.184  19.622  0.00  0.00    +0.000 HD
BRANCH  16  19
ATOM     19  C   UNL     1       3.455   4.678  19.941  0.00  0.00    +0.000 C 
ATOM     20  C   UNL     1       3.013   3.337  19.337  0.00  0.00    +0.000 C 
ATOM     21  C   UNL     1       2.629   3.447  17.862  0.00  0.00    +0.000 C 
ATOM     22  C   UNL     1       3.753   4.063  17.036  0.00  0.00    +0.000 C 
ATOM     23  C   UNL     1       4.157   5.426  17.583  0.00  0.00    +0.000 C 
ATOM     24  C   UNL     1       4.527   5.355  19.065  0.00  0.00    +0.000 C 
ENDBRANCH  16  19
ENDBRANCH   8  15
TORSDOF 2
ENDMDL
MODEL 8
REMARK VINA RESULT:      -7.3      1.445      2.395
REMARK  Name = 
REMARK  4 active torsions:
REMARK  status: ('A' for Active; 'I' for Inactive)
REMARK    1  A    between atoms: C_1  and  C_2
REMARK    2  A    between atoms: C_2  and  C_3
REMARK    3  A    between atoms: C_8  and  N_9
REMARK    4  A    between atoms: C_10  and  C_12
REMARK                            x       y       z     vdW  Elec       q    Type
REMARK                         _______ _______ _______ _____ _____    ______ ____
ROOT
ATOM      1  C   UNL     1       0.106  12.935  20.450  0.00  0.00    +0.000 C 
ATOM      2  C   UNL     1      -0.852  11.797  20.069  0.00  0.00    +0.000 C 
ATOM      3  C   UNL     1      -2.281  12.193  20.464  0.00  0.00    +0.000 C 
ATOM      4  O   UNL     1      -0.516  10.666  20.876  0.00  0.00    +0.000 OA
ATOM      5  C   UNL     1       0.354   9.776  20.312  0.00  0.00    +0.000 A 
ATOM      6  C   UNL     1       0.923   8.844  21.171  0.00  0.00    +0.000 A 
ATOM      7  C   UNL     1       1.786   7.865  20.670  0.00  0.00    +0.000 A 
ATOM      8  C   UNL     1       2.079   7.795  19.305  0.00  0.00    +0.000 A 
ATOM      9  C   UNL     1       1.514   8.748  18.444  0.00  0.00    +0.000 A 
ATOM     10  C   UNL     1       0.650   9.730  18.951  0.00  0.00    +0.000 A 
ATOM     11  N   UNL     1       0.048  10.639  18.081  0.00  0.00    +0.000 N 
ATOM     12  C   UNL     1      -0.801  11.616  18.534  0.00  0.00    +0.000 C 
ATOM     13  O   UNL     1      -1.394  12.339  17.736  0.00  0.00    +0.000 OA
ATOM     14  H   UNL     1       0.149  10.557  17.081  0.00  0.00    +0.000 HD
ENDROOT
BRANCH   8  15
ATOM     15  N   UNL     1       2.931   6.809  18.751  0.00  0.00    +0.000 N 
ATOM     16  C   UNL     1       2.665   5.447  18.685  0.00  0.00    +0.000 C 
ATOM     17  O   UNL     1       1.604   4.920  19.006  0.00  0.00    +0.000 OA
ATOM     18  H   UNL     1       3.754   7.140  18.265  0.00  0.00    +0.000 HD
BRANCH  16  19
ATOM     19  C   UNL     1       3.824   4.620  18.108  0.00  0.00    +0.000 C 
ATOM     20  C   UNL     1       4.624   3.900  19.204  0.00  0.00    +0.000 C 
ATOM     21  C   UNL     1       3.894   2.682  19.768  0.00  0.00    +0.000 C 
ATOM     22  C   UNL     1       3.496   1.708  18.666  0.00  0.00    +0.000 C 
ATOM     23  C   UNL     1       2.644   2.392  17.605  0.00  0.00    +0.000 C 
ATOM     24  C   UNL     1       3.337   3.630  17.033  0.00  0.00    +0.000 C 
ENDBRANCH  16  19
ENDBRANCH   8  15
TORSDOF 2
ENDMDL
MODEL 9
REMARK VINA RESULT:      -7.3      2.298      3.416
REMARK  Name = 
REMARK  4 active torsions:
REMARK  status: ('A' for Active; 'I' for Inactive)
REMARK    1  A    between atoms: C_1  and  C_2
REMARK    2  A    between atoms: C_2  and  C_3
REMARK    3  A    between atoms: C_8  and  N_9
REMARK    4  A    between atoms: C_10  and  C_12
REMARK                            x       y       z     vdW  Elec       q    Type
REMARK                         _______ _______ _______ _____ _____    ______ ____
ROOT
ATOM      1  C   UNL     1       0.478  12.816  21.041  0.00  0.00    +0.000 C 
ATOM      2  C   UNL     1      -0.511  11.878  20.333  0.00  0.00    +0.000 C 
ATOM      3  C   UNL     1      -1.942  12.285  20.708  0.00  0.00    +0.000 C 
ATOM      4  O   UNL     1      -0.317  10.568  20.869  0.00  0.00    +0.000 OA
ATOM      5  C   UNL     1       0.543   9.766  20.173  0.00  0.00    +0.000 A 
ATOM      6  C   UNL     1       0.975   8.617  20.824  0.00  0.00    +0.000 A 
ATOM      7  C   UNL     1       1.818   7.716  20.167  0.00  0.00    +0.000 A 
ATOM      8  C   UNL     1       2.225   7.941  18.849  0.00  0.00    +0.000 A 
ATOM      9  C   UNL     1       1.798   9.111  18.202  0.00  0.00    +0.000 A 
ATOM     10  C   UNL     1       0.955  10.014  18.865  0.00  0.00    +0.000 A 
ATOM     11  N   UNL     1       0.488  11.146  18.196  0.00  0.00    +0.000 N 
ATOM     12  C   UNL     1      -0.336  12.056  18.807  0.00  0.00    +0.000 C 
ATOM     13  O   UNL     1      -0.810  12.989  18.163  0.00  0.00    +0.000 OA
ATOM     14  H   UNL     1       0.671  11.290  17.215  0.00  0.00    +0.000 HD
ENDROOT
BRANCH   8  15
ATOM     15  N   UNL     1       3.061   7.046  18.139  0.00  0.00    +0.000 N 
ATOM     16  C   UNL     1       3.733   5.956  18.679  0.00  0.00    +0.000 C 
ATOM     17  O   UNL     1       3.610   5.556  19.833  0.00  0.00    +0.000 OA
ATOM     18  H   UNL     1       3.083   7.145  17.132  0.00  0.00    +0.000 HD
BRANCH  16  19
ATOM     19  C   UNL     1       4.635   5.227  17.673  0.00  0.00    +0.000 C 
ATOM     20  C   UNL     1       5.174   6.171  16.588  0.00  0.00    +0.000 C 
ATOM     21  C   UNL     1       6.292   7.082  17.094  0.00  0.00    +0.000 C 
ATOM     22  C   UNL     1       7.427   6.279  17.719  0.00  0.00    +0.000 C 
ATOM     23  C   UNL     1       6.918   5.387  18.844  0.00  0.00    +0.000 C 
ATOM     24  C   UNL     1       5.782   4.476  18.376  0.00  0.00    +0.000 C 
ENDBRANCH  16  19
ENDBRANCH   8  15
TORSDOF 2
ENDMDL
