MODEL 1
REMARK VINA RESULT:      -7.3      0.000      0.000
REMARK  Name = 
REMARK  15 active torsions:
REMARK  status: ('A' for Active; 'I' for Inactive)
REMARK    1  A    between atoms: C_1  and  C_2
REMARK    2  A    between atoms: C_2  and  C_3
REMARK    3  A    between atoms: C_3  and  N_4
REMARK    4  A    between atoms: C_5  and  N_6
REMARK    5  A    between atoms: C_7  and  N_8
REMARK    6  A    between atoms: N_8  and  C_9
REMARK    7  A    between atoms: C_9  and  C_10
REMARK    8  A    between atoms: C_10  and  O_11
REMARK    9  A    between atoms: O_11  and  C_12
REMARK   10  A    between atoms: C_13  and  C_15
REMARK   11  A    between atoms: C_15  and  S_16
REMARK   12  A    between atoms: S_16  and  C_17
REMARK   13  A    between atoms: C_17  and  C_18
REMARK   14  A    between atoms: N_20  and  C_21
REMARK   15  A    between atoms: C_24  and  C_25
REMARK                            x       y       z     vdW  Elec       q    Type
REMARK                         _______ _______ _______ _____ _____    ______ ____
ROOT
ATOM      1  N   UNL     1       4.005   6.516  17.763  0.00  0.00    +0.000 N 
ATOM      2  C   UNL     1       3.073   7.356  18.417  0.00  0.00    +0.000 C 
ATOM      3  O   UNL     1       2.474   7.001  19.439  0.00  0.00    +0.000 OA
ENDROOT
BRANCH   1   6
ATOM      4  N   UNL     1       3.423   3.057  18.966  0.00  0.00    +0.000 N 
ATOM      5  C   UNL     1       3.241   4.248  18.252  0.00  0.00    +0.000 A 
ATOM      6  C   UNL     1       4.189   5.221  18.286  0.00  0.00    +0.000 A 
ATOM      7  C   UNL     1       5.457   4.941  19.037  0.00  0.00    +0.000 A 
ATOM      8  O   UNL     1       6.468   5.630  18.899  0.00  0.00    +0.000 OA
ATOM      9  N   UNL     1       5.474   3.813  19.800  0.00  0.00    +0.000 N 
ATOM     10  C   UNL     1       4.555   2.808  19.743  0.00  0.00    +0.000 A 
ATOM     11  O   UNL     1       4.753   1.761  20.359  0.00  0.00    +0.000 OA
ATOM     12  H   UNL     1       6.325   3.611  20.303  0.00  0.00    +0.000 HD
BRANCH   5  13
ATOM     13  N   UNL     1       2.072   4.458  17.528  0.00  0.00    +0.000 N 
ATOM     14  H   UNL     1       1.932   3.676  16.886  0.00  0.00    +0.000 HD
ATOM     15  H   UNL     1       1.287   4.432  18.174  0.00  0.00    +0.000 HD
ENDBRANCH   5  13
BRANCH   4  16
ATOM     16  C   UNL     1       2.361   2.040  19.039  0.00  0.00    +0.000 C 
BRANCH  16  18
ATOM     17  C   UNL     1       1.455   2.799  21.269  0.00  0.00    +0.000 C 
ATOM     18  C   UNL     1       1.127   2.517  19.809  0.00  0.00    +0.000 C 
ENDBRANCH  16  18
ENDBRANCH   4  16
ENDBRANCH   1   6
BRANCH   1  19
ATOM     19  C   UNL     1       4.638   6.973  16.525  0.00  0.00    +0.000 C 
BRANCH  19  20
ATOM     20  C   UNL     1       5.146   6.006  15.458  0.00  0.00    +0.000 C 
BRANCH  20  21
ATOM     21  O   UNL     1       6.562   5.780  15.591  0.00  0.00    +0.000 OA
ATOM     22  C   UNL     1       7.108   4.951  14.566  0.00  0.00    +0.000 C 
ENDBRANCH  20  21
ENDBRANCH  19  20
ENDBRANCH   1  19
BRANCH   2  23
ATOM     23  C   UNL     1       2.736   8.725  17.772  0.00  0.00    +0.000 C 
BRANCH  23  24
ATOM     24  S   UNL     1       0.951   9.125  18.064  0.00  0.00    +0.000 S 
BRANCH  24  25
ATOM     25  C   UNL     1       1.051  10.828  18.725  0.00  0.00    +0.000 C 
BRANCH  25  26
ATOM     26  C   UNL     1      -0.272  11.564  18.606  0.00  0.00    +0.000 C 
ATOM     27  O   UNL     1      -0.274  12.793  18.599  0.00  0.00    +0.000 OA
ATOM     28  N   UNL     1      -1.398  10.751  18.509  0.00  0.00    +0.000 N 
ATOM     29  H   UNL     1      -1.284   9.763  18.701  0.00  0.00    +0.000 HD
BRANCH  28  30
ATOM     30  C   UNL     1      -2.718  11.198  18.246  0.00  0.00    +0.000 A 
ATOM     31  C   UNL     1      -3.499  11.848  19.205  0.00  0.00    +0.000 A 
ATOM     32  C   UNL     1      -4.787  12.294  18.910  0.00  0.00    +0.000 A 
ATOM     33  C   UNL     1      -5.332  12.108  17.639  0.00  0.00    +0.000 A 
ATOM     34  C   UNL     1      -6.720  12.589  17.336  0.00  0.00    +0.000 C 
ATOM     35  C   UNL     1      -4.555  11.464  16.667  0.00  0.00    +0.000 A 
ATOM     36  C   UNL     1      -3.256  11.022  16.964  0.00  0.00    +0.000 A 
ENDBRANCH  28  30
ENDBRANCH  25  26
ENDBRANCH  24  25
ENDBRANCH  23  24
ENDBRANCH   2  23
TORSDOF 12
ENDMDL
MODEL 2
REMARK VINA RESULT:      -7.2      2.078      2.574
REMARK  Name = 
REMARK  15 active torsions:
REMARK  status: ('A' for Active; 'I' for Inactive)
REMARK    1  A    between atoms: C_1  and  C_2
REMARK    2  A    between atoms: C_2  and  C_3
REMARK    3  A    between atoms: C_3  and  N_4
REMARK    4  A    between atoms: C_5  and  N_6
REMARK    5  A    between atoms: C_7  and  N_8
REMARK    6  A    between atoms: N_8  and  C_9
REMARK    7  A    between atoms: C_9  and  C_10
REMARK    8  A    between atoms: C_10  and  O_11
REMARK    9  A    between atoms: O_11  and  C_12
REMARK   10  A    between atoms: C_13  and  C_15
REMARK   11  A    between atoms: C_15  and  S_16
REMARK   12  A    between atoms: S_16  and  C_17
REMARK   13  A    between atoms: C_17  and  C_18
REMARK   14  A    between atoms: N_20  and  C_21
REMARK   15  A    between atoms: C_24  and  C_25
REMARK                            x       y       z     vdW  Elec       q    Type
REMARK                         _______ _______ _______ _____ _____    ______ ____
ROOT
ATOM      1  N   UNL     1       4.139   6.344  17.464  0.00  0.00    +0.000 N 
ATOM      2  C   UNL     1       3.346   7.308  18.130  0.00  0.00    +0.000 C 
ATOM      3  O   UNL     1       2.811   7.078  19.220  0.00  0.00    +0.000 OA
ENDROOT
BRANCH   1   6
ATOM      4  N   UNL     1       3.365   3.051  18.986  0.00  0.00    +0.000 N 
ATOM      5  C   UNL     1       3.220   4.205  18.205  0.00  0.00    +0.000 A 
ATOM      6  C   UNL     1       4.256   5.074  18.063  0.00  0.00    +0.000 A 
ATOM      7  C   UNL     1       5.567   4.714  18.697  0.00  0.00    +0.000 A 
ATOM      8  O   UNL     1       6.617   5.282  18.400  0.00  0.00    +0.000 OA
ATOM      9  N   UNL     1       5.560   3.643  19.538  0.00  0.00    +0.000 N 
ATOM     10  C   UNL     1       4.548   2.738  19.656  0.00  0.00    +0.000 A 
ATOM     11  O   UNL     1       4.712   1.719  20.328  0.00  0.00    +0.000 OA
ATOM     12  H   UNL     1       6.439   3.387  19.963  0.00  0.00    +0.000 HD
BRANCH   5  13
ATOM     13  N   UNL     1       2.003   4.488  17.594  0.00  0.00    +0.000 N 
ATOM     14  H   UNL     1       2.107   5.322  17.013  0.00  0.00    +0.000 HD
ATOM     15  H   UNL     1       1.783   3.728  16.954  0.00  0.00    +0.000 HD
ENDBRANCH   5  13
BRANCH   4  16
ATOM     16  C   UNL     1       2.225   2.158  19.249  0.00  0.00    +0.000 C 
BRANCH  16  18
ATOM     17  C   UNL     1       1.454   2.545  21.621  0.00  0.00    +0.000 C 
ATOM     18  C   UNL     1       1.161   2.794  20.147  0.00  0.00    +0.000 C 
ENDBRANCH  16  18
ENDBRANCH   4  16
ENDBRANCH   1   6
BRANCH   1  19
ATOM     19  C   UNL     1       4.698   6.657  16.148  0.00  0.00    +0.000 C 
BRANCH  19  20
ATOM     20  C   UNL     1       5.309   5.591  15.241  0.00  0.00    +0.000 C 
BRANCH  20  21
ATOM     21  O   UNL     1       6.737   5.747  15.143  0.00  0.00    +0.000 OA
ATOM     22  C   UNL     1       7.344   4.871  14.195  0.00  0.00    +0.000 C 
ENDBRANCH  20  21
ENDBRANCH  19  20
ENDBRANCH   1  19
BRANCH   2  23
ATOM     23  C   UNL     1       3.074   8.657  17.416  0.00  0.00    +0.000 C 
BRANCH  23  24
ATOM     24  S   UNL     1       1.482   9.374  18.032  0.00  0.00    +0.000 S 
BRANCH  24  25
ATOM     25  C   UNL     1       1.937  11.126  18.300  0.00  0.00    +0.000 C 
BRANCH  25  26
ATOM     26  C   UNL     1       1.131  11.759  19.421  0.00  0.00    +0.000 C 
ATOM     27  O   UNL     1       1.304  12.948  19.683  0.00  0.00    +0.000 OA
ATOM     28  N   UNL     1       0.240  10.907  20.066  0.00  0.00    +0.000 N 
ATOM     29  H   UNL     1       0.315   9.915  19.878  0.00  0.00    +0.000 HD
BRANCH  28  30
ATOM     30  C   UNL     1      -0.717  11.297  21.038  0.00  0.00    +0.000 A 
ATOM     31  C   UNL     1      -0.648  10.887  22.372  0.00  0.00    +0.000 A 
ATOM     32  C   UNL     1      -1.592  11.304  23.310  0.00  0.00    +0.000 A 
ATOM     33  C   UNL     1      -2.637  12.152  22.939  0.00  0.00    +0.000 A 
ATOM     34  C   UNL     1      -3.649  12.591  23.956  0.00  0.00    +0.000 C 
ATOM     35  C   UNL     1      -2.713  12.575  21.606  0.00  0.00    +0.000 A 
ATOM     36  C   UNL     1      -1.756  12.160  20.666  0.00  0.00    +0.000 A 
ENDBRANCH  28  30
ENDBRANCH  25  26
ENDBRANCH  24  25
ENDBRANCH  23  24
ENDBRANCH   2  23
TORSDOF 12
ENDMDL
MODEL 3
REMARK VINA RESULT:      -7.1      1.825      2.492
REMARK  Name = 
REMARK  15 active torsions:
REMARK  status: ('A' for Active; 'I' for Inactive)
REMARK    1  A    between atoms: C_1  and  C_2
REMARK    2  A    between atoms: C_2  and  C_3
REMARK    3  A    between atoms: C_3  and  N_4
REMARK    4  A    between atoms: C_5  and  N_6
REMARK    5  A    between atoms: C_7  and  N_8
REMARK    6  A    between atoms: N_8  and  C_9
REMARK    7  A    between atoms: C_9  and  C_10
REMARK    8  A    between atoms: C_10  and  O_11
REMARK    9  A    between atoms: O_11  and  C_12
REMARK   10  A    between atoms: C_13  and  C_15
REMARK   11  A    between atoms: C_15  and  S_16
REMARK   12  A    between atoms: S_16  and  C_17
REMARK   13  A    between atoms: C_17  and  C_18
REMARK   14  A    between atoms: N_20  and  C_21
REMARK   15  A    between atoms: C_24  and  C_25
REMARK                            x       y       z     vdW  Elec       q    Type
REMARK                         _______ _______ _______ _____ _____    ______ ____
ROOT
ATOM      1  N   UNL     1       3.878   6.498  17.827  0.00  0.00    +0.000 N 
ATOM      2  C   UNL     1       2.890   7.277  18.475  0.00  0.00    +0.000 C 
ATOM      3  O   UNL     1       2.281   6.867  19.470  0.00  0.00    +0.000 OA
ENDROOT
BRANCH   1   6
ATOM      4  N   UNL     1       3.425   2.990  18.941  0.00  0.00    +0.000 N 
ATOM      5  C   UNL     1       3.204   4.189  18.252  0.00  0.00    +0.000 A 
ATOM      6  C   UNL     1       4.110   5.200  18.323  0.00  0.00    +0.000 A 
ATOM      7  C   UNL     1       5.377   4.956  19.088  0.00  0.00    +0.000 A 
ATOM      8  O   UNL     1       6.359   5.689  18.982  0.00  0.00    +0.000 OA
ATOM      9  N   UNL     1       5.429   3.811  19.824  0.00  0.00    +0.000 N 
ATOM     10  C   UNL     1       4.555   2.770  19.729  0.00  0.00    +0.000 A 
ATOM     11  O   UNL     1       4.787   1.718  20.325  0.00  0.00    +0.000 OA
ATOM     12  H   UNL     1       6.280   3.633  20.336  0.00  0.00    +0.000 HD
BRANCH   5  13
ATOM     13  N   UNL     1       2.038   4.367  17.514  0.00  0.00    +0.000 N 
ATOM     14  H   UNL     1       2.229   5.002  16.737  0.00  0.00    +0.000 HD
ATOM     15  H   UNL     1       1.789   3.477  17.091  0.00  0.00    +0.000 HD
ENDBRANCH   5  13
BRANCH   4  16
ATOM     16  C   UNL     1       2.406   1.928  18.973  0.00  0.00    +0.000 C 
BRANCH  16  18
ATOM     17  C   UNL     1       1.416   2.700  21.163  0.00  0.00    +0.000 C 
ATOM     18  C   UNL     1       1.130   2.345  19.710  0.00  0.00    +0.000 C 
ENDBRANCH  16  18
ENDBRANCH   4  16
ENDBRANCH   1   6
BRANCH   1  19
ATOM     19  C   UNL     1       4.523   7.016  16.620  0.00  0.00    +0.000 C 
BRANCH  19  20
ATOM     20  C   UNL     1       5.138   6.102  15.562  0.00  0.00    +0.000 C 
BRANCH  20  21
ATOM     21  O   UNL     1       6.550   5.926  15.783  0.00  0.00    +0.000 OA
ATOM     22  C   UNL     1       6.976   4.566  15.709  0.00  0.00    +0.000 C 
ENDBRANCH  20  21
ENDBRANCH  19  20
ENDBRANCH   1  19
BRANCH   2  23
ATOM     23  C   UNL     1       2.507   8.645  17.854  0.00  0.00    +0.000 C 
BRANCH  23  24
ATOM     24  S   UNL     1       1.434   9.583  19.037  0.00  0.00    +0.000 S 
BRANCH  24  25
ATOM     25  C   UNL     1      -0.040   9.933  18.010  0.00  0.00    +0.000 C 
BRANCH  25  26
ATOM     26  C   UNL     1      -1.172  10.533  18.825  0.00  0.00    +0.000 C 
ATOM     27  O   UNL     1      -2.327  10.177  18.595  0.00  0.00    +0.000 OA
ATOM     28  N   UNL     1      -0.785  11.456  19.792  0.00  0.00    +0.000 N 
ATOM     29  H   UNL     1       0.169  11.793  19.767  0.00  0.00    +0.000 HD
BRANCH  28  30
ATOM     30  C   UNL     1      -1.637  12.038  20.765  0.00  0.00    +0.000 A 
ATOM     31  C   UNL     1      -2.570  13.031  20.454  0.00  0.00    +0.000 A 
ATOM     32  C   UNL     1      -3.409  13.569  21.430  0.00  0.00    +0.000 A 
ATOM     33  C   UNL     1      -3.343  13.124  22.751  0.00  0.00    +0.000 A 
ATOM     34  C   UNL     1      -4.247  13.714  23.792  0.00  0.00    +0.000 C 
ATOM     35  C   UNL     1      -2.416  12.124  23.073  0.00  0.00    +0.000 A 
ATOM     36  C   UNL     1      -1.578  11.578  22.087  0.00  0.00    +0.000 A 
ENDBRANCH  28  30
ENDBRANCH  25  26
ENDBRANCH  24  25
ENDBRANCH  23  24
ENDBRANCH   2  23
TORSDOF 12
ENDMDL
MODEL 4
REMARK VINA RESULT:      -7.0      2.515      3.029
REMARK  Name = 
REMARK  15 active torsions:
REMARK  status: ('A' for Active; 'I' for Inactive)
REMARK    1  A    between atoms: C_1  and  C_2
REMARK    2  A    between atoms: C_2  and  C_3
REMARK    3  A    between atoms: C_3  and  N_4
REMARK    4  A    between atoms: C_5  and  N_6
REMARK    5  A    between atoms: C_7  and  N_8
REMARK    6  A    between atoms: N_8  and  C_9
REMARK    7  A    between atoms: C_9  and  C_10
REMARK    8  A    between atoms: C_10  and  O_11
REMARK    9  A    between atoms: O_11  and  C_12
REMARK   10  A    between atoms: C_13  and  C_15
REMARK   11  A    between atoms: C_15  and  S_16
REMARK   12  A    between atoms: S_16  and  C_17
REMARK   13  A    between atoms: C_17  and  C_18
REMARK   14  A    between atoms: N_20  and  C_21
REMARK   15  A    between atoms: C_24  and  C_25
REMARK                            x       y       z     vdW  Elec       q    Type
REMARK                         _______ _______ _______ _____ _____    ______ ____
ROOT
ATOM      1  N   UNL     1       3.994   6.543  17.687  0.00  0.00    +0.000 N 
ATOM      2  C   UNL     1       3.047   7.378  18.327  0.00  0.00    +0.000 C 
ATOM      3  O   UNL     1       2.445   7.025  19.348  0.00  0.00    +0.000 OA
ENDROOT
BRANCH   1   6
ATOM      4  N   UNL     1       3.441   3.097  18.944  0.00  0.00    +0.000 N 
ATOM      5  C   UNL     1       3.245   4.279  18.217  0.00  0.00    +0.000 A 
ATOM      6  C   UNL     1       4.191   5.256  18.224  0.00  0.00    +0.000 A 
ATOM      7  C   UNL     1       5.470   4.990  18.962  0.00  0.00    +0.000 A 
ATOM      8  O   UNL     1       6.476   5.679  18.800  0.00  0.00    +0.000 OA
ATOM      9  N   UNL     1       5.501   3.872  19.738  0.00  0.00    +0.000 N 
ATOM     10  C   UNL     1       4.585   2.862  19.707  0.00  0.00    +0.000 A 
ATOM     11  O   UNL     1       4.795   1.824  20.335  0.00  0.00    +0.000 OA
ATOM     12  H   UNL     1       6.360   3.679  20.232  0.00  0.00    +0.000 HD
BRANCH   5  13
ATOM     13  N   UNL     1       2.066   4.476  17.506  0.00  0.00    +0.000 N 
ATOM     14  H   UNL     1       1.296   4.605  18.166  0.00  0.00    +0.000 HD
ATOM     15  H   UNL     1       2.144   5.352  16.995  0.00  0.00    +0.000 HD
ENDBRANCH   5  13
BRANCH   4  16
ATOM     16  C   UNL     1       2.384   2.078  19.045  0.00  0.00    +0.000 C 
BRANCH  16  18
ATOM     17  C   UNL     1       1.588   3.017  21.247  0.00  0.00    +0.000 C 
ATOM     18  C   UNL     1       1.176   2.547  19.859  0.00  0.00    +0.000 C 
ENDBRANCH  16  18
ENDBRANCH   4  16
ENDBRANCH   1   6
BRANCH   1  19
ATOM     19  C   UNL     1       4.631   6.995  16.450  0.00  0.00    +0.000 C 
BRANCH  19  20
ATOM     20  C   UNL     1       5.187   6.024  15.410  0.00  0.00    +0.000 C 
BRANCH  20  21
ATOM     21  O   UNL     1       6.616   5.894  15.530  0.00  0.00    +0.000 OA
ATOM     22  C   UNL     1       7.113   4.627  15.102  0.00  0.00    +0.000 C 
ENDBRANCH  20  21
ENDBRANCH  19  20
ENDBRANCH   1  19
BRANCH   2  23
ATOM     23  C   UNL     1       2.699   8.736  17.666  0.00  0.00    +0.000 C 
BRANCH  23  24
ATOM     24  S   UNL     1       1.050   9.318  18.277  0.00  0.00    +0.000 S 
BRANCH  24  25
ATOM     25  C   UNL     1       1.465  10.957  18.975  0.00  0.00    +0.000 C 
BRANCH  25  26
ATOM     26  C   UNL     1       0.275  11.600  19.665  0.00  0.00    +0.000 C 
ATOM     27  O   UNL     1      -0.791  11.689  19.058  0.00  0.00    +0.000 OA
ATOM     28  N   UNL     1       0.507  12.040  20.964  0.00  0.00    +0.000 N 
ATOM     29  H   UNL     1       1.466  12.070  21.288  0.00  0.00    +0.000 HD
BRANCH  28  30
ATOM     30  C   UNL     1      -0.478  12.538  21.855  0.00  0.00    +0.000 A 
ATOM     31  C   UNL     1      -1.553  11.764  22.300  0.00  0.00    +0.000 A 
ATOM     32  C   UNL     1      -2.494  12.275  23.194  0.00  0.00    +0.000 A 
ATOM     33  C   UNL     1      -2.384  13.579  23.676  0.00  0.00    +0.000 A 
ATOM     34  C   UNL     1      -3.405  14.119  24.634  0.00  0.00    +0.000 C 
ATOM     35  C   UNL     1      -1.305  14.362  23.243  0.00  0.00    +0.000 A 
ATOM     36  C   UNL     1      -0.355  13.843  22.349  0.00  0.00    +0.000 A 
ENDBRANCH  28  30
ENDBRANCH  25  26
ENDBRANCH  24  25
ENDBRANCH  23  24
ENDBRANCH   2  23
TORSDOF 12
ENDMDL
MODEL 5
REMARK VINA RESULT:      -6.9      4.297      8.537
REMARK  Name = 
REMARK  15 active torsions:
REMARK  status: ('A' for Active; 'I' for Inactive)
REMARK    1  A    between atoms: C_1  and  C_2
REMARK    2  A    between atoms: C_2  and  C_3
REMARK    3  A    between atoms: C_3  and  N_4
REMARK    4  A    between atoms: C_5  and  N_6
REMARK    5  A    between atoms: C_7  and  N_8
REMARK    6  A    between atoms: N_8  and  C_9
REMARK    7  A    between atoms: C_9  and  C_10
REMARK    8  A    between atoms: C_10  and  O_11
REMARK    9  A    between atoms: O_11  and  C_12
REMARK   10  A    between atoms: C_13  and  C_15
REMARK   11  A    between atoms: C_15  and  S_16
REMARK   12  A    between atoms: S_16  and  C_17
REMARK   13  A    between atoms: C_17  and  C_18
REMARK   14  A    between atoms: N_20  and  C_21
REMARK   15  A    between atoms: C_24  and  C_25
REMARK                            x       y       z     vdW  Elec       q    Type
REMARK                         _______ _______ _______ _____ _____    ______ ____
ROOT
ATOM      1  N   UNL     1       3.621   5.126  18.515  0.00  0.00    +0.000 N 
ATOM      2  C   UNL     1       4.983   5.144  18.900  0.00  0.00    +0.000 C 
ATOM      3  O   UNL     1       5.395   5.860  19.820  0.00  0.00    +0.000 OA
ENDROOT
BRANCH   1   6
ATOM      4  N   UNL     1       1.761   8.149  19.591  0.00  0.00    +0.000 N 
ATOM      5  C   UNL     1       2.481   7.271  18.770  0.00  0.00    +0.000 A 
ATOM      6  C   UNL     1       2.746   6.004  19.184  0.00  0.00    +0.000 A 
ATOM      7  C   UNL     1       2.176   5.560  20.499  0.00  0.00    +0.000 A 
ATOM      8  O   UNL     1       2.125   4.375  20.826  0.00  0.00    +0.000 OA
ATOM      9  N   UNL     1       1.608   6.528  21.271  0.00  0.00    +0.000 N 
ATOM     10  C   UNL     1       1.294   7.787  20.854  0.00  0.00    +0.000 A 
ATOM     11  O   UNL     1       0.637   8.529  21.586  0.00  0.00    +0.000 OA
ATOM     12  H   UNL     1       1.214   6.239  22.153  0.00  0.00    +0.000 HD
BRANCH   5  13
ATOM     13  N   UNL     1       2.958   7.700  17.535  0.00  0.00    +0.000 N 
ATOM     14  H   UNL     1       3.210   8.688  17.600  0.00  0.00    +0.000 HD
ATOM     15  H   UNL     1       3.824   7.204  17.338  0.00  0.00    +0.000 HD
ENDBRANCH   5  13
BRANCH   4  16
ATOM     16  C   UNL     1       1.562   9.558  19.214  0.00  0.00    +0.000 C 
BRANCH  16  18
ATOM     17  C   UNL     1      -0.212  11.267  18.667  0.00  0.00    +0.000 C 
ATOM     18  C   UNL     1       0.215   9.812  18.532  0.00  0.00    +0.000 C 
ENDBRANCH  16  18
ENDBRANCH   4  16
ENDBRANCH   1   6
BRANCH   1  19
ATOM     19  C   UNL     1       3.207   4.300  17.380  0.00  0.00    +0.000 C 
BRANCH  19  20
ATOM     20  C   UNL     1       1.893   3.522  17.368  0.00  0.00    +0.000 C 
BRANCH  20  21
ATOM     21  O   UNL     1       2.127   2.103  17.439  0.00  0.00    +0.000 OA
ATOM     22  C   UNL     1       3.265   1.750  18.225  0.00  0.00    +0.000 C 
ENDBRANCH  20  21
ENDBRANCH  19  20
ENDBRANCH   1  19
BRANCH   2  23
ATOM     23  C   UNL     1       5.993   4.305  18.076  0.00  0.00    +0.000 C 
BRANCH  23  24
ATOM     24  S   UNL     1       7.130   5.437  17.151  0.00  0.00    +0.000 S 
BRANCH  24  25
ATOM     25  C   UNL     1       7.910   6.379  18.511  0.00  0.00    +0.000 C 
BRANCH  25  26
ATOM     26  C   UNL     1       8.094   7.845  18.156  0.00  0.00    +0.000 C 
ATOM     27  O   UNL     1       7.562   8.284  17.138  0.00  0.00    +0.000 OA
ATOM     28  N   UNL     1       8.868   8.580  19.048  0.00  0.00    +0.000 N 
ATOM     29  H   UNL     1       9.392   8.070  19.749  0.00  0.00    +0.000 HD
BRANCH  28  30
ATOM     30  C   UNL     1       9.062   9.984  19.010  0.00  0.00    +0.000 A 
ATOM     31  C   UNL     1       8.804  10.751  17.870  0.00  0.00    +0.000 A 
ATOM     32  C   UNL     1       8.984  12.134  17.870  0.00  0.00    +0.000 A 
ATOM     33  C   UNL     1       9.424  12.795  19.017  0.00  0.00    +0.000 A 
ATOM     34  C   UNL     1       9.617  14.283  19.004  0.00  0.00    +0.000 C 
ATOM     35  C   UNL     1       9.678  12.038  20.168  0.00  0.00    +0.000 A 
ATOM     36  C   UNL     1       9.489  10.646  20.168  0.00  0.00    +0.000 A 
ENDBRANCH  28  30
ENDBRANCH  25  26
ENDBRANCH  24  25
ENDBRANCH  23  24
ENDBRANCH   2  23
TORSDOF 12
ENDMDL
MODEL 6
REMARK VINA RESULT:      -6.9      2.029      2.602
REMARK  Name = 
REMARK  15 active torsions:
REMARK  status: ('A' for Active; 'I' for Inactive)
REMARK    1  A    between atoms: C_1  and  C_2
REMARK    2  A    between atoms: C_2  and  C_3
REMARK    3  A    between atoms: C_3  and  N_4
REMARK    4  A    between atoms: C_5  and  N_6
REMARK    5  A    between atoms: C_7  and  N_8
REMARK    6  A    between atoms: N_8  and  C_9
REMARK    7  A    between atoms: C_9  and  C_10
REMARK    8  A    between atoms: C_10  and  O_11
REMARK    9  A    between atoms: O_11  and  C_12
REMARK   10  A    between atoms: C_13  and  C_15
REMARK   11  A    between atoms: C_15  and  S_16
REMARK   12  A    between atoms: S_16  and  C_17
REMARK   13  A    between atoms: C_17  and  C_18
REMARK   14  A    between atoms: N_20  and  C_21
REMARK   15  A    between atoms: C_24  and  C_25
REMARK                            x       y       z     vdW  Elec       q    Type
REMARK                         _______ _______ _______ _____ _____    ______ ____
ROOT
ATOM      1  N   UNL     1       4.009   6.487  17.609  0.00  0.00    +0.000 N 
ATOM      2  C   UNL     1       3.120   7.374  18.262  0.00  0.00    +0.000 C 
ATOM      3  O   UNL     1       2.563   7.079  19.326  0.00  0.00    +0.000 OA
ENDROOT
BRANCH   1   6
ATOM      4  N   UNL     1       3.442   3.076  18.950  0.00  0.00    +0.000 N 
ATOM      5  C   UNL     1       3.258   4.235  18.186  0.00  0.00    +0.000 A 
ATOM      6  C   UNL     1       4.198   5.216  18.187  0.00  0.00    +0.000 A 
ATOM      7  C   UNL     1       5.461   4.977  18.961  0.00  0.00    +0.000 A 
ATOM      8  O   UNL     1       6.468   5.667  18.803  0.00  0.00    +0.000 OA
ATOM      9  N   UNL     1       5.479   3.882  19.770  0.00  0.00    +0.000 N 
ATOM     10  C   UNL     1       4.568   2.868  19.746  0.00  0.00    +0.000 A 
ATOM     11  O   UNL     1       4.768   1.849  20.408  0.00  0.00    +0.000 OA
ATOM     12  H   UNL     1       6.327   3.708  20.288  0.00  0.00    +0.000 HD
BRANCH   5  13
ATOM     13  N   UNL     1       2.094   4.406  17.442  0.00  0.00    +0.000 N 
ATOM     14  H   UNL     1       1.534   5.148  17.865  0.00  0.00    +0.000 HD
ATOM     15  H   UNL     1       2.353   4.743  16.518  0.00  0.00    +0.000 HD
ENDBRANCH   5  13
BRANCH   4  16
ATOM     16  C   UNL     1       2.387   2.054  19.055  0.00  0.00    +0.000 C 
BRANCH  16  18
ATOM     17  C   UNL     1       1.047   3.552  20.582  0.00  0.00    +0.000 C 
ATOM     18  C   UNL     1       1.592   2.147  20.360  0.00  0.00    +0.000 C 
ENDBRANCH  16  18
ENDBRANCH   4  16
ENDBRANCH   1   6
BRANCH   1  19
ATOM     19  C   UNL     1       4.592   6.871  16.323  0.00  0.00    +0.000 C 
BRANCH  19  20
ATOM     20  C   UNL     1       5.692   6.057  15.644  0.00  0.00    +0.000 C 
BRANCH  20  21
ATOM     21  O   UNL     1       5.167   4.843  15.077  0.00  0.00    +0.000 OA
ATOM     22  C   UNL     1       6.145   3.816  14.917  0.00  0.00    +0.000 C 
ENDBRANCH  20  21
ENDBRANCH  19  20
ENDBRANCH   1  19
BRANCH   2  23
ATOM     23  C   UNL     1       2.774   8.714  17.565  0.00  0.00    +0.000 C 
BRANCH  23  24
ATOM     24  S   UNL     1       1.239   9.426  18.317  0.00  0.00    +0.000 S 
BRANCH  24  25
ATOM     25  C   UNL     1       1.703  11.182  18.529  0.00  0.00    +0.000 C 
BRANCH  25  26
ATOM     26  C   UNL     1       0.909  11.851  19.638  0.00  0.00    +0.000 C 
ATOM     27  O   UNL     1       1.231  12.979  20.006  0.00  0.00    +0.000 OA
ATOM     28  N   UNL     1      -0.148  11.103  20.147  0.00  0.00    +0.000 N 
ATOM     29  H   UNL     1      -0.203  10.126  19.885  0.00  0.00    +0.000 HD
BRANCH  28  30
ATOM     30  C   UNL     1      -1.114  11.565  21.076  0.00  0.00    +0.000 A 
ATOM     31  C   UNL     1      -2.199  12.362  20.703  0.00  0.00    +0.000 A 
ATOM     32  C   UNL     1      -3.146  12.784  21.637  0.00  0.00    +0.000 A 
ATOM     33  C   UNL     1      -3.036  12.415  22.978  0.00  0.00    +0.000 A 
ATOM     34  C   UNL     1      -4.058  12.878  23.974  0.00  0.00    +0.000 C 
ATOM     35  C   UNL     1      -1.956  11.610  23.363  0.00  0.00    +0.000 A 
ATOM     36  C   UNL     1      -1.009  11.180  22.419  0.00  0.00    +0.000 A 
ENDBRANCH  28  30
ENDBRANCH  25  26
ENDBRANCH  24  25
ENDBRANCH  23  24
ENDBRANCH   2  23
TORSDOF 12
ENDMDL
MODEL 7
REMARK VINA RESULT:      -6.7      2.584      3.316
REMARK  Name = 
REMARK  15 active torsions:
REMARK  status: ('A' for Active; 'I' for Inactive)
REMARK    1  A    between atoms: C_1  and  C_2
REMARK    2  A    between atoms: C_2  and  C_3
REMARK    3  A    between atoms: C_3  and  N_4
REMARK    4  A    between atoms: C_5  and  N_6
REMARK    5  A    between atoms: C_7  and  N_8
REMARK    6  A    between atoms: N_8  and  C_9
REMARK    7  A    between atoms: C_9  and  C_10
REMARK    8  A    between atoms: C_10  and  O_11
REMARK    9  A    between atoms: O_11  and  C_12
REMARK   10  A    between atoms: C_13  and  C_15
REMARK   11  A    between atoms: C_15  and  S_16
REMARK   12  A    between atoms: S_16  and  C_17
REMARK   13  A    between atoms: C_17  and  C_18
REMARK   14  A    between atoms: N_20  and  C_21
REMARK   15  A    between atoms: C_24  and  C_25
REMARK                            x       y       z     vdW  Elec       q    Type
REMARK                         _______ _______ _______ _____ _____    ______ ____
ROOT
ATOM      1  N   UNL     1       3.936   6.495  17.758  0.00  0.00    +0.000 N 
ATOM      2  C   UNL     1       3.073   7.365  18.468  0.00  0.00    +0.000 C 
ATOM      3  O   UNL     1       2.543   7.035  19.534  0.00  0.00    +0.000 OA
ENDROOT
BRANCH   1   6
ATOM      4  N   UNL     1       3.378   3.033  18.965  0.00  0.00    +0.000 N 
ATOM      5  C   UNL     1       3.188   4.222  18.249  0.00  0.00    +0.000 A 
ATOM      6  C   UNL     1       4.129   5.203  18.283  0.00  0.00    +0.000 A 
ATOM      7  C   UNL     1       5.398   4.933  19.038  0.00  0.00    +0.000 A 
ATOM      8  O   UNL     1       6.403   5.629  18.900  0.00  0.00    +0.000 OA
ATOM      9  N   UNL     1       5.421   3.806  19.801  0.00  0.00    +0.000 N 
ATOM     10  C   UNL     1       4.510   2.794  19.744  0.00  0.00    +0.000 A 
ATOM     11  O   UNL     1       4.714   1.749  20.362  0.00  0.00    +0.000 OA
ATOM     12  H   UNL     1       6.272   3.611  20.307  0.00  0.00    +0.000 HD
BRANCH   5  13
ATOM     13  N   UNL     1       2.019   4.423  17.522  0.00  0.00    +0.000 N 
ATOM     14  H   UNL     1       1.216   4.217  18.118  0.00  0.00    +0.000 HD
ATOM     15  H   UNL     1       1.951   5.412  17.294  0.00  0.00    +0.000 HD
ENDBRANCH   5  13
BRANCH   4  16
ATOM     16  C   UNL     1       2.323   2.009  19.037  0.00  0.00    +0.000 C 
BRANCH  16  18
ATOM     17  C   UNL     1       1.369   2.787  21.240  0.00  0.00    +0.000 C 
ATOM     18  C   UNL     1       1.072   2.488  19.776  0.00  0.00    +0.000 C 
ENDBRANCH  16  18
ENDBRANCH   4  16
ENDBRANCH   1   6
BRANCH   1  19
ATOM     19  C   UNL     1       4.487   6.923  16.471  0.00  0.00    +0.000 C 
BRANCH  19  20
ATOM     20  C   UNL     1       5.608   6.163  15.766  0.00  0.00    +0.000 C 
BRANCH  20  21
ATOM     21  O   UNL     1       5.107   4.979  15.117  0.00  0.00    +0.000 OA
ATOM     22  C   UNL     1       6.115   4.223  14.448  0.00  0.00    +0.000 C 
ENDBRANCH  20  21
ENDBRANCH  19  20
ENDBRANCH   1  19
BRANCH   2  23
ATOM     23  C   UNL     1       2.721   8.733  17.830  0.00  0.00    +0.000 C 
BRANCH  23  24
ATOM     24  S   UNL     1       0.938   9.123  18.145  0.00  0.00    +0.000 S 
BRANCH  24  25
ATOM     25  C   UNL     1       0.963   9.593  19.913  0.00  0.00    +0.000 C 
BRANCH  25  26
ATOM     26  C   UNL     1       0.969  11.101  20.100  0.00  0.00    +0.000 C 
ATOM     27  O   UNL     1       1.090  11.561  21.234  0.00  0.00    +0.000 OA
ATOM     28  N   UNL     1       0.836  11.846  18.933  0.00  0.00    +0.000 N 
ATOM     29  H   UNL     1       0.569  11.355  18.088  0.00  0.00    +0.000 HD
BRANCH  28  30
ATOM     30  C   UNL     1       0.956  13.255  18.835  0.00  0.00    +0.000 A 
ATOM     31  C   UNL     1       2.185  13.897  18.658  0.00  0.00    +0.000 A 
ATOM     32  C   UNL     1       2.269  15.285  18.543  0.00  0.00    +0.000 A 
ATOM     33  C   UNL     1       1.121  16.075  18.599  0.00  0.00    +0.000 A 
ATOM     34  C   UNL     1       1.225  17.567  18.479  0.00  0.00    +0.000 C 
ATOM     35  C   UNL     1      -0.118  15.442  18.769  0.00  0.00    +0.000 A 
ATOM     36  C   UNL     1      -0.201  14.044  18.876  0.00  0.00    +0.000 A 
ENDBRANCH  28  30
ENDBRANCH  25  26
ENDBRANCH  24  25
ENDBRANCH  23  24
ENDBRANCH   2  23
TORSDOF 12
ENDMDL
MODEL 8
REMARK VINA RESULT:      -6.7      2.859      4.989
REMARK  Name = 
REMARK  15 active torsions:
REMARK  status: ('A' for Active; 'I' for Inactive)
REMARK    1  A    between atoms: C_1  and  C_2
REMARK    2  A    between atoms: C_2  and  C_3
REMARK    3  A    between atoms: C_3  and  N_4
REMARK    4  A    between atoms: C_5  and  N_6
REMARK    5  A    between atoms: C_7  and  N_8
REMARK    6  A    between atoms: N_8  and  C_9
REMARK    7  A    between atoms: C_9  and  C_10
REMARK    8  A    between atoms: C_10  and  O_11
REMARK    9  A    between atoms: O_11  and  C_12
REMARK   10  A    between atoms: C_13  and  C_15
REMARK   11  A    between atoms: C_15  and  S_16
REMARK   12  A    between atoms: S_16  and  C_17
REMARK   13  A    between atoms: C_17  and  C_18
REMARK   14  A    between atoms: N_20  and  C_21
REMARK   15  A    between atoms: C_24  and  C_25
REMARK                            x       y       z     vdW  Elec       q    Type
REMARK                         _______ _______ _______ _____ _____    ______ ____
ROOT
ATOM      1  N   UNL     1       4.817   4.853  18.431  0.00  0.00    +0.000 N 
ATOM      2  C   UNL     1       3.771   5.755  18.740  0.00  0.00    +0.000 C 
ATOM      3  O   UNL     1       3.416   6.642  17.955  0.00  0.00    +0.000 OA
ENDROOT
BRANCH   1   6
ATOM      4  N   UNL     1       6.088   4.398  14.977  0.00  0.00    +0.000 N 
ATOM      5  C   UNL     1       5.246   4.296  16.091  0.00  0.00    +0.000 A 
ATOM      6  C   UNL     1       5.489   5.035  17.207  0.00  0.00    +0.000 A 
ATOM      7  C   UNL     1       6.628   6.010  17.169  0.00  0.00    +0.000 A 
ATOM      8  O   UNL     1       6.756   6.903  18.006  0.00  0.00    +0.000 OA
ATOM      9  N   UNL     1       7.457   5.933  16.091  0.00  0.00    +0.000 N 
ATOM     10  C   UNL     1       7.204   5.234  14.948  0.00  0.00    +0.000 A 
ATOM     11  O   UNL     1       7.946   5.363  13.974  0.00  0.00    +0.000 OA
ATOM     12  H   UNL     1       8.222   6.590  16.052  0.00  0.00    +0.000 HD
BRANCH   5  13
ATOM     13  N   UNL     1       4.170   3.414  16.078  0.00  0.00    +0.000 N 
ATOM     14  H   UNL     1       3.399   3.836  15.559  0.00  0.00    +0.000 HD
ATOM     15  H   UNL     1       4.442   2.588  15.550  0.00  0.00    +0.000 HD
ENDBRANCH   5  13
BRANCH   4  16
ATOM     16  C   UNL     1       5.913   3.525  13.805  0.00  0.00    +0.000 C 
BRANCH  16  18
ATOM     17  C   UNL     1       4.561   3.150  11.707  0.00  0.00    +0.000 C 
ATOM     18  C   UNL     1       5.107   4.184  12.682  0.00  0.00    +0.000 C 
ENDBRANCH  16  18
ENDBRANCH   4  16
ENDBRANCH   1   6
BRANCH   1  19
ATOM     19  C   UNL     1       5.228   3.862  19.426  0.00  0.00    +0.000 C 
BRANCH  19  20
ATOM     20  C   UNL     1       4.436   2.582  19.686  0.00  0.00    +0.000 C 
BRANCH  20  21
ATOM     21  O   UNL     1       3.609   2.243  18.557  0.00  0.00    +0.000 OA
ATOM     22  C   UNL     1       2.220   2.155  18.872  0.00  0.00    +0.000 C 
ENDBRANCH  20  21
ENDBRANCH  19  20
ENDBRANCH   1  19
BRANCH   2  23
ATOM     23  C   UNL     1       3.121   5.675  20.146  0.00  0.00    +0.000 C 
BRANCH  23  24
ATOM     24  S   UNL     1       1.423   6.410  20.086  0.00  0.00    +0.000 S 
BRANCH  24  25
ATOM     25  C   UNL     1       1.668   7.993  20.971  0.00  0.00    +0.000 C 
BRANCH  25  26
ATOM     26  C   UNL     1       0.350   8.684  21.277  0.00  0.00    +0.000 C 
ATOM     27  O   UNL     1      -0.633   8.000  21.553  0.00  0.00    +0.000 OA
ATOM     28  N   UNL     1       0.380  10.074  21.218  0.00  0.00    +0.000 N 
ATOM     29  H   UNL     1       1.198  10.511  20.811  0.00  0.00    +0.000 HD
BRANCH  28  30
ATOM     30  C   UNL     1      -0.676  10.939  21.601  0.00  0.00    +0.000 A 
ATOM     31  C   UNL     1      -1.128  11.040  22.919  0.00  0.00    +0.000 A 
ATOM     32  C   UNL     1      -2.156  11.917  23.268  0.00  0.00    +0.000 A 
ATOM     33  C   UNL     1      -2.760  12.726  22.305  0.00  0.00    +0.000 A 
ATOM     34  C   UNL     1      -3.867  13.661  22.693  0.00  0.00    +0.000 C 
ATOM     35  C   UNL     1      -2.310  12.638  20.981  0.00  0.00    +0.000 A 
ATOM     36  C   UNL     1      -1.270  11.761  20.634  0.00  0.00    +0.000 A 
ENDBRANCH  28  30
ENDBRANCH  25  26
ENDBRANCH  24  25
ENDBRANCH  23  24
ENDBRANCH   2  23
TORSDOF 12
ENDMDL
MODEL 9
REMARK VINA RESULT:      -6.7      2.298      2.999
REMARK  Name = 
REMARK  15 active torsions:
REMARK  status: ('A' for Active; 'I' for Inactive)
REMARK    1  A    between atoms: C_1  and  C_2
REMARK    2  A    between atoms: C_2  and  C_3
REMARK    3  A    between atoms: C_3  and  N_4
REMARK    4  A    between atoms: C_5  and  N_6
REMARK    5  A    between atoms: C_7  and  N_8
REMARK    6  A    between atoms: N_8  and  C_9
REMARK    7  A    between atoms: C_9  and  C_10
REMARK    8  A    between atoms: C_10  and  O_11
REMARK    9  A    between atoms: O_11  and  C_12
REMARK   10  A    between atoms: C_13  and  C_15
REMARK   11  A    between atoms: C_15  and  S_16
REMARK   12  A    between atoms: S_16  and  C_17
REMARK   13  A    between atoms: C_17  and  C_18
REMARK   14  A    between atoms: N_20  and  C_21
REMARK   15  A    between atoms: C_24  and  C_25
REMARK                            x       y       z     vdW  Elec       q    Type
REMARK                         _______ _______ _______ _____ _____    ______ ____
ROOT
ATOM      1  N   UNL     1       3.801   6.602  17.733  0.00  0.00    +0.000 N 
ATOM      2  C   UNL     1       2.817   7.406  18.357  0.00  0.00    +0.000 C 
ATOM      3  O   UNL     1       2.222   7.040  19.377  0.00  0.00    +0.000 OA
ENDROOT
BRANCH   1   6
ATOM      4  N   UNL     1       3.375   3.152  19.027  0.00  0.00    +0.000 N 
ATOM      5  C   UNL     1       3.137   4.317  18.286  0.00  0.00    +0.000 A 
ATOM      6  C   UNL     1       4.044   5.329  18.286  0.00  0.00    +0.000 A 
ATOM      7  C   UNL     1       5.330   5.121  19.031  0.00  0.00    +0.000 A 
ATOM      8  O   UNL     1       6.309   5.846  18.865  0.00  0.00    +0.000 OA
ATOM      9  N   UNL     1       5.400   4.014  19.820  0.00  0.00    +0.000 N 
ATOM     10  C   UNL     1       4.523   2.970  19.797  0.00  0.00    +0.000 A 
ATOM     11  O   UNL     1       4.770   1.948  20.438  0.00  0.00    +0.000 OA
ATOM     12  H   UNL     1       6.264   3.859  20.319  0.00  0.00    +0.000 HD
BRANCH   5  13
ATOM     13  N   UNL     1       1.954   4.461  17.569  0.00  0.00    +0.000 N 
ATOM     14  H   UNL     1       2.165   4.449  16.570  0.00  0.00    +0.000 HD
ATOM     15  H   UNL     1       1.375   3.642  17.740  0.00  0.00    +0.000 HD
ENDBRANCH   5  13
BRANCH   4  16
ATOM     16  C   UNL     1       2.357   2.095  19.136  0.00  0.00    +0.000 C 
BRANCH  16  18
ATOM     17  C   UNL     1       1.389   2.711  21.384  0.00  0.00    +0.000 C 
ATOM     18  C   UNL     1       1.106   2.543  19.897  0.00  0.00    +0.000 C 
ENDBRANCH  16  18
ENDBRANCH   4  16
ENDBRANCH   1   6
BRANCH   1  19
ATOM     19  C   UNL     1       4.428   7.066  16.495  0.00  0.00    +0.000 C 
BRANCH  19  20
ATOM     20  C   UNL     1       5.074   6.110  15.494  0.00  0.00    +0.000 C 
BRANCH  20  21
ATOM     21  O   UNL     1       6.491   5.995  15.723  0.00  0.00    +0.000 OA
ATOM     22  C   UNL     1       7.037   4.741  15.317  0.00  0.00    +0.000 C 
ENDBRANCH  20  21
ENDBRANCH  19  20
ENDBRANCH   1  19
BRANCH   2  23
ATOM     23  C   UNL     1       2.420   8.742  17.678  0.00  0.00    +0.000 C 
BRANCH  23  24
ATOM     24  S   UNL     1       1.960   9.982  18.974  0.00  0.00    +0.000 S 
BRANCH  24  25
ATOM     25  C   UNL     1       0.134   9.884  18.957  0.00  0.00    +0.000 C 
BRANCH  25  26
ATOM     26  C   UNL     1      -0.474  10.349  20.269  0.00  0.00    +0.000 C 
ATOM     27  O   UNL     1      -0.512   9.569  21.219  0.00  0.00    +0.000 OA
ATOM     28  N   UNL     1      -0.942  11.659  20.277  0.00  0.00    +0.000 N 
ATOM     29  H   UNL     1      -1.013  12.140  19.388  0.00  0.00    +0.000 HD
BRANCH  28  30
ATOM     30  C   UNL     1      -1.415  12.360  21.415  0.00  0.00    +0.000 A 
ATOM     31  C   UNL     1      -0.584  13.154  22.211  0.00  0.00    +0.000 A 
ATOM     32  C   UNL     1      -1.083  13.849  23.313  0.00  0.00    +0.000 A 
ATOM     33  C   UNL     1      -2.435  13.774  23.649  0.00  0.00    +0.000 A 
ATOM     34  C   UNL     1      -2.959  14.523  24.839  0.00  0.00    +0.000 C 
ATOM     35  C   UNL     1      -3.279  12.987  22.854  0.00  0.00    +0.000 A 
ATOM     36  C   UNL     1      -2.776  12.295  21.741  0.00  0.00    +0.000 A 
ENDBRANCH  28  30
ENDBRANCH  25  26
ENDBRANCH  24  25
ENDBRANCH  23  24
ENDBRANCH   2  23
TORSDOF 12
ENDMDL
