MODEL 1
REMARK VINA RESULT:      -8.8      0.000      0.000
REMARK  Name = 
REMARK  9 active torsions:
REMARK  status: ('A' for Active; 'I' for Inactive)
REMARK    1  A    between atoms: C_1  and  C_2
REMARK    2  A    between atoms: N_4  and  N_5
REMARK    3  A    between atoms: C_8  and  C_9
REMARK    4  A    between atoms: C_10  and  C_11
REMARK    5  A    between atoms: N_13  and  N_14
REMARK    6  A    between atoms: C_15  and  C_17
REMARK    7  A    between atoms: N_19  and  C_20
REMARK    8  A    between atoms: C_23  and  C_24
REMARK    9  A    between atoms: C_25  and  C_26
REMARK                            x       y       z     vdW  Elec       q    Type
REMARK                         _______ _______ _______ _____ _____    ______ ____
ROOT
ATOM      1  C   UNL     1       2.200   5.966  20.177  0.00  0.00    +0.000 C 
ATOM      2  O   UNL     1       1.318   5.426  20.847  0.00  0.00    +0.000 OA
ATOM      3  N   UNL     1       2.458   7.334  20.311  0.00  0.00    +0.000 N 
ATOM      4  H   UNL     1       3.174   7.798  19.757  0.00  0.00    +0.000 HD
ENDROOT
BRANCH   1  10
ATOM      5  N   UNL     1       6.052   3.971  17.336  0.00  0.00    +0.000 N 
ATOM      6  C   UNL     1       4.846   4.317  17.846  0.00  0.00    +0.000 A 
ATOM      7  N   UNL     1       3.688   4.036  17.297  0.00  0.00    +0.000 NA
ATOM      8  C   UNL     1       2.636   4.511  18.078  0.00  0.00    +0.000 A 
ATOM      9  C   UNL     1       1.261   4.185  17.607  0.00  0.00    +0.000 C 
ATOM     10  C   UNL     1       3.018   5.247  19.199  0.00  0.00    +0.000 A 
ATOM     11  S   UNL     1       4.738   5.200  19.317  0.00  0.00    +0.000 S 
ATOM     12  H   UNL     1       6.898   4.292  17.813  0.00  0.00    +0.000 HD
BRANCH   5  16
ATOM     13  C   UNL     1       7.027   4.586  13.799  0.00  0.00    +0.000 C 
ATOM     14  C   UNL     1       6.890   4.798  15.281  0.00  0.00    +0.000 C 
ATOM     15  O   UNL     1       7.310   5.803  15.850  0.00  0.00    +0.000 OA
ATOM     16  N   UNL     1       6.261   3.766  15.957  0.00  0.00    +0.000 N 
ATOM     17  H   UNL     1       5.644   3.095  15.503  0.00  0.00    +0.000 HD
ENDBRANCH   5  16
ENDBRANCH   1  10
BRANCH   3  18
ATOM     18  N   UNL     1       1.709   8.139  21.195  0.00  0.00    +0.000 N 
ATOM     19  C   UNL     1       0.877   9.140  20.697  0.00  0.00    +0.000 C 
ATOM     20  O   UNL     1       0.716   9.399  19.512  0.00  0.00    +0.000 OA
ATOM     21  H   UNL     1       1.800   7.982  22.202  0.00  0.00    +0.000 HD
BRANCH  19  22
ATOM     22  C   UNL     1       0.135   9.937  21.788  0.00  0.00    +0.000 C 
ATOM     23  O   UNL     1      -0.115   9.353  22.832  0.00  0.00    +0.000 OA
ATOM     24  N   UNL     1      -0.172  11.251  21.436  0.00  0.00    +0.000 N 
ATOM     25  H   UNL     1       0.130  11.540  20.508  0.00  0.00    +0.000 HD
BRANCH  24  26
ATOM     26  C   UNL     1      -0.881  12.198  22.223  0.00  0.00    +0.000 A 
ATOM     27  C   UNL     1      -0.408  13.487  22.457  0.00  0.00    +0.000 A 
ATOM     28  C   UNL     1      -1.116  14.383  23.264  0.00  0.00    +0.000 A 
ATOM     29  C   UNL     1      -2.324  14.017  23.870  0.00  0.00    +0.000 A 
ATOM     30  C   UNL     1      -3.018  15.023  24.749  0.00  0.00    +0.000 C 
ATOM     31  C   UNL     1      -2.831  12.724  23.641  0.00  0.00    +0.000 A 
ATOM     32  C   UNL     1      -4.115  12.248  24.271  0.00  0.00    +0.000 C 
ATOM     33  C   UNL     1      -2.103  11.832  22.808  0.00  0.00    +0.000 A 
ENDBRANCH  24  26
ENDBRANCH  19  22
ENDBRANCH   3  18
TORSDOF 5
ENDMDL
MODEL 2
REMARK VINA RESULT:      -8.7      0.513      1.366
REMARK  Name = 
REMARK  9 active torsions:
REMARK  status: ('A' for Active; 'I' for Inactive)
REMARK    1  A    between atoms: C_1  and  C_2
REMARK    2  A    between atoms: N_4  and  N_5
REMARK    3  A    between atoms: C_8  and  C_9
REMARK    4  A    between atoms: C_10  and  C_11
REMARK    5  A    between atoms: N_13  and  N_14
REMARK    6  A    between atoms: C_15  and  C_17
REMARK    7  A    between atoms: N_19  and  C_20
REMARK    8  A    between atoms: C_23  and  C_24
REMARK    9  A    between atoms: C_25  and  C_26
REMARK                            x       y       z     vdW  Elec       q    Type
REMARK                         _______ _______ _______ _____ _____    ______ ____
ROOT
ATOM      1  C   UNL     1       2.188   5.796  20.245  0.00  0.00    +0.000 C 
ATOM      2  O   UNL     1       1.267   5.305  20.900  0.00  0.00    +0.000 OA
ATOM      3  N   UNL     1       2.539   7.139  20.407  0.00  0.00    +0.000 N 
ATOM      4  H   UNL     1       3.288   7.563  19.866  0.00  0.00    +0.000 HD
ENDROOT
BRANCH   1  10
ATOM      5  N   UNL     1       5.867   3.870  17.138  0.00  0.00    +0.000 N 
ATOM      6  C   UNL     1       4.703   4.143  17.776  0.00  0.00    +0.000 A 
ATOM      7  N   UNL     1       3.533   3.647  17.451  0.00  0.00    +0.000 NA
ATOM      8  C   UNL     1       2.538   4.105  18.314  0.00  0.00    +0.000 A 
ATOM      9  C   UNL     1       1.172   3.551  18.104  0.00  0.00    +0.000 C 
ATOM     10  C   UNL     1       2.960   5.041  19.257  0.00  0.00    +0.000 A 
ATOM     11  S   UNL     1       4.670   5.216  19.117  0.00  0.00    +0.000 S 
ATOM     12  H   UNL     1       6.716   4.358  17.435  0.00  0.00    +0.000 HD
BRANCH   5  16
ATOM     13  C   UNL     1       6.364   4.034  13.455  0.00  0.00    +0.000 C 
ATOM     14  C   UNL     1       6.399   4.441  14.902  0.00  0.00    +0.000 C 
ATOM     15  O   UNL     1       6.829   5.530  15.276  0.00  0.00    +0.000 OA
ATOM     16  N   UNL     1       5.915   3.488  15.783  0.00  0.00    +0.000 N 
ATOM     17  H   UNL     1       5.287   2.737  15.504  0.00  0.00    +0.000 HD
ENDBRANCH   5  16
ENDBRANCH   1  10
BRANCH   3  18
ATOM     18  N   UNL     1       1.842   7.977  21.303  0.00  0.00    +0.000 N 
ATOM     19  C   UNL     1       1.179   9.109  20.832  0.00  0.00    +0.000 C 
ATOM     20  O   UNL     1       1.130   9.463  19.663  0.00  0.00    +0.000 OA
ATOM     21  H   UNL     1       1.845   7.745  22.299  0.00  0.00    +0.000 HD
BRANCH  19  22
ATOM     22  C   UNL     1       0.473   9.924  21.935  0.00  0.00    +0.000 C 
ATOM     23  O   UNL     1       0.580   9.519  23.083  0.00  0.00    +0.000 OA
ATOM     24  N   UNL     1      -0.220  11.043  21.472  0.00  0.00    +0.000 N 
ATOM     25  H   UNL     1      -0.180  11.200  20.467  0.00  0.00    +0.000 HD
BRANCH  24  26
ATOM     26  C   UNL     1      -0.989  11.948  22.251  0.00  0.00    +0.000 A 
ATOM     27  C   UNL     1      -2.230  11.613  22.787  0.00  0.00    +0.000 A 
ATOM     28  C   UNL     1      -2.976  12.540  23.522  0.00  0.00    +0.000 A 
ATOM     29  C   UNL     1      -2.506  13.840  23.743  0.00  0.00    +0.000 A 
ATOM     30  C   UNL     1      -3.375  14.794  24.518  0.00  0.00    +0.000 C 
ATOM     31  C   UNL     1      -1.249  14.202  23.222  0.00  0.00    +0.000 A 
ATOM     32  C   UNL     1      -0.681  15.587  23.401  0.00  0.00    +0.000 C 
ATOM     33  C   UNL     1      -0.501  13.242  22.488  0.00  0.00    +0.000 A 
ENDBRANCH  24  26
ENDBRANCH  19  22
ENDBRANCH   3  18
TORSDOF 5
ENDMDL
MODEL 3
REMARK VINA RESULT:      -8.1      1.738      2.031
REMARK  Name = 
REMARK  9 active torsions:
REMARK  status: ('A' for Active; 'I' for Inactive)
REMARK    1  A    between atoms: C_1  and  C_2
REMARK    2  A    between atoms: N_4  and  N_5
REMARK    3  A    between atoms: C_8  and  C_9
REMARK    4  A    between atoms: C_10  and  C_11
REMARK    5  A    between atoms: N_13  and  N_14
REMARK    6  A    between atoms: C_15  and  C_17
REMARK    7  A    between atoms: N_19  and  C_20
REMARK    8  A    between atoms: C_23  and  C_24
REMARK    9  A    between atoms: C_25  and  C_26
REMARK                            x       y       z     vdW  Elec       q    Type
REMARK                         _______ _______ _______ _____ _____    ______ ____
ROOT
ATOM      1  C   UNL     1       2.515   6.763  19.187  0.00  0.00    +0.000 C 
ATOM      2  O   UNL     1       2.117   6.547  20.332  0.00  0.00    +0.000 OA
ATOM      3  N   UNL     1       2.256   7.986  18.563  0.00  0.00    +0.000 N 
ATOM      4  H   UNL     1       2.567   8.177  17.613  0.00  0.00    +0.000 HD
ENDROOT
BRANCH   1  10
ATOM      5  N   UNL     1       6.103   4.075  16.580  0.00  0.00    +0.000 N 
ATOM      6  C   UNL     1       4.956   4.517  17.149  0.00  0.00    +0.000 A 
ATOM      7  N   UNL     1       3.771   3.984  16.964  0.00  0.00    +0.000 NA
ATOM      8  C   UNL     1       2.800   4.656  17.706  0.00  0.00    +0.000 A 
ATOM      9  C   UNL     1       1.420   4.098  17.649  0.00  0.00    +0.000 C 
ATOM     10  C   UNL     1       3.256   5.778  18.396  0.00  0.00    +0.000 A 
ATOM     11  S   UNL     1       4.966   5.877  18.198  0.00  0.00    +0.000 S 
ATOM     12  H   UNL     1       6.966   4.600  16.743  0.00  0.00    +0.000 HD
BRANCH   5  16
ATOM     13  C   UNL     1       6.358   3.392  12.932  0.00  0.00    +0.000 C 
ATOM     14  C   UNL     1       6.424   4.141  14.234  0.00  0.00    +0.000 C 
ATOM     15  O   UNL     1       6.729   5.329  14.303  0.00  0.00    +0.000 OA
ATOM     16  N   UNL     1       6.122   3.382  15.353  0.00  0.00    +0.000 N 
ATOM     17  H   UNL     1       5.581   2.520  15.314  0.00  0.00    +0.000 HD
ENDBRANCH   5  16
ENDBRANCH   1  10
BRANCH   3  18
ATOM     18  N   UNL     1       1.519   9.000  19.211  0.00  0.00    +0.000 N 
ATOM     19  C   UNL     1       1.610  10.321  18.775  0.00  0.00    +0.000 C 
ATOM     20  O   UNL     1       2.291  10.708  17.837  0.00  0.00    +0.000 OA
ATOM     21  H   UNL     1       0.931   8.748  20.010  0.00  0.00    +0.000 HD
BRANCH  19  22
ATOM     22  C   UNL     1       0.752  11.308  19.591  0.00  0.00    +0.000 C 
ATOM     23  O   UNL     1       1.047  12.492  19.522  0.00  0.00    +0.000 OA
ATOM     24  N   UNL     1      -0.271  10.712  20.329  0.00  0.00    +0.000 N 
ATOM     25  H   UNL     1      -0.342   9.700  20.244  0.00  0.00    +0.000 HD
BRANCH  24  26
ATOM     26  C   UNL     1      -1.186  11.367  21.197  0.00  0.00    +0.000 A 
ATOM     27  C   UNL     1      -1.189  11.168  22.575  0.00  0.00    +0.000 A 
ATOM     28  C   UNL     1      -2.126  11.803  23.396  0.00  0.00    +0.000 A 
ATOM     29  C   UNL     1      -3.097  12.659  22.864  0.00  0.00    +0.000 A 
ATOM     30  C   UNL     1      -4.091  13.286  23.804  0.00  0.00    +0.000 C 
ATOM     31  C   UNL     1      -3.109  12.887  21.475  0.00  0.00    +0.000 A 
ATOM     32  C   UNL     1      -4.134  13.780  20.823  0.00  0.00    +0.000 C 
ATOM     33  C   UNL     1      -2.142  12.241  20.658  0.00  0.00    +0.000 A 
ENDBRANCH  24  26
ENDBRANCH  19  22
ENDBRANCH   3  18
TORSDOF 5
ENDMDL
MODEL 4
REMARK VINA RESULT:      -7.9      1.483      1.507
REMARK  Name = 
REMARK  9 active torsions:
REMARK  status: ('A' for Active; 'I' for Inactive)
REMARK    1  A    between atoms: C_1  and  C_2
REMARK    2  A    between atoms: N_4  and  N_5
REMARK    3  A    between atoms: C_8  and  C_9
REMARK    4  A    between atoms: C_10  and  C_11
REMARK    5  A    between atoms: N_13  and  N_14
REMARK    6  A    between atoms: C_15  and  C_17
REMARK    7  A    between atoms: N_19  and  C_20
REMARK    8  A    between atoms: C_23  and  C_24
REMARK    9  A    between atoms: C_25  and  C_26
REMARK                            x       y       z     vdW  Elec       q    Type
REMARK                         _______ _______ _______ _____ _____    ______ ____
ROOT
ATOM      1  C   UNL     1       2.496   6.113  19.779  0.00  0.00    +0.000 C 
ATOM      2  O   UNL     1       2.055   5.712  20.857  0.00  0.00    +0.000 OA
ATOM      3  N   UNL     1       2.302   7.438  19.379  0.00  0.00    +0.000 N 
ATOM      4  H   UNL     1       2.649   7.782  18.487  0.00  0.00    +0.000 HD
ENDROOT
BRANCH   1  10
ATOM      5  N   UNL     1       6.050   3.823  16.775  0.00  0.00    +0.000 N 
ATOM      6  C   UNL     1       4.908   4.184  17.408  0.00  0.00    +0.000 A 
ATOM      7  N   UNL     1       3.717   3.702  17.145  0.00  0.00    +0.000 NA
ATOM      8  C   UNL     1       2.755   4.261  17.985  0.00  0.00    +0.000 A 
ATOM      9  C   UNL     1       1.368   3.737  17.844  0.00  0.00    +0.000 C 
ATOM     10  C   UNL     1       3.225   5.255  18.842  0.00  0.00    +0.000 A 
ATOM     11  S   UNL     1       4.936   5.363  18.659  0.00  0.00    +0.000 S 
ATOM     12  H   UNL     1       6.920   4.304  17.017  0.00  0.00    +0.000 HD
BRANCH   5  16
ATOM     13  C   UNL     1       6.287   3.721  13.064  0.00  0.00    +0.000 C 
ATOM     14  C   UNL     1       6.362   4.254  14.468  0.00  0.00    +0.000 C 
ATOM     15  O   UNL     1       6.674   5.415  14.721  0.00  0.00    +0.000 OA
ATOM     16  N   UNL     1       6.060   3.331  15.454  0.00  0.00    +0.000 N 
ATOM     17  H   UNL     1       5.514   2.489  15.283  0.00  0.00    +0.000 HD
ENDBRANCH   5  16
ENDBRANCH   1  10
BRANCH   3  18
ATOM     18  N   UNL     1       1.583   8.349  20.181  0.00  0.00    +0.000 N 
ATOM     19  C   UNL     1       1.242   9.605  19.682  0.00  0.00    +0.000 C 
ATOM     20  O   UNL     1       1.510  10.015  18.562  0.00  0.00    +0.000 OA
ATOM     21  H   UNL     1       1.331   8.074  21.134  0.00  0.00    +0.000 HD
BRANCH  19  22
ATOM     22  C   UNL     1       0.466  10.485  20.682  0.00  0.00    +0.000 C 
ATOM     23  O   UNL     1       0.733  10.351  21.867  0.00  0.00    +0.000 OA
ATOM     24  N   UNL     1      -0.469  11.338  20.096  0.00  0.00    +0.000 N 
ATOM     25  H   UNL     1      -0.533  11.290  19.082  0.00  0.00    +0.000 HD
BRANCH  24  26
ATOM     26  C   UNL     1      -1.349  12.227  20.771  0.00  0.00    +0.000 A 
ATOM     27  C   UNL     1      -0.961  12.968  21.884  0.00  0.00    +0.000 A 
ATOM     28  C   UNL     1      -1.863  13.809  22.545  0.00  0.00    +0.000 A 
ATOM     29  C   UNL     1      -3.189  13.934  22.114  0.00  0.00    +0.000 A 
ATOM     30  C   UNL     1      -4.112  14.835  22.890  0.00  0.00    +0.000 C 
ATOM     31  C   UNL     1      -3.605  13.204  20.984  0.00  0.00    +0.000 A 
ATOM     32  C   UNL     1      -5.020  13.270  20.469  0.00  0.00    +0.000 C 
ATOM     33  C   UNL     1      -2.670  12.364  20.320  0.00  0.00    +0.000 A 
ENDBRANCH  24  26
ENDBRANCH  19  22
ENDBRANCH   3  18
TORSDOF 5
ENDMDL
MODEL 5
REMARK VINA RESULT:      -7.8      1.286      1.293
REMARK  Name = 
REMARK  9 active torsions:
REMARK  status: ('A' for Active; 'I' for Inactive)
REMARK    1  A    between atoms: C_1  and  C_2
REMARK    2  A    between atoms: N_4  and  N_5
REMARK    3  A    between atoms: C_8  and  C_9
REMARK    4  A    between atoms: C_10  and  C_11
REMARK    5  A    between atoms: N_13  and  N_14
REMARK    6  A    between atoms: C_15  and  C_17
REMARK    7  A    between atoms: N_19  and  C_20
REMARK    8  A    between atoms: C_23  and  C_24
REMARK    9  A    between atoms: C_25  and  C_26
REMARK                            x       y       z     vdW  Elec       q    Type
REMARK                         _______ _______ _______ _____ _____    ______ ____
ROOT
ATOM      1  C   UNL     1       2.551   6.159  19.729  0.00  0.00    +0.000 C 
ATOM      2  O   UNL     1       2.063   5.759  20.788  0.00  0.00    +0.000 OA
ATOM      3  N   UNL     1       2.414   7.495  19.342  0.00  0.00    +0.000 N 
ATOM      4  H   UNL     1       2.800   7.839  18.466  0.00  0.00    +0.000 HD
ENDROOT
BRANCH   1  10
ATOM      5  N   UNL     1       6.111   3.816  16.774  0.00  0.00    +0.000 N 
ATOM      6  C   UNL     1       4.967   4.193  17.393  0.00  0.00    +0.000 A 
ATOM      7  N   UNL     1       3.773   3.725  17.117  0.00  0.00    +0.000 NA
ATOM      8  C   UNL     1       2.808   4.298  17.944  0.00  0.00    +0.000 A 
ATOM      9  C   UNL     1       1.416   3.791  17.788  0.00  0.00    +0.000 C 
ATOM     10  C   UNL     1       3.280   5.289  18.803  0.00  0.00    +0.000 A 
ATOM     11  S   UNL     1       4.994   5.375  18.640  0.00  0.00    +0.000 S 
ATOM     12  H   UNL     1       6.984   4.287  17.024  0.00  0.00    +0.000 HD
BRANCH   5  16
ATOM     13  C   UNL     1       6.267   3.715  13.058  0.00  0.00    +0.000 C 
ATOM     14  C   UNL     1       6.331   4.260  14.458  0.00  0.00    +0.000 C 
ATOM     15  O   UNL     1       6.552   5.444  14.700  0.00  0.00    +0.000 OA
ATOM     16  N   UNL     1       6.130   3.320  15.455  0.00  0.00    +0.000 N 
ATOM     17  H   UNL     1       5.653   2.435  15.300  0.00  0.00    +0.000 HD
ENDBRANCH   5  16
ENDBRANCH   1  10
BRANCH   3  18
ATOM     18  N   UNL     1       1.700   8.419  20.135  0.00  0.00    +0.000 N 
ATOM     19  C   UNL     1       0.949   9.426  19.531  0.00  0.00    +0.000 C 
ATOM     20  O   UNL     1       0.833   9.593  18.326  0.00  0.00    +0.000 OA
ATOM     21  H   UNL     1       1.757   8.342  21.153  0.00  0.00    +0.000 HD
BRANCH  19  22
ATOM     22  C   UNL     1       0.236  10.358  20.531  0.00  0.00    +0.000 C 
ATOM     23  O   UNL     1       0.384  10.118  21.720  0.00  0.00    +0.000 OA
ATOM     24  N   UNL     1      -0.510  11.377  19.940  0.00  0.00    +0.000 N 
ATOM     25  H   UNL     1      -0.498  11.397  18.922  0.00  0.00    +0.000 HD
BRANCH  24  26
ATOM     26  C   UNL     1      -1.297  12.352  20.609  0.00  0.00    +0.000 A 
ATOM     27  C   UNL     1      -1.383  13.674  20.180  0.00  0.00    +0.000 A 
ATOM     28  C   UNL     1      -2.140  14.617  20.882  0.00  0.00    +0.000 A 
ATOM     29  C   UNL     1      -2.839  14.268  22.045  0.00  0.00    +0.000 A 
ATOM     30  C   UNL     1      -3.611  15.341  22.765  0.00  0.00    +0.000 C 
ATOM     31  C   UNL     1      -2.779  12.936  22.494  0.00  0.00    +0.000 A 
ATOM     32  C   UNL     1      -3.487  12.484  23.747  0.00  0.00    +0.000 C 
ATOM     33  C   UNL     1      -2.012  11.990  21.761  0.00  0.00    +0.000 A 
ENDBRANCH  24  26
ENDBRANCH  19  22
ENDBRANCH   3  18
TORSDOF 5
ENDMDL
MODEL 6
REMARK VINA RESULT:      -7.8      1.710      2.302
REMARK  Name = 
REMARK  9 active torsions:
REMARK  status: ('A' for Active; 'I' for Inactive)
REMARK    1  A    between atoms: C_1  and  C_2
REMARK    2  A    between atoms: N_4  and  N_5
REMARK    3  A    between atoms: C_8  and  C_9
REMARK    4  A    between atoms: C_10  and  C_11
REMARK    5  A    between atoms: N_13  and  N_14
REMARK    6  A    between atoms: C_15  and  C_17
REMARK    7  A    between atoms: N_19  and  C_20
REMARK    8  A    between atoms: C_23  and  C_24
REMARK    9  A    between atoms: C_25  and  C_26
REMARK                            x       y       z     vdW  Elec       q    Type
REMARK                         _______ _______ _______ _____ _____    ______ ____
ROOT
ATOM      1  C   UNL     1       2.477   6.725  19.039  0.00  0.00    +0.000 C 
ATOM      2  O   UNL     1       2.062   6.537  20.183  0.00  0.00    +0.000 OA
ATOM      3  N   UNL     1       2.187   7.913  18.362  0.00  0.00    +0.000 N 
ATOM      4  H   UNL     1       2.512   8.079  17.413  0.00  0.00    +0.000 HD
ENDROOT
BRANCH   1  10
ATOM      5  N   UNL     1       6.226   4.072  16.629  0.00  0.00    +0.000 N 
ATOM      6  C   UNL     1       5.048   4.495  17.148  0.00  0.00    +0.000 A 
ATOM      7  N   UNL     1       3.887   3.919  16.946  0.00  0.00    +0.000 NA
ATOM      8  C   UNL     1       2.873   4.582  17.636  0.00  0.00    +0.000 A 
ATOM      9  C   UNL     1       1.514   3.980  17.556  0.00  0.00    +0.000 C 
ATOM     10  C   UNL     1       3.273   5.740  18.303  0.00  0.00    +0.000 A 
ATOM     11  S   UNL     1       4.984   5.887  18.153  0.00  0.00    +0.000 S 
ATOM     12  H   UNL     1       7.067   4.629  16.801  0.00  0.00    +0.000 HD
BRANCH   5  16
ATOM     13  C   UNL     1       6.412   3.292  12.996  0.00  0.00    +0.000 C 
ATOM     14  C   UNL     1       6.411   4.094  14.268  0.00  0.00    +0.000 C 
ATOM     15  O   UNL     1       6.506   5.319  14.281  0.00  0.00    +0.000 OA
ATOM     16  N   UNL     1       6.304   3.342  15.426  0.00  0.00    +0.000 N 
ATOM     17  H   UNL     1       5.922   2.398  15.446  0.00  0.00    +0.000 HD
ENDBRANCH   5  16
ENDBRANCH   1  10
BRANCH   3  18
ATOM     18  N   UNL     1       1.398   8.921  18.955  0.00  0.00    +0.000 N 
ATOM     19  C   UNL     1       1.427  10.221  18.452  0.00  0.00    +0.000 C 
ATOM     20  O   UNL     1       2.095  10.593  17.498  0.00  0.00    +0.000 OA
ATOM     21  H   UNL     1       0.819   8.682  19.764  0.00  0.00    +0.000 HD
BRANCH  19  22
ATOM     22  C   UNL     1       0.518  11.206  19.213  0.00  0.00    +0.000 C 
ATOM     23  O   UNL     1      -0.380  11.740  18.579  0.00  0.00    +0.000 OA
ATOM     24  N   UNL     1       0.846  11.374  20.559  0.00  0.00    +0.000 N 
ATOM     25  H   UNL     1       1.639  10.828  20.889  0.00  0.00    +0.000 HD
BRANCH  24  26
ATOM     26  C   UNL     1       0.211  12.242  21.486  0.00  0.00    +0.000 A 
ATOM     27  C   UNL     1      -0.802  11.817  22.343  0.00  0.00    +0.000 A 
ATOM     28  C   UNL     1      -1.429  12.707  23.221  0.00  0.00    +0.000 A 
ATOM     29  C   UNL     1      -1.065  14.059  23.269  0.00  0.00    +0.000 A 
ATOM     30  C   UNL     1      -1.802  14.965  24.218  0.00  0.00    +0.000 C 
ATOM     31  C   UNL     1      -0.036  14.512  22.422  0.00  0.00    +0.000 A 
ATOM     32  C   UNL     1       0.401  15.955  22.401  0.00  0.00    +0.000 C 
ATOM     33  C   UNL     1       0.597  13.590  21.545  0.00  0.00    +0.000 A 
ENDBRANCH  24  26
ENDBRANCH  19  22
ENDBRANCH   3  18
TORSDOF 5
ENDMDL
MODEL 7
REMARK VINA RESULT:      -7.8      1.702      1.856
REMARK  Name = 
REMARK  9 active torsions:
REMARK  status: ('A' for Active; 'I' for Inactive)
REMARK    1  A    between atoms: C_1  and  C_2
REMARK    2  A    between atoms: N_4  and  N_5
REMARK    3  A    between atoms: C_8  and  C_9
REMARK    4  A    between atoms: C_10  and  C_11
REMARK    5  A    between atoms: N_13  and  N_14
REMARK    6  A    between atoms: C_15  and  C_17
REMARK    7  A    between atoms: N_19  and  C_20
REMARK    8  A    between atoms: C_23  and  C_24
REMARK    9  A    between atoms: C_25  and  C_26
REMARK                            x       y       z     vdW  Elec       q    Type
REMARK                         _______ _______ _______ _____ _____    ______ ____
ROOT
ATOM      1  C   UNL     1       2.457   7.289  18.931  0.00  0.00    +0.000 C 
ATOM      2  O   UNL     1       2.104   7.111  20.097  0.00  0.00    +0.000 OA
ATOM      3  N   UNL     1       2.136   8.474  18.263  0.00  0.00    +0.000 N 
ATOM      4  H   UNL     1       2.409   8.632  17.296  0.00  0.00    +0.000 HD
ENDROOT
BRANCH   1  10
ATOM      5  N   UNL     1       5.974   4.698  16.135  0.00  0.00    +0.000 N 
ATOM      6  C   UNL     1       4.869   5.077  16.821  0.00  0.00    +0.000 A 
ATOM      7  N   UNL     1       3.756   4.388  16.897  0.00  0.00    +0.000 NA
ATOM      8  C   UNL     1       2.818   5.039  17.696  0.00  0.00    +0.000 A 
ATOM      9  C   UNL     1       1.535   4.320  17.931  0.00  0.00    +0.000 C 
ATOM     10  C   UNL     1       3.207   6.295  18.160  0.00  0.00    +0.000 A 
ATOM     11  S   UNL     1       4.841   6.567  17.679  0.00  0.00    +0.000 S 
ATOM     12  H   UNL     1       6.770   5.339  16.091  0.00  0.00    +0.000 HD
BRANCH   5  16
ATOM     13  C   UNL     1       6.386   3.406  12.671  0.00  0.00    +0.000 C 
ATOM     14  C   UNL     1       6.536   4.302  13.869  0.00  0.00    +0.000 C 
ATOM     15  O   UNL     1       7.168   5.356  13.836  0.00  0.00    +0.000 OA
ATOM     16  N   UNL     1       5.913   3.842  15.016  0.00  0.00    +0.000 N 
ATOM     17  H   UNL     1       5.150   3.168  15.006  0.00  0.00    +0.000 HD
ENDBRANCH   5  16
ENDBRANCH   1  10
BRANCH   3  18
ATOM     18  N   UNL     1       1.384   9.489  18.890  0.00  0.00    +0.000 N 
ATOM     19  C   UNL     1       0.167   9.898  18.347  0.00  0.00    +0.000 C 
ATOM     20  O   UNL     1      -0.344   9.438  17.336  0.00  0.00    +0.000 OA
ATOM     21  H   UNL     1       1.755   9.925  19.738  0.00  0.00    +0.000 HD
BRANCH  19  22
ATOM     22  C   UNL     1      -0.527  11.021  19.143  0.00  0.00    +0.000 C 
ATOM     23  O   UNL     1      -1.329  11.719  18.540  0.00  0.00    +0.000 OA
ATOM     24  N   UNL     1      -0.139  11.106  20.480  0.00  0.00    +0.000 N 
ATOM     25  H   UNL     1       0.550  10.420  20.783  0.00  0.00    +0.000 HD
BRANCH  24  26
ATOM     26  C   UNL     1      -0.580  12.062  21.434  0.00  0.00    +0.000 A 
ATOM     27  C   UNL     1       0.107  13.247  21.686  0.00  0.00    +0.000 A 
ATOM     28  C   UNL     1      -0.338  14.150  22.657  0.00  0.00    +0.000 A 
ATOM     29  C   UNL     1      -1.487  13.896  23.414  0.00  0.00    +0.000 A 
ATOM     30  C   UNL     1      -1.891  14.899  24.461  0.00  0.00    +0.000 C 
ATOM     31  C   UNL     1      -2.207  12.711  23.173  0.00  0.00    +0.000 A 
ATOM     32  C   UNL     1      -3.444  12.355  23.958  0.00  0.00    +0.000 C 
ATOM     33  C   UNL     1      -1.746  11.810  22.174  0.00  0.00    +0.000 A 
ENDBRANCH  24  26
ENDBRANCH  19  22
ENDBRANCH   3  18
TORSDOF 5
ENDMDL
MODEL 8
REMARK VINA RESULT:      -7.6      1.375      1.721
REMARK  Name = 
REMARK  9 active torsions:
REMARK  status: ('A' for Active; 'I' for Inactive)
REMARK    1  A    between atoms: C_1  and  C_2
REMARK    2  A    between atoms: N_4  and  N_5
REMARK    3  A    between atoms: C_8  and  C_9
REMARK    4  A    between atoms: C_10  and  C_11
REMARK    5  A    between atoms: N_13  and  N_14
REMARK    6  A    between atoms: C_15  and  C_17
REMARK    7  A    between atoms: N_19  and  C_20
REMARK    8  A    between atoms: C_23  and  C_24
REMARK    9  A    between atoms: C_25  and  C_26
REMARK                            x       y       z     vdW  Elec       q    Type
REMARK                         _______ _______ _______ _____ _____    ______ ____
ROOT
ATOM      1  C   UNL     1       2.454   5.489  19.195  0.00  0.00    +0.000 C 
ATOM      2  O   UNL     1       1.387   5.004  19.574  0.00  0.00    +0.000 OA
ATOM      3  N   UNL     1       2.866   6.745  19.650  0.00  0.00    +0.000 N 
ATOM      4  H   UNL     1       3.738   7.165  19.338  0.00  0.00    +0.000 HD
ENDROOT
BRANCH   1  10
ATOM      5  N   UNL     1       6.236   4.224  15.879  0.00  0.00    +0.000 N 
ATOM      6  C   UNL     1       5.133   4.230  16.666  0.00  0.00    +0.000 A 
ATOM      7  N   UNL     1       4.222   3.287  16.692  0.00  0.00    +0.000 NA
ATOM      8  C   UNL     1       3.227   3.579  17.624  0.00  0.00    +0.000 A 
ATOM      9  C   UNL     1       2.171   2.545  17.811  0.00  0.00    +0.000 C 
ATOM     10  C   UNL     1       3.349   4.819  18.250  0.00  0.00    +0.000 A 
ATOM     11  S   UNL     1       4.829   5.540  17.736  0.00  0.00    +0.000 S 
ATOM     12  H   UNL     1       6.854   5.039  15.892  0.00  0.00    +0.000 HD
BRANCH   5  16
ATOM     13  C   UNL     1       6.748   3.520  12.262  0.00  0.00    +0.000 C 
ATOM     14  C   UNL     1       6.783   4.252  13.575  0.00  0.00    +0.000 C 
ATOM     15  O   UNL     1       7.227   5.393  13.688  0.00  0.00    +0.000 OA
ATOM     16  N   UNL     1       6.284   3.536  14.650  0.00  0.00    +0.000 N 
ATOM     17  H   UNL     1       5.646   2.749  14.549  0.00  0.00    +0.000 HD
ENDBRANCH   5  16
ENDBRANCH   1  10
BRANCH   3  18
ATOM     18  N   UNL     1       2.070   7.502  20.535  0.00  0.00    +0.000 N 
ATOM     19  C   UNL     1       1.396   8.634  20.078  0.00  0.00    +0.000 C 
ATOM     20  O   UNL     1       1.421   9.053  18.929  0.00  0.00    +0.000 OA
ATOM     21  H   UNL     1       2.008   7.212  21.514  0.00  0.00    +0.000 HD
BRANCH  19  22
ATOM     22  C   UNL     1       0.577   9.356  21.166  0.00  0.00    +0.000 C 
ATOM     23  O   UNL     1       0.684   8.942  22.311  0.00  0.00    +0.000 OA
ATOM     24  N   UNL     1      -0.206  10.410  20.695  0.00  0.00    +0.000 N 
ATOM     25  H   UNL     1      -0.147  10.589  19.695  0.00  0.00    +0.000 HD
BRANCH  24  26
ATOM     26  C   UNL     1      -1.087  11.221  21.460  0.00  0.00    +0.000 A 
ATOM     27  C   UNL     1      -1.196  11.116  22.844  0.00  0.00    +0.000 A 
ATOM     28  C   UNL     1      -2.098  11.908  23.562  0.00  0.00    +0.000 A 
ATOM     29  C   UNL     1      -2.927  12.833  22.916  0.00  0.00    +0.000 A 
ATOM     30  C   UNL     1      -3.894  13.631  23.749  0.00  0.00    +0.000 C 
ATOM     31  C   UNL     1      -2.829  12.968  21.519  0.00  0.00    +0.000 A 
ATOM     32  C   UNL     1      -3.699  13.928  20.747  0.00  0.00    +0.000 C 
ATOM     33  C   UNL     1      -1.898  12.163  20.808  0.00  0.00    +0.000 A 
ENDBRANCH  24  26
ENDBRANCH  19  22
ENDBRANCH   3  18
TORSDOF 5
ENDMDL
MODEL 9
REMARK VINA RESULT:      -7.6      1.403      1.781
REMARK  Name = 
REMARK  9 active torsions:
REMARK  status: ('A' for Active; 'I' for Inactive)
REMARK    1  A    between atoms: C_1  and  C_2
REMARK    2  A    between atoms: N_4  and  N_5
REMARK    3  A    between atoms: C_8  and  C_9
REMARK    4  A    between atoms: C_10  and  C_11
REMARK    5  A    between atoms: N_13  and  N_14
REMARK    6  A    between atoms: C_15  and  C_17
REMARK    7  A    between atoms: N_19  and  C_20
REMARK    8  A    between atoms: C_23  and  C_24
REMARK    9  A    between atoms: C_25  and  C_26
REMARK                            x       y       z     vdW  Elec       q    Type
REMARK                         _______ _______ _______ _____ _____    ______ ____
ROOT
ATOM      1  C   UNL     1       2.542   6.104  19.525  0.00  0.00    +0.000 C 
ATOM      2  O   UNL     1       2.056   5.634  20.555  0.00  0.00    +0.000 OA
ATOM      3  N   UNL     1       2.353   7.451  19.200  0.00  0.00    +0.000 N 
ATOM      4  H   UNL     1       2.737   7.852  18.348  0.00  0.00    +0.000 HD
ENDROOT
BRANCH   1  10
ATOM      5  N   UNL     1       6.089   4.288  16.207  0.00  0.00    +0.000 N 
ATOM      6  C   UNL     1       4.996   4.463  16.988  0.00  0.00    +0.000 A 
ATOM      7  N   UNL     1       3.940   3.685  16.990  0.00  0.00    +0.000 NA
ATOM      8  C   UNL     1       2.999   4.122  17.921  0.00  0.00    +0.000 A 
ATOM      9  C   UNL     1       1.784   3.276  18.082  0.00  0.00    +0.000 C 
ATOM     10  C   UNL     1       3.321   5.312  18.572  0.00  0.00    +0.000 A 
ATOM     11  S   UNL     1       4.905   5.785  18.082  0.00  0.00    +0.000 S 
ATOM     12  H   UNL     1       6.834   4.987  16.240  0.00  0.00    +0.000 HD
BRANCH   5  16
ATOM     13  C   UNL     1       6.485   3.587  12.575  0.00  0.00    +0.000 C 
ATOM     14  C   UNL     1       6.630   4.280  13.901  0.00  0.00    +0.000 C 
ATOM     15  O   UNL     1       7.237   5.340  14.034  0.00  0.00    +0.000 OA
ATOM     16  N   UNL     1       6.033   3.624  14.965  0.00  0.00    +0.000 N 
ATOM     17  H   UNL     1       5.286   2.941  14.852  0.00  0.00    +0.000 HD
ENDBRANCH   5  16
ENDBRANCH   1  10
BRANCH   3  18
ATOM     18  N   UNL     1       1.589   8.305  20.023  0.00  0.00    +0.000 N 
ATOM     19  C   UNL     1       0.860   9.352  19.461  0.00  0.00    +0.000 C 
ATOM     20  O   UNL     1       0.807   9.613  18.267  0.00  0.00    +0.000 OA
ATOM     21  H   UNL     1       1.593   8.148  21.033  0.00  0.00    +0.000 HD
BRANCH  19  22
ATOM     22  C   UNL     1       0.086  10.198  20.491  0.00  0.00    +0.000 C 
ATOM     23  O   UNL     1       0.051   9.783  21.640  0.00  0.00    +0.000 OA
ATOM     24  N   UNL     1      -0.496  11.353  19.969  0.00  0.00    +0.000 N 
ATOM     25  H   UNL     1      -0.343  11.512  18.976  0.00  0.00    +0.000 HD
BRANCH  24  26
ATOM     26  C   UNL     1      -1.295  12.294  20.672  0.00  0.00    +0.000 A 
ATOM     27  C   UNL     1      -2.638  12.511  20.375  0.00  0.00    +0.000 A 
ATOM     28  C   UNL     1      -3.387  13.470  21.065  0.00  0.00    +0.000 A 
ATOM     29  C   UNL     1      -2.815  14.249  22.077  0.00  0.00    +0.000 A 
ATOM     30  C   UNL     1      -3.672  15.282  22.758  0.00  0.00    +0.000 C 
ATOM     31  C   UNL     1      -1.462  14.042  22.406  0.00  0.00    +0.000 A 
ATOM     32  C   UNL     1      -0.766  14.852  23.470  0.00  0.00    +0.000 C 
ATOM     33  C   UNL     1      -0.720  13.055  21.701  0.00  0.00    +0.000 A 
ENDBRANCH  24  26
ENDBRANCH  19  22
ENDBRANCH   3  18
TORSDOF 5
ENDMDL
