MODEL 1
REMARK VINA RESULT:      -7.0      0.000      0.000
REMARK  Name = 
REMARK  3 active torsions:
REMARK  status: ('A' for Active; 'I' for Inactive)
REMARK    1  A    between atoms: S_2  and  C_4
REMARK    2  A    between atoms: S_2  and  N_10
REMARK    3  A    between atoms: N_13  and  C_14
REMARK                            x       y       z     vdW  Elec       q    Type
REMARK                         _______ _______ _______ _____ _____    ______ ____
ROOT
ATOM      1  N   UNL     1       3.193   4.714  18.561  0.00  0.00    +0.000 NA
ATOM      2  C   UNL     1       2.197   4.632  19.684  0.00  0.00    +0.000 C 
ATOM      3  C   UNL     1       2.234   5.859  20.626  0.00  0.00    +0.000 C 
ATOM      4  N   UNL     1       2.128   7.094  19.834  0.00  0.00    +0.000 N 
ATOM      5  C   UNL     1       3.131   7.228  18.761  0.00  0.00    +0.000 C 
ATOM      6  C   UNL     1       3.024   6.014  17.820  0.00  0.00    +0.000 C 
ENDROOT
BRANCH   4   7
ATOM      7  C   UNL     1       1.440   8.200  20.292  0.00  0.00    +0.000 A 
ATOM      8  C   UNL     1       0.971   8.309  21.608  0.00  0.00    +0.000 A 
ATOM      9  C   UNL     1       0.202   9.405  22.024  0.00  0.00    +0.000 A 
ATOM     10  C   UNL     1      -0.111  10.413  21.119  0.00  0.00    +0.000 A 
ATOM     11 CL   UNL     1      -1.083  11.743  21.613  0.00  0.00    +0.000 Cl
ATOM     12  C   UNL     1       0.347  10.342  19.812  0.00  0.00    +0.000 A 
ATOM     13  C   UNL     1       1.118   9.245  19.409  0.00  0.00    +0.000 A 
ENDBRANCH   4   7
BRANCH   1  15
ATOM     14  O   UNL     1       4.873   2.970  19.383  0.00  0.00    +0.000 OA
ATOM     15  S   UNL     1       4.814   4.347  18.937  0.00  0.00    +0.000 S 
ATOM     16  O   UNL     1       5.333   5.414  19.763  0.00  0.00    +0.000 OA
BRANCH  15  17
ATOM     17  C   UNL     1       5.634   4.451  17.369  0.00  0.00    +0.000 A 
ATOM     18  C   UNL     1       5.137   3.713  16.290  0.00  0.00    +0.000 A 
ATOM     19  C   UNL     1       5.747   3.832  15.043  0.00  0.00    +0.000 A 
ATOM     20  C   UNL     1       6.841   4.685  14.878  0.00  0.00    +0.000 A 
ATOM     21  C   UNL     1       7.331   5.420  15.958  0.00  0.00    +0.000 A 
ATOM     22  C   UNL     1       6.727   5.307  17.210  0.00  0.00    +0.000 A 
ENDBRANCH  15  17
ENDBRANCH   1  15
TORSDOF 3
ENDMDL
MODEL 2
REMARK VINA RESULT:      -6.9      0.228      1.048
REMARK  Name = 
REMARK  3 active torsions:
REMARK  status: ('A' for Active; 'I' for Inactive)
REMARK    1  A    between atoms: S_2  and  C_4
REMARK    2  A    between atoms: S_2  and  N_10
REMARK    3  A    between atoms: N_13  and  C_14
REMARK                            x       y       z     vdW  Elec       q    Type
REMARK                         _______ _______ _______ _____ _____    ______ ____
ROOT
ATOM      1  N   UNL     1       3.140   4.700  18.604  0.00  0.00    +0.000 NA
ATOM      2  C   UNL     1       2.162   4.612  19.741  0.00  0.00    +0.000 C 
ATOM      3  C   UNL     1       2.204   5.840  20.681  0.00  0.00    +0.000 C 
ATOM      4  N   UNL     1       2.078   7.074  19.889  0.00  0.00    +0.000 N 
ATOM      5  C   UNL     1       3.064   7.213  18.802  0.00  0.00    +0.000 C 
ATOM      6  C   UNL     1       2.952   5.998  17.864  0.00  0.00    +0.000 C 
ENDROOT
BRANCH   4   7
ATOM      7  C   UNL     1       1.390   8.175  20.356  0.00  0.00    +0.000 A 
ATOM      8  C   UNL     1       1.131   9.301  19.562  0.00  0.00    +0.000 A 
ATOM      9  C   UNL     1       0.505  10.440  20.086  0.00  0.00    +0.000 A 
ATOM     10  C   UNL     1       0.129  10.468  21.423  0.00  0.00    +0.000 A 
ATOM     11 CL   UNL     1      -0.608  11.876  22.082  0.00  0.00    +0.000 Cl
ATOM     12  C   UNL     1       0.359   9.368  22.235  0.00  0.00    +0.000 A 
ATOM     13  C   UNL     1       0.981   8.233  21.700  0.00  0.00    +0.000 A 
ENDBRANCH   4   7
BRANCH   1  15
ATOM     14  O   UNL     1       4.839   2.977  19.433  0.00  0.00    +0.000 OA
ATOM     15  S   UNL     1       4.769   4.344  18.956  0.00  0.00    +0.000 S 
ATOM     16  O   UNL     1       5.301   5.430  19.748  0.00  0.00    +0.000 OA
BRANCH  15  17
ATOM     17  C   UNL     1       5.559   4.413  17.371  0.00  0.00    +0.000 A 
ATOM     18  C   UNL     1       4.924   3.834  16.268  0.00  0.00    +0.000 A 
ATOM     19  C   UNL     1       5.516   3.932  15.011  0.00  0.00    +0.000 A 
ATOM     20  C   UNL     1       6.730   4.607  14.860  0.00  0.00    +0.000 A 
ATOM     21  C   UNL     1       7.358   5.184  15.964  0.00  0.00    +0.000 A 
ATOM     22  C   UNL     1       6.773   5.091  17.226  0.00  0.00    +0.000 A 
ENDBRANCH  15  17
ENDBRANCH   1  15
TORSDOF 3
ENDMDL
MODEL 3
REMARK VINA RESULT:      -6.9      0.135      1.041
REMARK  Name = 
REMARK  3 active torsions:
REMARK  status: ('A' for Active; 'I' for Inactive)
REMARK    1  A    between atoms: S_2  and  C_4
REMARK    2  A    between atoms: S_2  and  N_10
REMARK    3  A    between atoms: N_13  and  C_14
REMARK                            x       y       z     vdW  Elec       q    Type
REMARK                         _______ _______ _______ _____ _____    ______ ____
ROOT
ATOM      1  N   UNL     1       3.130   4.682  18.625  0.00  0.00    +0.000 NA
ATOM      2  C   UNL     1       2.175   4.638  19.784  0.00  0.00    +0.000 C 
ATOM      3  C   UNL     1       2.220   5.910  20.664  0.00  0.00    +0.000 C 
ATOM      4  N   UNL     1       2.064   7.103  19.816  0.00  0.00    +0.000 N 
ATOM      5  C   UNL     1       3.028   7.201  18.704  0.00  0.00    +0.000 C 
ATOM      6  C   UNL     1       2.913   5.941  17.828  0.00  0.00    +0.000 C 
ENDROOT
BRANCH   4   7
ATOM      7  C   UNL     1       1.372   8.218  20.243  0.00  0.00    +0.000 A 
ATOM      8  C   UNL     1       0.766   8.297  21.506  0.00  0.00    +0.000 A 
ATOM      9  C   UNL     1      -0.002   9.408  21.881  0.00  0.00    +0.000 A 
ATOM     10  C   UNL     1      -0.178  10.460  20.991  0.00  0.00    +0.000 A 
ATOM     11 CL   UNL     1      -1.148  11.810  21.433  0.00  0.00    +0.000 Cl
ATOM     12  C   UNL     1       0.417  10.419  19.739  0.00  0.00    +0.000 A 
ATOM     13  C   UNL     1       1.186   9.308  19.376  0.00  0.00    +0.000 A 
ENDBRANCH   4   7
BRANCH   1  15
ATOM     14  O   UNL     1       4.883   2.977  19.375  0.00  0.00    +0.000 OA
ATOM     15  S   UNL     1       4.770   4.362  18.962  0.00  0.00    +0.000 S 
ATOM     16  O   UNL     1       5.268   5.427  19.803  0.00  0.00    +0.000 OA
BRANCH  15  17
ATOM     17  C   UNL     1       5.556   4.528  17.382  0.00  0.00    +0.000 A 
ATOM     18  C   UNL     1       6.580   5.467  17.226  0.00  0.00    +0.000 A 
ATOM     19  C   UNL     1       7.236   5.565  16.001  0.00  0.00    +0.000 A 
ATOM     20  C   UNL     1       6.871   4.727  14.943  0.00  0.00    +0.000 A 
ATOM     21  C   UNL     1       5.850   3.791  15.106  0.00  0.00    +0.000 A 
ATOM     22  C   UNL     1       5.187   3.687  16.328  0.00  0.00    +0.000 A 
ENDBRANCH  15  17
ENDBRANCH   1  15
TORSDOF 3
ENDMDL
MODEL 4
REMARK VINA RESULT:      -6.9      0.217      1.471
REMARK  Name = 
REMARK  3 active torsions:
REMARK  status: ('A' for Active; 'I' for Inactive)
REMARK    1  A    between atoms: S_2  and  C_4
REMARK    2  A    between atoms: S_2  and  N_10
REMARK    3  A    between atoms: N_13  and  C_14
REMARK                            x       y       z     vdW  Elec       q    Type
REMARK                         _______ _______ _______ _____ _____    ______ ____
ROOT
ATOM      1  N   UNL     1       3.107   4.738  18.609  0.00  0.00    +0.000 NA
ATOM      2  C   UNL     1       2.140   4.655  19.757  0.00  0.00    +0.000 C 
ATOM      3  C   UNL     1       2.191   5.887  20.691  0.00  0.00    +0.000 C 
ATOM      4  N   UNL     1       2.056   7.118  19.895  0.00  0.00    +0.000 N 
ATOM      5  C   UNL     1       3.032   7.252  18.797  0.00  0.00    +0.000 C 
ATOM      6  C   UNL     1       2.911   6.033  17.866  0.00  0.00    +0.000 C 
ENDROOT
BRANCH   4   7
ATOM      7  C   UNL     1       1.372   8.221  20.364  0.00  0.00    +0.000 A 
ATOM      8  C   UNL     1       1.102   9.341  19.566  0.00  0.00    +0.000 A 
ATOM      9  C   UNL     1       0.481  10.483  20.091  0.00  0.00    +0.000 A 
ATOM     10  C   UNL     1       0.121  10.518  21.433  0.00  0.00    +0.000 A 
ATOM     11 CL   UNL     1      -0.610  11.928  22.092  0.00  0.00    +0.000 Cl
ATOM     12  C   UNL     1       0.364   9.423  22.248  0.00  0.00    +0.000 A 
ATOM     13  C   UNL     1       0.981   8.286  21.712  0.00  0.00    +0.000 A 
ENDBRANCH   4   7
BRANCH   1  15
ATOM     14  O   UNL     1       4.823   3.003  19.375  0.00  0.00    +0.000 OA
ATOM     15  S   UNL     1       4.740   4.385  18.947  0.00  0.00    +0.000 S 
ATOM     16  O   UNL     1       5.264   5.447  19.776  0.00  0.00    +0.000 OA
BRANCH  15  17
ATOM     17  C   UNL     1       5.526   4.517  17.364  0.00  0.00    +0.000 A 
ATOM     18  C   UNL     1       6.682   5.294  17.240  0.00  0.00    +0.000 A 
ATOM     19  C   UNL     1       7.333   5.359  16.010  0.00  0.00    +0.000 A 
ATOM     20  C   UNL     1       6.833   4.648  14.916  0.00  0.00    +0.000 A 
ATOM     21  C   UNL     1       5.680   3.873  15.046  0.00  0.00    +0.000 A 
ATOM     22  C   UNL     1       5.022   3.803  16.274  0.00  0.00    +0.000 A 
ENDBRANCH  15  17
ENDBRANCH   1  15
TORSDOF 3
ENDMDL
MODEL 5
REMARK VINA RESULT:      -6.9      2.104      3.136
REMARK  Name = 
REMARK  3 active torsions:
REMARK  status: ('A' for Active; 'I' for Inactive)
REMARK    1  A    between atoms: S_2  and  C_4
REMARK    2  A    between atoms: S_2  and  N_10
REMARK    3  A    between atoms: N_13  and  C_14
REMARK                            x       y       z     vdW  Elec       q    Type
REMARK                         _______ _______ _______ _____ _____    ______ ____
ROOT
ATOM      1  N   UNL     1       5.552   4.396  17.035  0.00  0.00    +0.000 NA
ATOM      2  C   UNL     1       5.329   4.392  18.521  0.00  0.00    +0.000 C 
ATOM      3  C   UNL     1       4.958   5.783  19.089  0.00  0.00    +0.000 C 
ATOM      4  N   UNL     1       3.831   6.343  18.325  0.00  0.00    +0.000 N 
ATOM      5  C   UNL     1       4.047   6.413  16.868  0.00  0.00    +0.000 C 
ATOM      6  C   UNL     1       4.363   5.002  16.339  0.00  0.00    +0.000 C 
ENDROOT
BRANCH   4   7
ATOM      7  C   UNL     1       2.848   7.103  18.925  0.00  0.00    +0.000 A 
ATOM      8  C   UNL     1       2.356   8.289  18.361  0.00  0.00    +0.000 A 
ATOM      9  C   UNL     1       1.418   9.086  19.032  0.00  0.00    +0.000 A 
ATOM     10  C   UNL     1       0.959   8.705  20.287  0.00  0.00    +0.000 A 
ATOM     11 CL   UNL     1      -0.165   9.695  21.131  0.00  0.00    +0.000 Cl
ATOM     12  C   UNL     1       1.416   7.532  20.869  0.00  0.00    +0.000 A 
ATOM     13  C   UNL     1       2.349   6.741  20.188  0.00  0.00    +0.000 A 
ENDBRANCH   4   7
BRANCH   1  15
ATOM     14  O   UNL     1       8.100   4.167  17.034  0.00  0.00    +0.000 OA
ATOM     15  S   UNL     1       7.048   4.996  16.480  0.00  0.00    +0.000 S 
ATOM     16  O   UNL     1       7.054   6.428  16.676  0.00  0.00    +0.000 OA
BRANCH  15  17
ATOM     17  C   UNL     1       6.985   4.706  14.732  0.00  0.00    +0.000 A 
ATOM     18  C   UNL     1       7.802   5.461  13.886  0.00  0.00    +0.000 A 
ATOM     19  C   UNL     1       7.795   5.200  12.517  0.00  0.00    +0.000 A 
ATOM     20  C   UNL     1       6.979   4.190  12.002  0.00  0.00    +0.000 A 
ATOM     21  C   UNL     1       6.166   3.439  12.852  0.00  0.00    +0.000 A 
ATOM     22  C   UNL     1       6.167   3.693  14.223  0.00  0.00    +0.000 A 
ENDBRANCH  15  17
ENDBRANCH   1  15
TORSDOF 3
ENDMDL
MODEL 6
REMARK VINA RESULT:      -6.7      2.134      2.996
REMARK  Name = 
REMARK  3 active torsions:
REMARK  status: ('A' for Active; 'I' for Inactive)
REMARK    1  A    between atoms: S_2  and  C_4
REMARK    2  A    between atoms: S_2  and  N_10
REMARK    3  A    between atoms: N_13  and  C_14
REMARK                            x       y       z     vdW  Elec       q    Type
REMARK                         _______ _______ _______ _____ _____    ______ ____
ROOT
ATOM      1  N   UNL     1       5.566   4.433  17.008  0.00  0.00    +0.000 NA
ATOM      2  C   UNL     1       5.355   4.416  18.496  0.00  0.00    +0.000 C 
ATOM      3  C   UNL     1       5.032   5.810  19.085  0.00  0.00    +0.000 C 
ATOM      4  N   UNL     1       3.918   6.416  18.338  0.00  0.00    +0.000 N 
ATOM      5  C   UNL     1       4.124   6.499  16.880  0.00  0.00    +0.000 C 
ATOM      6  C   UNL     1       4.391   5.086  16.330  0.00  0.00    +0.000 C 
ENDROOT
BRANCH   4   7
ATOM      7  C   UNL     1       2.964   7.199  18.956  0.00  0.00    +0.000 A 
ATOM      8  C   UNL     1       2.390   6.862  20.191  0.00  0.00    +0.000 A 
ATOM      9  C   UNL     1       1.363   7.630  20.755  0.00  0.00    +0.000 A 
ATOM     10  C   UNL     1       0.890   8.752  20.085  0.00  0.00    +0.000 A 
ATOM     11 CL   UNL     1      -0.395   9.679  20.755  0.00  0.00    +0.000 Cl
ATOM     12  C   UNL     1       1.442   9.120  18.867  0.00  0.00    +0.000 A 
ATOM     13  C   UNL     1       2.472   8.348  18.315  0.00  0.00    +0.000 A 
ENDBRANCH   4   7
BRANCH   1  15
ATOM     14  O   UNL     1       8.107   4.139  17.001  0.00  0.00    +0.000 OA
ATOM     15  S   UNL     1       7.075   4.993  16.448  0.00  0.00    +0.000 S 
ATOM     16  O   UNL     1       7.119   6.425  16.641  0.00  0.00    +0.000 OA
BRANCH  15  17
ATOM     17  C   UNL     1       7.000   4.701  14.701  0.00  0.00    +0.000 A 
ATOM     18  C   UNL     1       7.815   5.453  13.849  0.00  0.00    +0.000 A 
ATOM     19  C   UNL     1       7.798   5.191  12.481  0.00  0.00    +0.000 A 
ATOM     20  C   UNL     1       6.976   4.183  11.972  0.00  0.00    +0.000 A 
ATOM     21  C   UNL     1       6.166   3.435  12.827  0.00  0.00    +0.000 A 
ATOM     22  C   UNL     1       6.176   3.690  14.198  0.00  0.00    +0.000 A 
ENDBRANCH  15  17
ENDBRANCH   1  15
TORSDOF 3
ENDMDL
MODEL 7
REMARK VINA RESULT:      -6.7      4.564      9.072
REMARK  Name = 
REMARK  3 active torsions:
REMARK  status: ('A' for Active; 'I' for Inactive)
REMARK    1  A    between atoms: S_2  and  C_4
REMARK    2  A    between atoms: S_2  and  N_10
REMARK    3  A    between atoms: N_13  and  C_14
REMARK                            x       y       z     vdW  Elec       q    Type
REMARK                         _______ _______ _______ _____ _____    ______ ____
ROOT
ATOM      1  N   UNL     1      -0.730   9.863  20.995  0.00  0.00    +0.000 NA
ATOM      2  C   UNL     1      -0.329  10.065  19.561  0.00  0.00    +0.000 C 
ATOM      3  C   UNL     1       1.157   9.733  19.287  0.00  0.00    +0.000 C 
ATOM      4  N   UNL     1       1.465   8.388  19.801  0.00  0.00    +0.000 N 
ATOM      5  C   UNL     1       1.136   8.181  21.223  0.00  0.00    +0.000 C 
ATOM      6  C   UNL     1      -0.360   8.472  21.440  0.00  0.00    +0.000 C 
ENDROOT
BRANCH   4   7
ATOM      7  C   UNL     1       2.343   7.542  19.154  0.00  0.00    +0.000 A 
ATOM      8  C   UNL     1       2.756   6.318  19.698  0.00  0.00    +0.000 A 
ATOM      9  C   UNL     1       3.713   5.517  19.059  0.00  0.00    +0.000 A 
ATOM     10  C   UNL     1       4.276   5.937  17.860  0.00  0.00    +0.000 A 
ATOM     11 CL   UNL     1       5.476   4.977  17.089  0.00  0.00    +0.000 Cl
ATOM     12  C   UNL     1       3.882   7.138  17.288  0.00  0.00    +0.000 A 
ATOM     13  C   UNL     1       2.921   7.927  17.932  0.00  0.00    +0.000 A 
ENDBRANCH   4   7
BRANCH   1  15
ATOM     14  O   UNL     1       0.773  11.870  21.499  0.00  0.00    +0.000 OA
ATOM     15  S   UNL     1      -0.279  11.077  22.103  0.00  0.00    +0.000 S 
ATOM     16  O   UNL     1      -0.086  10.454  23.393  0.00  0.00    +0.000 OA
BRANCH  15  17
ATOM     17  C   UNL     1      -1.730  12.088  22.219  0.00  0.00    +0.000 A 
ATOM     18  C   UNL     1      -2.551  11.975  23.345  0.00  0.00    +0.000 A 
ATOM     19  C   UNL     1      -3.663  12.805  23.466  0.00  0.00    +0.000 A 
ATOM     20  C   UNL     1      -3.948  13.741  22.469  0.00  0.00    +0.000 A 
ATOM     21  C   UNL     1      -3.125  13.850  21.348  0.00  0.00    +0.000 A 
ATOM     22  C   UNL     1      -2.009  13.023  21.219  0.00  0.00    +0.000 A 
ENDBRANCH  15  17
ENDBRANCH   1  15
TORSDOF 3
ENDMDL
MODEL 8
REMARK VINA RESULT:      -6.7      2.137      2.825
REMARK  Name = 
REMARK  3 active torsions:
REMARK  status: ('A' for Active; 'I' for Inactive)
REMARK    1  A    between atoms: S_2  and  C_4
REMARK    2  A    between atoms: S_2  and  N_10
REMARK    3  A    between atoms: N_13  and  C_14
REMARK                            x       y       z     vdW  Elec       q    Type
REMARK                         _______ _______ _______ _____ _____    ______ ____
ROOT
ATOM      1  N   UNL     1       5.460   4.480  16.895  0.00  0.00    +0.000 NA
ATOM      2  C   UNL     1       5.222   4.380  18.376  0.00  0.00    +0.000 C 
ATOM      3  C   UNL     1       4.941   5.747  19.045  0.00  0.00    +0.000 C 
ATOM      4  N   UNL     1       3.863   6.439  18.320  0.00  0.00    +0.000 N 
ATOM      5  C   UNL     1       4.097   6.602  16.873  0.00  0.00    +0.000 C 
ATOM      6  C   UNL     1       4.321   5.216  16.241  0.00  0.00    +0.000 C 
ENDROOT
BRANCH   4   7
ATOM      7  C   UNL     1       2.927   7.218  18.971  0.00  0.00    +0.000 A 
ATOM      8  C   UNL     1       2.380   6.866  20.213  0.00  0.00    +0.000 A 
ATOM      9  C   UNL     1       1.369   7.631  20.811  0.00  0.00    +0.000 A 
ATOM     10  C   UNL     1       0.889   8.766  20.169  0.00  0.00    +0.000 A 
ATOM     11 CL   UNL     1      -0.375   9.690  20.880  0.00  0.00    +0.000 Cl
ATOM     12  C   UNL     1       1.416   9.149  18.944  0.00  0.00    +0.000 A 
ATOM     13  C   UNL     1       2.429   8.379  18.358  0.00  0.00    +0.000 A 
ENDBRANCH   4   7
BRANCH   1  15
ATOM     14  O   UNL     1       7.996   4.174  17.022  0.00  0.00    +0.000 OA
ATOM     15  S   UNL     1       6.997   5.016  16.393  0.00  0.00    +0.000 S 
ATOM     16  O   UNL     1       7.041   6.453  16.545  0.00  0.00    +0.000 OA
BRANCH  15  17
ATOM     17  C   UNL     1       7.006   4.671  14.654  0.00  0.00    +0.000 A 
ATOM     18  C   UNL     1       6.134   3.704  14.147  0.00  0.00    +0.000 A 
ATOM     19  C   UNL     1       6.100   3.467  12.774  0.00  0.00    +0.000 A 
ATOM     20  C   UNL     1       6.930   4.195  11.919  0.00  0.00    +0.000 A 
ATOM     21  C   UNL     1       7.798   5.160  12.431  0.00  0.00    +0.000 A 
ATOM     22  C   UNL     1       7.839   5.403  13.803  0.00  0.00    +0.000 A 
ENDBRANCH  15  17
ENDBRANCH   1  15
TORSDOF 3
ENDMDL
MODEL 9
REMARK VINA RESULT:      -6.7      4.027      4.924
REMARK  Name = 
REMARK  3 active torsions:
REMARK  status: ('A' for Active; 'I' for Inactive)
REMARK    1  A    between atoms: S_2  and  C_4
REMARK    2  A    between atoms: S_2  and  N_10
REMARK    3  A    between atoms: N_13  and  C_14
REMARK                            x       y       z     vdW  Elec       q    Type
REMARK                         _______ _______ _______ _____ _____    ______ ____
ROOT
ATOM      1  N   UNL     1       5.272   5.658  16.341  0.00  0.00    +0.000 NA
ATOM      2  C   UNL     1       4.315   4.514  16.162  0.00  0.00    +0.000 C 
ATOM      3  C   UNL     1       4.279   3.550  17.372  0.00  0.00    +0.000 C 
ATOM      4  N   UNL     1       4.056   4.317  18.608  0.00  0.00    +0.000 N 
ATOM      5  C   UNL     1       5.018   5.411  18.838  0.00  0.00    +0.000 C 
ATOM      6  C   UNL     1       4.983   6.371  17.635  0.00  0.00    +0.000 C 
ENDROOT
BRANCH   4   7
ATOM      7  C   UNL     1       3.296   3.822  19.649  0.00  0.00    +0.000 A 
ATOM      8  C   UNL     1       3.747   2.803  20.499  0.00  0.00    +0.000 A 
ATOM      9  C   UNL     1       2.922   2.260  21.494  0.00  0.00    +0.000 A 
ATOM     10  C   UNL     1       1.625   2.733  21.651  0.00  0.00    +0.000 A 
ATOM     11 CL   UNL     1       0.596   2.048  22.846  0.00  0.00    +0.000 Cl
ATOM     12  C   UNL     1       1.151   3.749  20.834  0.00  0.00    +0.000 A 
ATOM     13  C   UNL     1       1.985   4.287  19.846  0.00  0.00    +0.000 A 
ENDBRANCH   4   7
BRANCH   1  15
ATOM     14  O   UNL     1       7.282   4.183  16.909  0.00  0.00    +0.000 OA
ATOM     15  S   UNL     1       6.926   5.329  16.097  0.00  0.00    +0.000 S 
ATOM     16  O   UNL     1       7.651   6.573  16.217  0.00  0.00    +0.000 OA
BRANCH  15  17
ATOM     17  C   UNL     1       7.002   4.839  14.395  0.00  0.00    +0.000 A 
ATOM     18  C   UNL     1       6.201   3.781  13.954  0.00  0.00    +0.000 A 
ATOM     19  C   UNL     1       6.218   3.426  12.607  0.00  0.00    +0.000 A 
ATOM     20  C   UNL     1       7.027   4.128  11.710  0.00  0.00    +0.000 A 
ATOM     21  C   UNL     1       7.823   5.183  12.155  0.00  0.00    +0.000 A 
ATOM     22  C   UNL     1       7.813   5.545  13.502  0.00  0.00    +0.000 A 
ENDBRANCH  15  17
ENDBRANCH   1  15
TORSDOF 3
ENDMDL
