MODEL 1
REMARK VINA RESULT:      -8.5      0.000      0.000
REMARK  Name = 
REMARK  4 active torsions:
REMARK  status: ('A' for Active; 'I' for Inactive)
REMARK    1  A    between atoms: C_1  and  N_2
REMARK    2  A    between atoms: C_4  and  C_5
REMARK    3  A    between atoms: C_8  and  N_9
REMARK    4  A    between atoms: C_12  and  C_13
REMARK                            x       y       z     vdW  Elec       q    Type
REMARK                         _______ _______ _______ _____ _____    ______ ____
ROOT
ATOM      1  N   UNL     1       0.194  10.716  19.477  0.00  0.00    +0.000 N 
ATOM      2  C   UNL     1      -0.904  10.751  18.529  0.00  0.00    +0.000 C 
ATOM      3  C   UNL     1      -1.149  12.229  18.235  0.00  0.00    +0.000 C 
ATOM      4  C   UNL     1      -1.752  12.934  19.473  0.00  0.00    +0.000 C 
ATOM      5  C   UNL     1      -0.604  12.849  20.525  0.00  0.00    +0.000 C 
ATOM      6  C   UNL     1       0.018  11.440  20.744  0.00  0.00    +0.000 C 
ENDROOT
BRANCH   4   7
ATOM      7  C   UNL     1      -3.085  12.278  19.921  0.00  0.00    +0.000 C 
ATOM      8  C   UNL     1      -3.990  12.697  21.092  0.00  0.00    +0.000 A 
ATOM      9  C   UNL     1      -3.748  13.272  22.317  0.00  0.00    +0.000 A 
ATOM     10  F   UNL     1      -2.510  13.594  22.700  0.00  0.00    +0.000 F 
ATOM     11  C   UNL     1      -4.822  13.517  23.189  0.00  0.00    +0.000 A 
ATOM     12  C   UNL     1      -6.144  13.178  22.838  0.00  0.00    +0.000 A 
ATOM     13  C   UNL     1      -6.406  12.546  21.628  0.00  0.00    +0.000 A 
ATOM     14  C   UNL     1      -5.328  12.296  20.802  0.00  0.00    +0.000 A 
ATOM     15  C   UNL     1      -5.327  11.778  19.475  0.00  0.00    +0.000 A 
ATOM     16  C   UNL     1      -5.846  10.862  18.607  0.00  0.00    +0.000 A 
ATOM     17  N   UNL     1      -5.247  11.044  17.370  0.00  0.00    +0.000 NA
ATOM     18  C   UNL     1      -4.294  11.928  17.570  0.00  0.00    +0.000 A 
ATOM     19  N   UNL     1      -4.128  12.094  18.894  0.00  0.00    +0.000 N 
ENDBRANCH   4   7
BRANCH   1  23
ATOM     20  C   UNL     1       2.366   7.105  19.147  0.00  0.00    +0.000 A 
ATOM     21  C   UNL     1       2.233   7.976  18.064  0.00  0.00    +0.000 A 
ATOM     22  C   UNL     1       1.575   9.205  18.208  0.00  0.00    +0.000 A 
ATOM     23  C   UNL     1       0.998   9.581  19.424  0.00  0.00    +0.000 A 
ATOM     24  C   UNL     1       1.145   8.699  20.508  0.00  0.00    +0.000 A 
ATOM     25  C   UNL     1       1.815   7.476  20.374  0.00  0.00    +0.000 A 
BRANCH  20  29
ATOM     26  C   UNL     1       3.338   2.314  18.443  0.00  0.00    +0.000 C 
ATOM     27  N   UNL     1       3.498   3.728  18.663  0.00  0.00    +0.000 N 
ATOM     28  C   UNL     1       2.549   4.683  18.515  0.00  0.00    +0.000 A 
ATOM     29  C   UNL     1       3.095   5.860  18.991  0.00  0.00    +0.000 A 
ATOM     30  C   UNL     1       4.419   5.497  19.339  0.00  0.00    +0.000 A 
ATOM     31  N   UNL     1       4.671   4.203  19.129  0.00  0.00    +0.000 NA
ENDBRANCH  20  29
ENDBRANCH   1  23
TORSDOF 3
ENDMDL
MODEL 2
REMARK VINA RESULT:      -8.4      1.268      1.806
REMARK  Name = 
REMARK  4 active torsions:
REMARK  status: ('A' for Active; 'I' for Inactive)
REMARK    1  A    between atoms: C_1  and  N_2
REMARK    2  A    between atoms: C_4  and  C_5
REMARK    3  A    between atoms: C_8  and  N_9
REMARK    4  A    between atoms: C_12  and  C_13
REMARK                            x       y       z     vdW  Elec       q    Type
REMARK                         _______ _______ _______ _____ _____    ______ ____
ROOT
ATOM      1  N   UNL     1       0.343  10.111  19.638  0.00  0.00    +0.000 N 
ATOM      2  C   UNL     1      -0.147  10.568  18.352  0.00  0.00    +0.000 C 
ATOM      3  C   UNL     1      -0.379  12.070  18.508  0.00  0.00    +0.000 C 
ATOM      4  C   UNL     1      -1.582  12.337  19.442  0.00  0.00    +0.000 C 
ATOM      5  C   UNL     1      -1.094  11.791  20.819  0.00  0.00    +0.000 C 
ATOM      6  C   UNL     1      -0.508  10.350  20.812  0.00  0.00    +0.000 C 
ENDROOT
BRANCH   4   7
ATOM      7  C   UNL     1      -2.884  11.676  18.913  0.00  0.00    +0.000 C 
ATOM      8  C   UNL     1      -4.331  11.994  19.325  0.00  0.00    +0.000 A 
ATOM      9  C   UNL     1      -4.910  12.428  20.494  0.00  0.00    +0.000 A 
ATOM     10  F   UNL     1      -4.177  12.671  21.583  0.00  0.00    +0.000 F 
ATOM     11  C   UNL     1      -6.302  12.609  20.548  0.00  0.00    +0.000 A 
ATOM     12  C   UNL     1      -7.121  12.348  19.432  0.00  0.00    +0.000 A 
ATOM     13  C   UNL     1      -6.565  11.857  18.256  0.00  0.00    +0.000 A 
ATOM     14  C   UNL     1      -5.197  11.665  18.240  0.00  0.00    +0.000 A 
ATOM     15  C   UNL     1      -4.366  11.293  17.144  0.00  0.00    +0.000 A 
ATOM     16  C   UNL     1      -4.209  10.491  16.052  0.00  0.00    +0.000 A 
ATOM     17  N   UNL     1      -2.989  10.786  15.464  0.00  0.00    +0.000 NA
ATOM     18  C   UNL     1      -2.394  11.615  16.293  0.00  0.00    +0.000 A 
ATOM     19  N   UNL     1      -3.076  11.634  17.452  0.00  0.00    +0.000 N 
ENDBRANCH   4   7
BRANCH   1  23
ATOM     20  C   UNL     1       2.660   6.588  19.333  0.00  0.00    +0.000 A 
ATOM     21  C   UNL     1       2.555   7.485  18.268  0.00  0.00    +0.000 A 
ATOM     22  C   UNL     1       1.846   8.686  18.408  0.00  0.00    +0.000 A 
ATOM     23  C   UNL     1       1.190   9.006  19.600  0.00  0.00    +0.000 A 
ATOM     24  C   UNL     1       1.308   8.099  20.666  0.00  0.00    +0.000 A 
ATOM     25  C   UNL     1       2.029   6.904  20.537  0.00  0.00    +0.000 A 
BRANCH  20  29
ATOM     26  C   UNL     1       3.833   1.816  18.834  0.00  0.00    +0.000 C 
ATOM     27  N   UNL     1       3.932   3.248  18.951  0.00  0.00    +0.000 N 
ATOM     28  C   UNL     1       2.920   4.142  18.836  0.00  0.00    +0.000 A 
ATOM     29  C   UNL     1       3.440   5.374  19.184  0.00  0.00    +0.000 A 
ATOM     30  C   UNL     1       4.809   5.102  19.425  0.00  0.00    +0.000 A 
ATOM     31  N   UNL     1       5.114   3.812  19.271  0.00  0.00    +0.000 NA
ENDBRANCH  20  29
ENDBRANCH   1  23
TORSDOF 3
ENDMDL
MODEL 3
REMARK VINA RESULT:      -8.3      0.883      1.297
REMARK  Name = 
REMARK  4 active torsions:
REMARK  status: ('A' for Active; 'I' for Inactive)
REMARK    1  A    between atoms: C_1  and  N_2
REMARK    2  A    between atoms: C_4  and  C_5
REMARK    3  A    between atoms: C_8  and  N_9
REMARK    4  A    between atoms: C_12  and  C_13
REMARK                            x       y       z     vdW  Elec       q    Type
REMARK                         _______ _______ _______ _____ _____    ______ ____
ROOT
ATOM      1  N   UNL     1      -0.261  10.824  19.570  0.00  0.00    +0.000 N 
ATOM      2  C   UNL     1      -1.372  11.013  18.657  0.00  0.00    +0.000 C 
ATOM      3  C   UNL     1      -1.597  12.522  18.586  0.00  0.00    +0.000 C 
ATOM      4  C   UNL     1      -2.168  13.047  19.924  0.00  0.00    +0.000 C 
ATOM      5  C   UNL     1      -1.007  12.792  20.933  0.00  0.00    +0.000 C 
ATOM      6  C   UNL     1      -0.406  11.357  20.933  0.00  0.00    +0.000 C 
ENDROOT
BRANCH   4   7
ATOM      7  C   UNL     1      -3.506  12.352  20.295  0.00  0.00    +0.000 C 
ATOM      8  C   UNL     1      -4.450  12.696  21.460  0.00  0.00    +0.000 A 
ATOM      9  C   UNL     1      -4.252  13.205  22.722  0.00  0.00    +0.000 A 
ATOM     10  F   UNL     1      -3.030  13.519  23.159  0.00  0.00    +0.000 F 
ATOM     11  C   UNL     1      -5.354  13.389  23.573  0.00  0.00    +0.000 A 
ATOM     12  C   UNL     1      -6.660  13.055  23.164  0.00  0.00    +0.000 A 
ATOM     13  C   UNL     1      -6.879  12.488  21.913  0.00  0.00    +0.000 A 
ATOM     14  C   UNL     1      -5.773  12.296  21.108  0.00  0.00    +0.000 A 
ATOM     15  C   UNL     1      -5.727  11.853  19.755  0.00  0.00    +0.000 A 
ATOM     16  C   UNL     1      -6.208  10.981  18.823  0.00  0.00    +0.000 A 
ATOM     17  N   UNL     1      -5.575  11.238  17.616  0.00  0.00    +0.000 NA
ATOM     18  C   UNL     1      -4.641  12.120  17.893  0.00  0.00    +0.000 A 
ATOM     19  N   UNL     1      -4.516  12.214  19.229  0.00  0.00    +0.000 N 
ENDBRANCH   4   7
BRANCH   1  23
ATOM     20  C   UNL     1       2.393   7.582  19.015  0.00  0.00    +0.000 A 
ATOM     21  C   UNL     1       1.827   7.854  20.262  0.00  0.00    +0.000 A 
ATOM     22  C   UNL     1       0.890   8.885  20.416  0.00  0.00    +0.000 A 
ATOM     23  C   UNL     1       0.523   9.697  19.339  0.00  0.00    +0.000 A 
ATOM     24  C   UNL     1       1.094   9.409  18.089  0.00  0.00    +0.000 A 
ATOM     25  C   UNL     1       2.019   8.369  17.926  0.00  0.00    +0.000 A 
BRANCH  20  29
ATOM     26  C   UNL     1       5.538   4.359  16.986  0.00  0.00    +0.000 C 
ATOM     27  N   UNL     1       4.726   5.067  17.942  0.00  0.00    +0.000 N 
ATOM     28  C   UNL     1       4.126   6.268  17.762  0.00  0.00    +0.000 A 
ATOM     29  C   UNL     1       3.323   6.478  18.867  0.00  0.00    +0.000 A 
ATOM     30  C   UNL     1       3.582   5.351  19.686  0.00  0.00    +0.000 A 
ATOM     31  N   UNL     1       4.445   4.498  19.131  0.00  0.00    +0.000 NA
ENDBRANCH  20  29
ENDBRANCH   1  23
TORSDOF 3
ENDMDL
MODEL 4
REMARK VINA RESULT:      -8.3      0.990      1.443
REMARK  Name = 
REMARK  4 active torsions:
REMARK  status: ('A' for Active; 'I' for Inactive)
REMARK    1  A    between atoms: C_1  and  N_2
REMARK    2  A    between atoms: C_4  and  C_5
REMARK    3  A    between atoms: C_8  and  N_9
REMARK    4  A    between atoms: C_12  and  C_13
REMARK                            x       y       z     vdW  Elec       q    Type
REMARK                         _______ _______ _______ _____ _____    ______ ____
ROOT
ATOM      1  N   UNL     1       0.372  10.809  19.329  0.00  0.00    +0.000 N 
ATOM      2  C   UNL     1      -1.002  10.690  18.879  0.00  0.00    +0.000 C 
ATOM      3  C   UNL     1      -1.375  12.062  18.322  0.00  0.00    +0.000 C 
ATOM      4  C   UNL     1      -1.484  13.098  19.464  0.00  0.00    +0.000 C 
ATOM      5  C   UNL     1      -0.023  13.192  20.002  0.00  0.00    +0.000 C 
ATOM      6  C   UNL     1       0.668  11.838  20.336  0.00  0.00    +0.000 C 
ENDROOT
BRANCH   4   7
ATOM      7  C   UNL     1      -2.535  12.681  20.527  0.00  0.00    +0.000 C 
ATOM      8  C   UNL     1      -2.687  13.221  21.959  0.00  0.00    +0.000 A 
ATOM      9  C   UNL     1      -1.797  13.705  22.888  0.00  0.00    +0.000 A 
ATOM     10  F   UNL     1      -0.491  13.787  22.621  0.00  0.00    +0.000 F 
ATOM     11  C   UNL     1      -2.267  14.113  24.147  0.00  0.00    +0.000 A 
ATOM     12  C   UNL     1      -3.633  14.029  24.484  0.00  0.00    +0.000 A 
ATOM     13  C   UNL     1      -4.544  13.492  23.581  0.00  0.00    +0.000 A 
ATOM     14  C   UNL     1      -4.048  13.076  22.360  0.00  0.00    +0.000 A 
ATOM     15  C   UNL     1      -4.768  12.608  21.224  0.00  0.00    +0.000 A 
ATOM     16  C   UNL     1      -5.786  11.827  20.759  0.00  0.00    +0.000 A 
ATOM     17  N   UNL     1      -5.826  11.935  19.378  0.00  0.00    +0.000 NA
ATOM     18  C   UNL     1      -4.756  12.626  19.051  0.00  0.00    +0.000 A 
ATOM     19  N   UNL     1      -3.955  12.720  20.128  0.00  0.00    +0.000 N 
ENDBRANCH   4   7
BRANCH   1  23
ATOM     20  C   UNL     1       2.380   7.104  19.011  0.00  0.00    +0.000 A 
ATOM     21  C   UNL     1       2.299   7.983  17.929  0.00  0.00    +0.000 A 
ATOM     22  C   UNL     1       1.696   9.241  18.070  0.00  0.00    +0.000 A 
ATOM     23  C   UNL     1       1.124   9.639  19.281  0.00  0.00    +0.000 A 
ATOM     24  C   UNL     1       1.218   8.748  20.363  0.00  0.00    +0.000 A 
ATOM     25  C   UNL     1       1.833   7.496  20.233  0.00  0.00    +0.000 A 
BRANCH  20  29
ATOM     26  C   UNL     1       3.190   2.338  17.997  0.00  0.00    +0.000 C 
ATOM     27  N   UNL     1       3.387   3.710  18.388  0.00  0.00    +0.000 N 
ATOM     28  C   UNL     1       2.538   4.743  18.173  0.00  0.00    +0.000 A 
ATOM     29  C   UNL     1       3.052   5.827  18.859  0.00  0.00    +0.000 A 
ATOM     30  C   UNL     1       4.266   5.334  19.398  0.00  0.00    +0.000 A 
ATOM     31  N   UNL     1       4.478   4.051  19.103  0.00  0.00    +0.000 NA
ENDBRANCH  20  29
ENDBRANCH   1  23
TORSDOF 3
ENDMDL
MODEL 5
REMARK VINA RESULT:      -8.2      0.515      1.003
REMARK  Name = 
REMARK  4 active torsions:
REMARK  status: ('A' for Active; 'I' for Inactive)
REMARK    1  A    between atoms: C_1  and  N_2
REMARK    2  A    between atoms: C_4  and  C_5
REMARK    3  A    between atoms: C_8  and  N_9
REMARK    4  A    between atoms: C_12  and  C_13
REMARK                            x       y       z     vdW  Elec       q    Type
REMARK                         _______ _______ _______ _____ _____    ______ ____
ROOT
ATOM      1  N   UNL     1       0.145  10.430  19.478  0.00  0.00    +0.000 N 
ATOM      2  C   UNL     1      -0.936  10.622  18.531  0.00  0.00    +0.000 C 
ATOM      3  C   UNL     1      -1.064  12.134  18.351  0.00  0.00    +0.000 C 
ATOM      4  C   UNL     1      -1.624  12.785  19.637  0.00  0.00    +0.000 C 
ATOM      5  C   UNL     1      -0.498  12.530  20.686  0.00  0.00    +0.000 C 
ATOM      6  C   UNL     1       0.011  11.064  20.798  0.00  0.00    +0.000 C 
ENDROOT
BRANCH   4   7
ATOM      7  C   UNL     1      -3.009  12.201  20.026  0.00  0.00    +0.000 C 
ATOM      8  C   UNL     1      -3.938  12.666  21.161  0.00  0.00    +0.000 A 
ATOM      9  C   UNL     1      -3.716  13.223  22.399  0.00  0.00    +0.000 A 
ATOM     10  F   UNL     1      -2.479  13.475  22.834  0.00  0.00    +0.000 F 
ATOM     11  C   UNL     1      -4.811  13.523  23.226  0.00  0.00    +0.000 A 
ATOM     12  C   UNL     1      -6.133  13.258  22.819  0.00  0.00    +0.000 A 
ATOM     13  C   UNL     1      -6.379  12.645  21.595  0.00  0.00    +0.000 A 
ATOM     14  C   UNL     1      -5.282  12.339  20.814  0.00  0.00    +0.000 A 
ATOM     15  C   UNL     1      -5.255  11.826  19.485  0.00  0.00    +0.000 A 
ATOM     16  C   UNL     1      -5.785  10.943  18.591  0.00  0.00    +0.000 A 
ATOM     17  N   UNL     1      -5.126  11.095  17.381  0.00  0.00    +0.000 NA
ATOM     18  C   UNL     1      -4.136  11.926  17.625  0.00  0.00    +0.000 A 
ATOM     19  N   UNL     1      -4.017  12.078  18.956  0.00  0.00    +0.000 N 
ENDBRANCH   4   7
BRANCH   1  23
ATOM     20  C   UNL     1       2.588   6.988  19.237  0.00  0.00    +0.000 A 
ATOM     21  C   UNL     1       1.918   7.325  20.415  0.00  0.00    +0.000 A 
ATOM     22  C   UNL     1       1.052   8.426  20.459  0.00  0.00    +0.000 A 
ATOM     23  C   UNL     1       0.861   9.243  19.342  0.00  0.00    +0.000 A 
ATOM     24  C   UNL     1       1.535   8.890  18.161  0.00  0.00    +0.000 A 
ATOM     25  C   UNL     1       2.390   7.782  18.106  0.00  0.00    +0.000 A 
BRANCH  20  29
ATOM     26  C   UNL     1       4.296   2.421  20.021  0.00  0.00    +0.000 C 
ATOM     27  N   UNL     1       4.171   3.777  19.552  0.00  0.00    +0.000 N 
ATOM     28  C   UNL     1       3.059   4.550  19.600  0.00  0.00    +0.000 A 
ATOM     29  C   UNL     1       3.441   5.816  19.198  0.00  0.00    +0.000 A 
ATOM     30  C   UNL     1       4.809   5.661  18.863  0.00  0.00    +0.000 A 
ATOM     31  N   UNL     1       5.252   4.418  19.066  0.00  0.00    +0.000 NA
ENDBRANCH  20  29
ENDBRANCH   1  23
TORSDOF 3
ENDMDL
MODEL 6
REMARK VINA RESULT:      -8.2      1.268      1.994
REMARK  Name = 
REMARK  4 active torsions:
REMARK  status: ('A' for Active; 'I' for Inactive)
REMARK    1  A    between atoms: C_1  and  N_2
REMARK    2  A    between atoms: C_4  and  C_5
REMARK    3  A    between atoms: C_8  and  N_9
REMARK    4  A    between atoms: C_12  and  C_13
REMARK                            x       y       z     vdW  Elec       q    Type
REMARK                         _______ _______ _______ _____ _____    ______ ____
ROOT
ATOM      1  N   UNL     1       0.373  10.651  19.290  0.00  0.00    +0.000 N 
ATOM      2  C   UNL     1      -1.034  10.671  18.937  0.00  0.00    +0.000 C 
ATOM      3  C   UNL     1      -1.304  12.073  18.395  0.00  0.00    +0.000 C 
ATOM      4  C   UNL     1      -1.228  13.116  19.534  0.00  0.00    +0.000 C 
ATOM      5  C   UNL     1       0.268  13.062  19.969  0.00  0.00    +0.000 C 
ATOM      6  C   UNL     1       0.841  11.646  20.266  0.00  0.00    +0.000 C 
ENDROOT
BRANCH   4   7
ATOM      7  C   UNL     1      -2.240  12.808  20.671  0.00  0.00    +0.000 C 
ATOM      8  C   UNL     1      -2.291  13.432  22.076  0.00  0.00    +0.000 A 
ATOM      9  C   UNL     1      -1.332  13.921  22.930  0.00  0.00    +0.000 A 
ATOM     10  F   UNL     1      -0.040  13.925  22.594  0.00  0.00    +0.000 F 
ATOM     11  C   UNL     1      -1.716  14.419  24.186  0.00  0.00    +0.000 A 
ATOM     12  C   UNL     1      -3.065  14.420  24.595  0.00  0.00    +0.000 A 
ATOM     13  C   UNL     1      -4.046  13.880  23.770  0.00  0.00    +0.000 A 
ATOM     14  C   UNL     1      -3.635  13.375  22.552  0.00  0.00    +0.000 A 
ATOM     15  C   UNL     1      -4.434  12.882  21.481  0.00  0.00    +0.000 A 
ATOM     16  C   UNL     1      -5.510  12.128  21.113  0.00  0.00    +0.000 A 
ATOM     17  N   UNL     1      -5.617  12.163  19.731  0.00  0.00    +0.000 NA
ATOM     18  C   UNL     1      -4.535  12.783  19.313  0.00  0.00    +0.000 A 
ATOM     19  N   UNL     1      -3.675  12.895  20.341  0.00  0.00    +0.000 N 
ENDBRANCH   4   7
BRANCH   1  23
ATOM     20  C   UNL     1       2.562   7.037  19.165  0.00  0.00    +0.000 A 
ATOM     21  C   UNL     1       1.989   7.501  20.351  0.00  0.00    +0.000 A 
ATOM     22  C   UNL     1       1.203   8.661  20.363  0.00  0.00    +0.000 A 
ATOM     23  C   UNL     1       0.998   9.410  19.201  0.00  0.00    +0.000 A 
ATOM     24  C   UNL     1       1.573   8.929  18.013  0.00  0.00    +0.000 A 
ATOM     25  C   UNL     1       2.348   7.762  17.992  0.00  0.00    +0.000 A 
BRANCH  20  29
ATOM     26  C   UNL     1       3.963   2.398  20.119  0.00  0.00    +0.000 C 
ATOM     27  N   UNL     1       3.923   3.739  19.594  0.00  0.00    +0.000 N 
ATOM     28  C   UNL     1       2.869   4.589  19.624  0.00  0.00    +0.000 A 
ATOM     29  C   UNL     1       3.331   5.807  19.163  0.00  0.00    +0.000 A 
ATOM     30  C   UNL     1       4.679   5.543  18.816  0.00  0.00    +0.000 A 
ATOM     31  N   UNL     1       5.038   4.282  19.065  0.00  0.00    +0.000 NA
ENDBRANCH  20  29
ENDBRANCH   1  23
TORSDOF 3
ENDMDL
MODEL 7
REMARK VINA RESULT:      -8.0      2.157      3.408
REMARK  Name = 
REMARK  4 active torsions:
REMARK  status: ('A' for Active; 'I' for Inactive)
REMARK    1  A    between atoms: C_1  and  N_2
REMARK    2  A    between atoms: C_4  and  C_5
REMARK    3  A    between atoms: C_8  and  N_9
REMARK    4  A    between atoms: C_12  and  C_13
REMARK                            x       y       z     vdW  Elec       q    Type
REMARK                         _______ _______ _______ _____ _____    ______ ____
ROOT
ATOM      1  N   UNL     1       0.550  10.660  19.203  0.00  0.00    +0.000 N 
ATOM      2  C   UNL     1      -0.738  10.546  19.860  0.00  0.00    +0.000 C 
ATOM      3  C   UNL     1      -1.641  11.575  19.182  0.00  0.00    +0.000 C 
ATOM      4  C   UNL     1      -1.199  13.010  19.554  0.00  0.00    +0.000 C 
ATOM      5  C   UNL     1       0.215  13.127  18.907  0.00  0.00    +0.000 C 
ATOM      6  C   UNL     1       1.209  11.974  19.228  0.00  0.00    +0.000 C 
ENDROOT
BRANCH   4   7
ATOM      7  C   UNL     1      -1.227  13.245  21.088  0.00  0.00    +0.000 C 
ATOM      8  C   UNL     1      -0.594  14.408  21.870  0.00  0.00    +0.000 A 
ATOM      9  C   UNL     1       0.523  15.187  21.672  0.00  0.00    +0.000 A 
ATOM     10  F   UNL     1       1.314  15.008  20.612  0.00  0.00    +0.000 F 
ATOM     11  C   UNL     1       0.843  16.183  22.609  0.00  0.00    +0.000 A 
ATOM     12  C   UNL     1       0.050  16.397  23.754  0.00  0.00    +0.000 A 
ATOM     13  C   UNL     1      -1.052  15.587  24.003  0.00  0.00    +0.000 A 
ATOM     14  C   UNL     1      -1.329  14.600  23.078  0.00  0.00    +0.000 A 
ATOM     15  C   UNL     1      -2.449  13.722  23.025  0.00  0.00    +0.000 A 
ATOM     16  C   UNL     1      -3.300  12.915  23.722  0.00  0.00    +0.000 A 
ATOM     17  N   UNL     1      -4.207  12.362  22.831  0.00  0.00    +0.000 NA
ATOM     18  C   UNL     1      -3.781  12.712  21.637  0.00  0.00    +0.000 A 
ATOM     19  N   UNL     1      -2.543  13.226  21.752  0.00  0.00    +0.000 N 
ENDBRANCH   4   7
BRANCH   1  23
ATOM     20  C   UNL     1       2.597   6.975  18.897  0.00  0.00    +0.000 A 
ATOM     21  C   UNL     1       2.569   7.882  17.836  0.00  0.00    +0.000 A 
ATOM     22  C   UNL     1       1.951   9.132  17.977  0.00  0.00    +0.000 A 
ATOM     23  C   UNL     1       1.311   9.495  19.166  0.00  0.00    +0.000 A 
ATOM     24  C   UNL     1       1.353   8.576  20.228  0.00  0.00    +0.000 A 
ATOM     25  C   UNL     1       1.982   7.332  20.098  0.00  0.00    +0.000 A 
BRANCH  20  29
ATOM     26  C   UNL     1       3.448   2.198  17.973  0.00  0.00    +0.000 C 
ATOM     27  N   UNL     1       3.637   3.584  18.319  0.00  0.00    +0.000 N 
ATOM     28  C   UNL     1       2.761   4.596  18.115  0.00  0.00    +0.000 A 
ATOM     29  C   UNL     1       3.285   5.706  18.748  0.00  0.00    +0.000 A 
ATOM     30  C   UNL     1       4.531   5.250  19.244  0.00  0.00    +0.000 A 
ATOM     31  N   UNL     1       4.753   3.962  18.973  0.00  0.00    +0.000 NA
ENDBRANCH  20  29
ENDBRANCH   1  23
TORSDOF 3
ENDMDL
MODEL 8
REMARK VINA RESULT:      -7.9      2.205      3.612
REMARK  Name = 
REMARK  4 active torsions:
REMARK  status: ('A' for Active; 'I' for Inactive)
REMARK    1  A    between atoms: C_1  and  N_2
REMARK    2  A    between atoms: C_4  and  C_5
REMARK    3  A    between atoms: C_8  and  N_9
REMARK    4  A    between atoms: C_12  and  C_13
REMARK                            x       y       z     vdW  Elec       q    Type
REMARK                         _______ _______ _______ _____ _____    ______ ____
ROOT
ATOM      1  N   UNL     1       0.584  10.524  18.920  0.00  0.00    +0.000 N 
ATOM      2  C   UNL     1      -0.708  10.519  19.579  0.00  0.00    +0.000 C 
ATOM      3  C   UNL     1      -1.523  11.618  18.899  0.00  0.00    +0.000 C 
ATOM      4  C   UNL     1      -0.963  13.012  19.266  0.00  0.00    +0.000 C 
ATOM      5  C   UNL     1       0.454  13.009  18.617  0.00  0.00    +0.000 C 
ATOM      6  C   UNL     1       1.350  11.779  18.940  0.00  0.00    +0.000 C 
ENDROOT
BRANCH   4   7
ATOM      7  C   UNL     1      -0.969  13.253  20.800  0.00  0.00    +0.000 C 
ATOM      8  C   UNL     1      -0.331  14.423  21.568  0.00  0.00    +0.000 A 
ATOM      9  C   UNL     1       0.777  15.206  21.350  0.00  0.00    +0.000 A 
ATOM     10  F   UNL     1       1.554  15.028  20.279  0.00  0.00    +0.000 F 
ATOM     11  C   UNL     1       1.107  16.208  22.278  0.00  0.00    +0.000 A 
ATOM     12  C   UNL     1       0.330  16.422  23.434  0.00  0.00    +0.000 A 
ATOM     13  C   UNL     1      -0.764  15.607  23.703  0.00  0.00    +0.000 A 
ATOM     14  C   UNL     1      -1.049  14.615  22.786  0.00  0.00    +0.000 A 
ATOM     15  C   UNL     1      -2.165  13.730  22.754  0.00  0.00    +0.000 A 
ATOM     16  C   UNL     1      -3.001  12.921  23.466  0.00  0.00    +0.000 A 
ATOM     17  N   UNL     1      -3.918  12.360  22.591  0.00  0.00    +0.000 NA
ATOM     18  C   UNL     1      -3.512  12.708  21.389  0.00  0.00    +0.000 A 
ATOM     19  N   UNL     1      -2.276  13.228  21.484  0.00  0.00    +0.000 N 
ENDBRANCH   4   7
BRANCH   1  23
ATOM     20  C   UNL     1       2.856   6.961  19.007  0.00  0.00    +0.000 A 
ATOM     21  C   UNL     1       2.103   7.371  20.109  0.00  0.00    +0.000 A 
ATOM     22  C   UNL     1       1.294   8.514  20.041  0.00  0.00    +0.000 A 
ATOM     23  C   UNL     1       1.246   9.300  18.885  0.00  0.00    +0.000 A 
ATOM     24  C   UNL     1       2.003   8.873  17.782  0.00  0.00    +0.000 A 
ATOM     25  C   UNL     1       2.801   7.722  17.839  0.00  0.00    +0.000 A 
BRANCH  20  29
ATOM     26  C   UNL     1       4.164   2.279  19.879  0.00  0.00    +0.000 C 
ATOM     27  N   UNL     1       4.198   3.659  19.468  0.00  0.00    +0.000 N 
ATOM     28  C   UNL     1       3.136   4.487  19.327  0.00  0.00    +0.000 A 
ATOM     29  C   UNL     1       3.647   5.747  19.081  0.00  0.00    +0.000 A 
ATOM     30  C   UNL     1       5.047   5.534  19.028  0.00  0.00    +0.000 A 
ATOM     31  N   UNL     1       5.384   4.262  19.250  0.00  0.00    +0.000 NA
ENDBRANCH  20  29
ENDBRANCH   1  23
TORSDOF 3
ENDMDL
MODEL 9
REMARK VINA RESULT:      -7.9      1.846      2.750
REMARK  Name = 
REMARK  4 active torsions:
REMARK  status: ('A' for Active; 'I' for Inactive)
REMARK    1  A    between atoms: C_1  and  N_2
REMARK    2  A    between atoms: C_4  and  C_5
REMARK    3  A    between atoms: C_8  and  N_9
REMARK    4  A    between atoms: C_12  and  C_13
REMARK                            x       y       z     vdW  Elec       q    Type
REMARK                         _______ _______ _______ _____ _____    ______ ____
ROOT
ATOM      1  N   UNL     1       0.125  11.198  19.552  0.00  0.00    +0.000 N 
ATOM      2  C   UNL     1      -1.325  11.187  19.541  0.00  0.00    +0.000 C 
ATOM      3  C   UNL     1      -1.745  12.568  19.040  0.00  0.00    +0.000 C 
ATOM      4  C   UNL     1      -1.425  13.647  20.100  0.00  0.00    +0.000 C 
ATOM      5  C   UNL     1       0.133  13.627  20.171  0.00  0.00    +0.000 C 
ATOM      6  C   UNL     1       0.789  12.229  20.363  0.00  0.00    +0.000 C 
ENDROOT
BRANCH   4   7
ATOM      7  C   UNL     1      -2.135  13.361  21.451  0.00  0.00    +0.000 C 
ATOM      8  C   UNL     1      -1.951  14.107  22.783  0.00  0.00    +0.000 A 
ATOM      9  C   UNL     1      -0.889  14.757  23.367  0.00  0.00    +0.000 A 
ATOM     10  F   UNL     1       0.294  14.840  22.755  0.00  0.00    +0.000 F 
ATOM     11  C   UNL     1      -1.049  15.335  24.637  0.00  0.00    +0.000 A 
ATOM     12  C   UNL     1      -2.272  15.257  25.331  0.00  0.00    +0.000 A 
ATOM     13  C   UNL     1      -3.344  14.559  24.785  0.00  0.00    +0.000 A 
ATOM     14  C   UNL     1      -3.150  13.980  23.546  0.00  0.00    +0.000 A 
ATOM     15  C   UNL     1      -4.102  13.320  22.717  0.00  0.00    +0.000 A 
ATOM     16  C   UNL     1      -5.146  12.445  22.651  0.00  0.00    +0.000 A 
ATOM     17  N   UNL     1      -5.547  12.340  21.328  0.00  0.00    +0.000 NA
ATOM     18  C   UNL     1      -4.650  13.009  20.638  0.00  0.00    +0.000 A 
ATOM     19  N   UNL     1      -3.608  13.292  21.440  0.00  0.00    +0.000 N 
ENDBRANCH   4   7
BRANCH   1  23
ATOM     20  C   UNL     1       2.281   7.592  19.090  0.00  0.00    +0.000 A 
ATOM     21  C   UNL     1       1.756   7.973  20.326  0.00  0.00    +0.000 A 
ATOM     22  C   UNL     1       0.979   9.133  20.450  0.00  0.00    +0.000 A 
ATOM     23  C   UNL     1       0.737   9.964  19.352  0.00  0.00    +0.000 A 
ATOM     24  C   UNL     1       1.265   9.566  18.113  0.00  0.00    +0.000 A 
ATOM     25  C   UNL     1       2.030   8.399  17.980  0.00  0.00    +0.000 A 
BRANCH  20  29
ATOM     26  C   UNL     1       4.975   3.926  17.168  0.00  0.00    +0.000 C 
ATOM     27  N   UNL     1       4.247   4.752  18.096  0.00  0.00    +0.000 N 
ATOM     28  C   UNL     1       3.838   6.028  17.895  0.00  0.00    +0.000 A 
ATOM     29  C   UNL     1       3.041   6.361  18.973  0.00  0.00    +0.000 A 
ATOM     30  C   UNL     1       3.104   5.214  19.802  0.00  0.00    +0.000 A 
ATOM     31  N   UNL     1       3.848   4.238  19.276  0.00  0.00    +0.000 NA
ENDBRANCH  20  29
ENDBRANCH   1  23
TORSDOF 3
ENDMDL
