MODEL 1
REMARK VINA RESULT:      -7.7      0.000      0.000
REMARK  Name = 
REMARK  8 active torsions:
REMARK  status: ('A' for Active; 'I' for Inactive)
REMARK    1  A    between atoms: C_1  and  C_2
REMARK    2  A    between atoms: C_2  and  C_3
REMARK    3  A    between atoms: C_2  and  C_4
REMARK    4  A    between atoms: C_9  and  C_10
REMARK    5  A    between atoms: C_10  and  O_11
REMARK    6  A    between atoms: C_12  and  S_13
REMARK    7  A    between atoms: S_13  and  C_14
REMARK    8  A    between atoms: C_27  and  C_28
REMARK                            x       y       z     vdW  Elec       q    Type
REMARK                         _______ _______ _______ _____ _____    ______ ____
ROOT
ATOM      1  C   UNL     1       0.312   9.582  20.467  0.00  0.00    +0.000 C 
ATOM      2  C   UNL     1       1.287   8.522  19.963  0.00  0.00    +0.000 A 
ATOM      3  C   UNL     1       1.764   7.366  20.533  0.00  0.00    +0.000 A 
ATOM      4  C   UNL     1       2.660   6.747  19.652  0.00  0.00    +0.000 A 
ATOM      5  C   UNL     1       3.424   5.581  19.775  0.00  0.00    +0.000 A 
ATOM      6  C   UNL     1       4.343   5.204  18.787  0.00  0.00    +0.000 A 
ATOM      7  C   UNL     1       4.396   5.992  17.621  0.00  0.00    +0.000 A 
ATOM      8  C   UNL     1       3.586   7.153  17.446  0.00  0.00    +0.000 A 
ATOM      9  C   UNL     1       2.731   7.525  18.500  0.00  0.00    +0.000 A 
ATOM     10  N   UNL     1       1.863   8.592  18.702  0.00  0.00    +0.000 N 
ATOM     11  C   UNL     1       1.646   9.703  17.786  0.00  0.00    +0.000 C 
ATOM     12  C   UNL     1       0.520  10.641  18.230  0.00  0.00    +0.000 C 
ATOM     13  N   UNL     1       0.496  10.824  19.684  0.00  0.00    +0.000 N 
ATOM     14  C   UNL     1       0.808  12.075  20.143  0.00  0.00    +0.000 A 
ATOM     15  N   UNL     1       1.663  12.817  19.416  0.00  0.00    +0.000 NA
ATOM     16  C   UNL     1       1.834  14.107  19.747  0.00  0.00    +0.000 A 
ATOM     17  C   UNL     1       1.172  14.710  20.782  0.00  0.00    +0.000 A 
ATOM     18  C   UNL     1       0.341  13.892  21.519  0.00  0.00    +0.000 A 
ATOM     19  N   UNL     1       0.168  12.577  21.207  0.00  0.00    +0.000 NA
ENDROOT
BRANCH   7  20
ATOM     20  S   UNL     1       5.500   5.576  16.265  0.00  0.00    +0.000 S 
ATOM     21  C   UNL     1       7.105   5.841  16.997  0.00  0.00    +0.000 C 
ATOM     22  O   UNL     1       5.355   4.168  15.957  0.00  0.00    +0.000 OA
ATOM     23  O   UNL     1       5.320   6.576  15.238  0.00  0.00    +0.000 OA
ENDBRANCH   7  20
BRANCH  18  24
ATOM     24  C   UNL     1      -0.427  14.476  22.695  0.00  0.00    +0.000 C 
ATOM     25  F   UNL     1      -1.601  15.074  22.319  0.00  0.00    +0.000 F 
ATOM     26  F   UNL     1      -0.783  13.542  23.622  0.00  0.00    +0.000 F 
ATOM     27  F   UNL     1       0.265  15.439  23.367  0.00  0.00    +0.000 F 
ENDBRANCH  18  24
BRANCH   1  29
ATOM     28  C   UNL     1       1.593   9.483  22.736  0.00  0.00    +0.000 C 
ATOM     29  C   UNL     1       0.256   9.720  22.026  0.00  0.00    +0.000 C 
ATOM     30  C   UNL     1      -0.812   8.843  22.717  0.00  0.00    +0.000 C 
ENDBRANCH   1  29
BRANCH   6  31
ATOM     31  C   UNL     1       5.158   3.957  19.043  0.00  0.00    +0.000 C 
BRANCH  31  32
ATOM     32  O   UNL     1       4.549   2.812  18.444  0.00  0.00    +0.000 OA
ATOM     33  H   UNL     1       5.270   2.245  18.119  0.00  0.00    +0.000 HD
ENDBRANCH  31  32
ENDBRANCH   6  31
TORSDOF 5
ENDMDL
MODEL 2
REMARK VINA RESULT:      -7.6      0.851      1.148
REMARK  Name = 
REMARK  8 active torsions:
REMARK  status: ('A' for Active; 'I' for Inactive)
REMARK    1  A    between atoms: C_1  and  C_2
REMARK    2  A    between atoms: C_2  and  C_3
REMARK    3  A    between atoms: C_2  and  C_4
REMARK    4  A    between atoms: C_9  and  C_10
REMARK    5  A    between atoms: C_10  and  O_11
REMARK    6  A    between atoms: C_12  and  S_13
REMARK    7  A    between atoms: S_13  and  C_14
REMARK    8  A    between atoms: C_27  and  C_28
REMARK                            x       y       z     vdW  Elec       q    Type
REMARK                         _______ _______ _______ _____ _____    ______ ____
ROOT
ATOM      1  C   UNL     1       0.433   9.506  20.355  0.00  0.00    +0.000 C 
ATOM      2  C   UNL     1       1.334   8.338  19.965  0.00  0.00    +0.000 A 
ATOM      3  C   UNL     1       1.667   7.176  20.619  0.00  0.00    +0.000 A 
ATOM      4  C   UNL     1       2.553   6.434  19.828  0.00  0.00    +0.000 A 
ATOM      5  C   UNL     1       3.197   5.213  20.055  0.00  0.00    +0.000 A 
ATOM      6  C   UNL     1       4.135   4.704  19.147  0.00  0.00    +0.000 A 
ATOM      7  C   UNL     1       4.331   5.421  17.951  0.00  0.00    +0.000 A 
ATOM      8  C   UNL     1       3.643   6.639  17.669  0.00  0.00    +0.000 A 
ATOM      9  C   UNL     1       2.765   7.141  18.648  0.00  0.00    +0.000 A 
ATOM     10  N   UNL     1       1.989   8.290  18.742  0.00  0.00    +0.000 N 
ATOM     11  C   UNL     1       1.931   9.366  17.763  0.00  0.00    +0.000 C 
ATOM     12  C   UNL     1       0.872  10.423  18.089  0.00  0.00    +0.000 C 
ATOM     13  N   UNL     1       0.777  10.683  19.528  0.00  0.00    +0.000 N 
ATOM     14  C   UNL     1       1.175  11.924  19.947  0.00  0.00    +0.000 A 
ATOM     15  N   UNL     1       2.137  12.548  19.242  0.00  0.00    +0.000 NA
ATOM     16  C   UNL     1       2.407  13.833  19.523  0.00  0.00    +0.000 A 
ATOM     17  C   UNL     1       1.742  14.547  20.483  0.00  0.00    +0.000 A 
ATOM     18  C   UNL     1       0.796  13.846  21.203  0.00  0.00    +0.000 A 
ATOM     19  N   UNL     1       0.521  12.537  20.943  0.00  0.00    +0.000 NA
ENDROOT
BRANCH   7  20
ATOM     20  S   UNL     1       5.471   4.838  16.691  0.00  0.00    +0.000 S 
ATOM     21  C   UNL     1       5.349   6.118  15.454  0.00  0.00    +0.000 C 
ATOM     22  O   UNL     1       6.815   4.843  17.234  0.00  0.00    +0.000 OA
ATOM     23  O   UNL     1       4.911   3.633  16.125  0.00  0.00    +0.000 OA
ENDBRANCH   7  20
BRANCH  18  24
ATOM     24  C   UNL     1       0.016  14.557  22.297  0.00  0.00    +0.000 C 
ATOM     25  F   UNL     1       0.780  15.450  23.001  0.00  0.00    +0.000 F 
ATOM     26  F   UNL     1      -1.036  15.284  21.824  0.00  0.00    +0.000 F 
ATOM     27  F   UNL     1      -0.495  13.709  23.233  0.00  0.00    +0.000 F 
ENDBRANCH  18  24
BRANCH   1  29
ATOM     28  C   UNL     1       1.578   9.474  22.697  0.00  0.00    +0.000 C 
ATOM     29  C   UNL     1       0.295   9.731  21.898  0.00  0.00    +0.000 C 
ATOM     30  C   UNL     1      -0.849   8.940  22.570  0.00  0.00    +0.000 C 
ENDBRANCH   1  29
BRANCH   6  31
ATOM     31  C   UNL     1       4.815   3.404  19.514  0.00  0.00    +0.000 C 
BRANCH  31  32
ATOM     32  O   UNL     1       4.281   2.313  18.761  0.00  0.00    +0.000 OA
ATOM     33  H   UNL     1       5.035   1.863  18.341  0.00  0.00    +0.000 HD
ENDBRANCH  31  32
ENDBRANCH   6  31
TORSDOF 5
ENDMDL
MODEL 3
REMARK VINA RESULT:      -7.4      0.820      1.163
REMARK  Name = 
REMARK  8 active torsions:
REMARK  status: ('A' for Active; 'I' for Inactive)
REMARK    1  A    between atoms: C_1  and  C_2
REMARK    2  A    between atoms: C_2  and  C_3
REMARK    3  A    between atoms: C_2  and  C_4
REMARK    4  A    between atoms: C_9  and  C_10
REMARK    5  A    between atoms: C_10  and  O_11
REMARK    6  A    between atoms: C_12  and  S_13
REMARK    7  A    between atoms: S_13  and  C_14
REMARK    8  A    between atoms: C_27  and  C_28
REMARK                            x       y       z     vdW  Elec       q    Type
REMARK                         _______ _______ _______ _____ _____    ______ ____
ROOT
ATOM      1  C   UNL     1       0.247   9.619  20.452  0.00  0.00    +0.000 C 
ATOM      2  C   UNL     1       1.246   8.587  19.936  0.00  0.00    +0.000 A 
ATOM      3  C   UNL     1       1.737   7.428  20.485  0.00  0.00    +0.000 A 
ATOM      4  C   UNL     1       2.653   6.844  19.601  0.00  0.00    +0.000 A 
ATOM      5  C   UNL     1       3.437   5.690  19.707  0.00  0.00    +0.000 A 
ATOM      6  C   UNL     1       4.373   5.351  18.722  0.00  0.00    +0.000 A 
ATOM      7  C   UNL     1       4.425   6.166  17.574  0.00  0.00    +0.000 A 
ATOM      8  C   UNL     1       3.597   7.316  17.416  0.00  0.00    +0.000 A 
ATOM      9  C   UNL     1       2.724   7.649  18.468  0.00  0.00    +0.000 A 
ATOM     10  N   UNL     1       1.835   8.696  18.683  0.00  0.00    +0.000 N 
ATOM     11  C   UNL     1       1.608   9.824  17.790  0.00  0.00    +0.000 C 
ATOM     12  C   UNL     1       0.460  10.731  18.242  0.00  0.00    +0.000 C 
ATOM     13  N   UNL     1       0.416  10.880  19.699  0.00  0.00    +0.000 N 
ATOM     14  C   UNL     1       0.701  12.126  20.190  0.00  0.00    +0.000 A 
ATOM     15  N   UNL     1       1.550  12.900  19.489  0.00  0.00    +0.000 NA
ATOM     16  C   UNL     1       1.695  14.185  19.851  0.00  0.00    +0.000 A 
ATOM     17  C   UNL     1       1.010  14.753  20.891  0.00  0.00    +0.000 A 
ATOM     18  C   UNL     1       0.186  13.904  21.600  0.00  0.00    +0.000 A 
ATOM     19  N   UNL     1       0.040  12.593  21.257  0.00  0.00    +0.000 NA
ENDROOT
BRANCH   7  20
ATOM     20  S   UNL     1       5.552   5.801  16.223  0.00  0.00    +0.000 S 
ATOM     21  C   UNL     1       5.137   4.108  15.838  0.00  0.00    +0.000 C 
ATOM     22  O   UNL     1       5.208   6.633  15.087  0.00  0.00    +0.000 OA
ATOM     23  O   UNL     1       6.891   5.808  16.761  0.00  0.00    +0.000 OA
ENDBRANCH   7  20
BRANCH  18  24
ATOM     24  C   UNL     1      -0.605  14.447  22.779  0.00  0.00    +0.000 C 
ATOM     25  F   UNL     1      -0.874  13.494  23.725  0.00  0.00    +0.000 F 
ATOM     26  F   UNL     1       0.042  15.442  23.450  0.00  0.00    +0.000 F 
ATOM     27  F   UNL     1      -1.821  14.952  22.426  0.00  0.00    +0.000 F 
ENDBRANCH  18  24
BRANCH   1  29
ATOM     28  C   UNL     1       1.523   9.626  22.725  0.00  0.00    +0.000 C 
ATOM     29  C   UNL     1       0.170   9.720  22.013  0.00  0.00    +0.000 C 
ATOM     30  C   UNL     1      -0.792   8.714  22.682  0.00  0.00    +0.000 C 
ENDBRANCH   1  29
BRANCH   6  31
ATOM     31  C   UNL     1       5.208   4.113  18.960  0.00  0.00    +0.000 C 
BRANCH  31  32
ATOM     32  O   UNL     1       6.547   4.458  19.325  0.00  0.00    +0.000 OA
ATOM     33  H   UNL     1       6.912   3.699  19.811  0.00  0.00    +0.000 HD
ENDBRANCH  31  32
ENDBRANCH   6  31
TORSDOF 5
ENDMDL
MODEL 4
REMARK VINA RESULT:      -7.3      1.522      1.894
REMARK  Name = 
REMARK  8 active torsions:
REMARK  status: ('A' for Active; 'I' for Inactive)
REMARK    1  A    between atoms: C_1  and  C_2
REMARK    2  A    between atoms: C_2  and  C_3
REMARK    3  A    between atoms: C_2  and  C_4
REMARK    4  A    between atoms: C_9  and  C_10
REMARK    5  A    between atoms: C_10  and  O_11
REMARK    6  A    between atoms: C_12  and  S_13
REMARK    7  A    between atoms: S_13  and  C_14
REMARK    8  A    between atoms: C_27  and  C_28
REMARK                            x       y       z     vdW  Elec       q    Type
REMARK                         _______ _______ _______ _____ _____    ______ ____
ROOT
ATOM      1  C   UNL     1       0.006  10.550  20.870  0.00  0.00    +0.000 C 
ATOM      2  C   UNL     1       0.665   9.199  20.605  0.00  0.00    +0.000 A 
ATOM      3  C   UNL     1       0.645   8.014  21.300  0.00  0.00    +0.000 A 
ATOM      4  C   UNL     1       1.435   7.069  20.633  0.00  0.00    +0.000 A 
ATOM      5  C   UNL     1       1.757   5.744  20.946  0.00  0.00    +0.000 A 
ATOM      6  C   UNL     1       2.663   5.011  20.169  0.00  0.00    +0.000 A 
ATOM      7  C   UNL     1       3.163   5.629  19.006  0.00  0.00    +0.000 A 
ATOM      8  C   UNL     1       2.806   6.958  18.634  0.00  0.00    +0.000 A 
ATOM      9  C   UNL     1       1.946   7.673  19.488  0.00  0.00    +0.000 A 
ATOM     10  N   UNL     1       1.441   8.968  19.477  0.00  0.00    +0.000 N 
ATOM     11  C   UNL     1       1.748   9.999  18.495  0.00  0.00    +0.000 C 
ATOM     12  C   UNL     1       0.919  11.273  18.677  0.00  0.00    +0.000 C 
ATOM     13  N   UNL     1       0.705  11.594  20.091  0.00  0.00    +0.000 N 
ATOM     14  C   UNL     1       1.314  12.729  20.554  0.00  0.00    +0.000 A 
ATOM     15  N   UNL     1       2.471  13.102  19.978  0.00  0.00    +0.000 NA
ATOM     16  C   UNL     1       2.984  14.304  20.287  0.00  0.00    +0.000 A 
ATOM     17  C   UNL     1       2.380  15.177  21.150  0.00  0.00    +0.000 A 
ATOM     18  C   UNL     1       1.219  14.727  21.744  0.00  0.00    +0.000 A 
ATOM     19  N   UNL     1       0.694  13.503  21.454  0.00  0.00    +0.000 NA
ENDROOT
BRANCH   7  20
ATOM     20  S   UNL     1       4.293   4.767  17.906  0.00  0.00    +0.000 S 
ATOM     21  C   UNL     1       4.717   6.042  16.732  0.00  0.00    +0.000 C 
ATOM     22  O   UNL     1       5.485   4.404  18.647  0.00  0.00    +0.000 OA
ATOM     23  O   UNL     1       3.531   3.764  17.201  0.00  0.00    +0.000 OA
ENDBRANCH   7  20
BRANCH  18  24
ATOM     24  C   UNL     1       0.486  15.627  22.725  0.00  0.00    +0.000 C 
ATOM     25  F   UNL     1      -0.315  16.549  22.106  0.00  0.00    +0.000 F 
ATOM     26  F   UNL     1      -0.340  14.945  23.568  0.00  0.00    +0.000 F 
ATOM     27  F   UNL     1       1.323  16.356  23.517  0.00  0.00    +0.000 F 
ENDBRANCH  18  24
BRANCH   1  29
ATOM     28  C   UNL     1      -0.133   9.635  23.308  0.00  0.00    +0.000 C 
ATOM     29  C   UNL     1      -0.271  10.848  22.382  0.00  0.00    +0.000 C 
ATOM     30  C   UNL     1      -1.633  11.516  22.674  0.00  0.00    +0.000 C 
ENDBRANCH   1  29
BRANCH   6  31
ATOM     31  C   UNL     1       2.985   3.606  20.626  0.00  0.00    +0.000 C 
BRANCH  31  32
ATOM     32  O   UNL     1       2.370   3.320  21.884  0.00  0.00    +0.000 OA
ATOM     33  H   UNL     1       2.887   3.786  22.564  0.00  0.00    +0.000 HD
ENDBRANCH  31  32
ENDBRANCH   6  31
TORSDOF 5
ENDMDL
MODEL 5
REMARK VINA RESULT:      -7.1      1.343      1.750
REMARK  Name = 
REMARK  8 active torsions:
REMARK  status: ('A' for Active; 'I' for Inactive)
REMARK    1  A    between atoms: C_1  and  C_2
REMARK    2  A    between atoms: C_2  and  C_3
REMARK    3  A    between atoms: C_2  and  C_4
REMARK    4  A    between atoms: C_9  and  C_10
REMARK    5  A    between atoms: C_10  and  O_11
REMARK    6  A    between atoms: C_12  and  S_13
REMARK    7  A    between atoms: S_13  and  C_14
REMARK    8  A    between atoms: C_27  and  C_28
REMARK                            x       y       z     vdW  Elec       q    Type
REMARK                         _______ _______ _______ _____ _____    ______ ____
ROOT
ATOM      1  C   UNL     1      -0.056  10.567  20.811  0.00  0.00    +0.000 C 
ATOM      2  C   UNL     1       0.631   9.238  20.511  0.00  0.00    +0.000 A 
ATOM      3  C   UNL     1       0.673   8.049  21.200  0.00  0.00    +0.000 A 
ATOM      4  C   UNL     1       1.461   7.130  20.495  0.00  0.00    +0.000 A 
ATOM      5  C   UNL     1       1.833   5.813  20.787  0.00  0.00    +0.000 A 
ATOM      6  C   UNL     1       2.727   5.110  19.970  0.00  0.00    +0.000 A 
ATOM      7  C   UNL     1       3.161   5.748  18.790  0.00  0.00    +0.000 A 
ATOM      8  C   UNL     1       2.751   7.068  18.441  0.00  0.00    +0.000 A 
ATOM      9  C   UNL     1       1.907   7.754  19.334  0.00  0.00    +0.000 A 
ATOM     10  N   UNL     1       1.365   9.034  19.351  0.00  0.00    +0.000 N 
ATOM     11  C   UNL     1       1.602  10.077  18.363  0.00  0.00    +0.000 C 
ATOM     12  C   UNL     1       0.745  11.326  18.587  0.00  0.00    +0.000 C 
ATOM     13  N   UNL     1       0.581  11.635  20.010  0.00  0.00    +0.000 N 
ATOM     14  C   UNL     1       1.176  12.785  20.454  0.00  0.00    +0.000 A 
ATOM     15  N   UNL     1       2.298  13.193  19.832  0.00  0.00    +0.000 NA
ATOM     16  C   UNL     1       2.788  14.408  20.127  0.00  0.00    +0.000 A 
ATOM     17  C   UNL     1       2.196  15.260  21.019  0.00  0.00    +0.000 A 
ATOM     18  C   UNL     1       1.074  14.773  21.658  0.00  0.00    +0.000 A 
ATOM     19  N   UNL     1       0.572  13.537  21.383  0.00  0.00    +0.000 NA
ENDROOT
BRANCH   7  20
ATOM     20  S   UNL     1       4.269   4.924  17.640  0.00  0.00    +0.000 S 
ATOM     21  C   UNL     1       5.736   4.700  18.629  0.00  0.00    +0.000 C 
ATOM     22  O   UNL     1       3.724   3.621  17.315  0.00  0.00    +0.000 OA
ATOM     23  O   UNL     1       4.589   5.868  16.595  0.00  0.00    +0.000 OA
ENDBRANCH   7  20
BRANCH  18  24
ATOM     24  C   UNL     1       0.357  15.648  22.674  0.00  0.00    +0.000 C 
ATOM     25  F   UNL     1       1.219  16.366  23.461  0.00  0.00    +0.000 F 
ATOM     26  F   UNL     1      -0.461  16.577  22.103  0.00  0.00    +0.000 F 
ATOM     27  F   UNL     1      -0.417  14.940  23.545  0.00  0.00    +0.000 F 
ENDBRANCH  18  24
BRANCH   1  29
ATOM     28  C   UNL     1      -0.096   9.631  23.244  0.00  0.00    +0.000 C 
ATOM     29  C   UNL     1      -0.278  10.851  22.335  0.00  0.00    +0.000 C 
ATOM     30  C   UNL     1      -1.633  11.506  22.683  0.00  0.00    +0.000 C 
ENDBRANCH   1  29
BRANCH   6  31
ATOM     31  C   UNL     1       3.107   3.713  20.404  0.00  0.00    +0.000 C 
BRANCH  31  32
ATOM     32  O   UNL     1       2.277   2.735  19.774  0.00  0.00    +0.000 OA
ATOM     33  H   UNL     1       2.861   2.014  19.483  0.00  0.00    +0.000 HD
ENDBRANCH  31  32
ENDBRANCH   6  31
TORSDOF 5
ENDMDL
MODEL 6
REMARK VINA RESULT:      -6.5      0.897      1.174
REMARK  Name = 
REMARK  8 active torsions:
REMARK  status: ('A' for Active; 'I' for Inactive)
REMARK    1  A    between atoms: C_1  and  C_2
REMARK    2  A    between atoms: C_2  and  C_3
REMARK    3  A    between atoms: C_2  and  C_4
REMARK    4  A    between atoms: C_9  and  C_10
REMARK    5  A    between atoms: C_10  and  O_11
REMARK    6  A    between atoms: C_12  and  S_13
REMARK    7  A    between atoms: S_13  and  C_14
REMARK    8  A    between atoms: C_27  and  C_28
REMARK                            x       y       z     vdW  Elec       q    Type
REMARK                         _______ _______ _______ _____ _____    ______ ____
ROOT
ATOM      1  C   UNL     1       0.354   9.021  20.471  0.00  0.00    +0.000 C 
ATOM      2  C   UNL     1       1.434   8.083  19.942  0.00  0.00    +0.000 A 
ATOM      3  C   UNL     1       2.021   6.962  20.477  0.00  0.00    +0.000 A 
ATOM      4  C   UNL     1       2.981   6.467  19.585  0.00  0.00    +0.000 A 
ATOM      5  C   UNL     1       3.858   5.380  19.676  0.00  0.00    +0.000 A 
ATOM      6  C   UNL     1       4.817   5.132  18.686  0.00  0.00    +0.000 A 
ATOM      7  C   UNL     1       4.798   5.962  17.548  0.00  0.00    +0.000 A 
ATOM      8  C   UNL     1       3.876   7.040  17.404  0.00  0.00    +0.000 A 
ATOM      9  C   UNL     1       2.981   7.288  18.461  0.00  0.00    +0.000 A 
ATOM     10  N   UNL     1       2.008   8.254  18.690  0.00  0.00    +0.000 N 
ATOM     11  C   UNL     1       1.687   9.369  17.810  0.00  0.00    +0.000 C 
ATOM     12  C   UNL     1       0.469  10.172  18.274  0.00  0.00    +0.000 C 
ATOM     13  N   UNL     1       0.416  10.301  19.733  0.00  0.00    +0.000 N 
ATOM     14  C   UNL     1       0.597  11.561  20.237  0.00  0.00    +0.000 A 
ATOM     15  N   UNL     1       1.377  12.410  19.544  0.00  0.00    +0.000 NA
ATOM     16  C   UNL     1       1.415  13.699  19.921  0.00  0.00    +0.000 A 
ATOM     17  C   UNL     1       0.688  14.196  20.968  0.00  0.00    +0.000 A 
ATOM     18  C   UNL     1      -0.060  13.273  21.669  0.00  0.00    +0.000 A 
ATOM     19  N   UNL     1      -0.098  11.959  21.311  0.00  0.00    +0.000 NA
ENDROOT
BRANCH   7  20
ATOM     20  S   UNL     1       5.948   5.707  16.190  0.00  0.00    +0.000 S 
ATOM     21  C   UNL     1       5.598   4.022  15.716  0.00  0.00    +0.000 C 
ATOM     22  O   UNL     1       5.583   6.583  15.095  0.00  0.00    +0.000 OA
ATOM     23  O   UNL     1       7.282   5.734  16.741  0.00  0.00    +0.000 OA
ENDBRANCH   7  20
BRANCH  18  24
ATOM     24  C   UNL     1      -0.891  13.735  22.856  0.00  0.00    +0.000 C 
ATOM     25  F   UNL     1      -2.125  14.204  22.491  0.00  0.00    +0.000 F 
ATOM     26  F   UNL     1      -1.139  12.744  23.758  0.00  0.00    +0.000 F 
ATOM     27  F   UNL     1      -0.314  14.753  23.554  0.00  0.00    +0.000 F 
ENDBRANCH  18  24
BRANCH   1  29
ATOM     28  C   UNL     1      -0.955   9.840  22.572  0.00  0.00    +0.000 C 
ATOM     29  C   UNL     1       0.273   9.098  22.033  0.00  0.00    +0.000 C 
ATOM     30  C   UNL     1       1.524   9.689  22.720  0.00  0.00    +0.000 C 
ENDBRANCH   1  29
BRANCH   6  31
ATOM     31  C   UNL     1       5.753   3.966  18.908  0.00  0.00    +0.000 C 
BRANCH  31  32
ATOM     32  O   UNL     1       5.038   2.809  19.350  0.00  0.00    +0.000 OA
ATOM     33  H   UNL     1       5.528   2.033  19.027  0.00  0.00    +0.000 HD
ENDBRANCH  31  32
ENDBRANCH   6  31
TORSDOF 5
ENDMDL
MODEL 7
REMARK VINA RESULT:      -6.4      0.870      1.130
REMARK  Name = 
REMARK  8 active torsions:
REMARK  status: ('A' for Active; 'I' for Inactive)
REMARK    1  A    between atoms: C_1  and  C_2
REMARK    2  A    between atoms: C_2  and  C_3
REMARK    3  A    between atoms: C_2  and  C_4
REMARK    4  A    between atoms: C_9  and  C_10
REMARK    5  A    between atoms: C_10  and  O_11
REMARK    6  A    between atoms: C_12  and  S_13
REMARK    7  A    between atoms: S_13  and  C_14
REMARK    8  A    between atoms: C_27  and  C_28
REMARK                            x       y       z     vdW  Elec       q    Type
REMARK                         _______ _______ _______ _____ _____    ______ ____
ROOT
ATOM      1  C   UNL     1       0.200   9.289  20.474  0.00  0.00    +0.000 C 
ATOM      2  C   UNL     1       1.148   8.160  20.080  0.00  0.00    +0.000 A 
ATOM      3  C   UNL     1       1.465   6.970  20.690  0.00  0.00    +0.000 A 
ATOM      4  C   UNL     1       2.412   6.287  19.916  0.00  0.00    +0.000 A 
ATOM      5  C   UNL     1       3.067   5.067  20.117  0.00  0.00    +0.000 A 
ATOM      6  C   UNL     1       4.068   4.624  19.243  0.00  0.00    +0.000 A 
ATOM      7  C   UNL     1       4.320   5.409  18.100  0.00  0.00    +0.000 A 
ATOM      8  C   UNL     1       3.625   6.628  17.842  0.00  0.00    +0.000 A 
ATOM      9  C   UNL     1       2.680   7.061  18.790  0.00  0.00    +0.000 A 
ATOM     10  N   UNL     1       1.875   8.189  18.898  0.00  0.00    +0.000 N 
ATOM     11  C   UNL     1       1.854   9.316  17.975  0.00  0.00    +0.000 C 
ATOM     12  C   UNL     1       0.755  10.334  18.291  0.00  0.00    +0.000 C 
ATOM     13  N   UNL     1       0.568  10.515  19.733  0.00  0.00    +0.000 N 
ATOM     14  C   UNL     1       0.915  11.738  20.241  0.00  0.00    +0.000 A 
ATOM     15  N   UNL     1       1.904  12.415  19.630  0.00  0.00    +0.000 NA
ATOM     16  C   UNL     1       2.129  13.689  19.995  0.00  0.00    +0.000 A 
ATOM     17  C   UNL     1       1.393  14.337  20.949  0.00  0.00    +0.000 A 
ATOM     18  C   UNL     1       0.421  13.582  21.572  0.00  0.00    +0.000 A 
ATOM     19  N   UNL     1       0.190  12.284  21.226  0.00  0.00    +0.000 NA
ENDROOT
BRANCH   7  20
ATOM     20  S   UNL     1       5.546   4.915  16.883  0.00  0.00    +0.000 S 
ATOM     21  C   UNL     1       5.380   6.191  15.647  0.00  0.00    +0.000 C 
ATOM     22  O   UNL     1       6.864   5.011  17.477  0.00  0.00    +0.000 OA
ATOM     23  O   UNL     1       5.094   3.677  16.292  0.00  0.00    +0.000 OA
ENDBRANCH   7  20
BRANCH  18  24
ATOM     24  C   UNL     1      -0.438  14.219  22.653  0.00  0.00    +0.000 C 
ATOM     25  F   UNL     1      -1.637  14.679  22.177  0.00  0.00    +0.000 F 
ATOM     26  F   UNL     1      -0.760  13.359  23.661  0.00  0.00    +0.000 F 
ATOM     27  F   UNL     1       0.150  15.298  23.243  0.00  0.00    +0.000 F 
ENDBRANCH  18  24
BRANCH   1  29
ATOM     28  C   UNL     1      -1.096  10.459  22.411  0.00  0.00    +0.000 C 
ATOM     29  C   UNL     1      -0.034   9.427  22.017  0.00  0.00    +0.000 C 
ATOM     30  C   UNL     1       1.239   9.714  22.844  0.00  0.00    +0.000 C 
ENDBRANCH   1  29
BRANCH   6  31
ATOM     31  C   UNL     1       4.752   3.319  19.581  0.00  0.00    +0.000 C 
BRANCH  31  32
ATOM     32  O   UNL     1       4.267   2.256  18.759  0.00  0.00    +0.000 OA
ATOM     33  H   UNL     1       3.586   1.789  19.273  0.00  0.00    +0.000 HD
ENDBRANCH  31  32
ENDBRANCH   6  31
TORSDOF 5
ENDMDL
MODEL 8
REMARK VINA RESULT:      -6.3      1.558      2.082
REMARK  Name = 
REMARK  8 active torsions:
REMARK  status: ('A' for Active; 'I' for Inactive)
REMARK    1  A    between atoms: C_1  and  C_2
REMARK    2  A    between atoms: C_2  and  C_3
REMARK    3  A    between atoms: C_2  and  C_4
REMARK    4  A    between atoms: C_9  and  C_10
REMARK    5  A    between atoms: C_10  and  O_11
REMARK    6  A    between atoms: C_12  and  S_13
REMARK    7  A    between atoms: S_13  and  C_14
REMARK    8  A    between atoms: C_27  and  C_28
REMARK                            x       y       z     vdW  Elec       q    Type
REMARK                         _______ _______ _______ _____ _____    ______ ____
ROOT
ATOM      1  C   UNL     1      -0.180  10.665  20.828  0.00  0.00    +0.000 C 
ATOM      2  C   UNL     1       0.516   9.329  20.587  0.00  0.00    +0.000 A 
ATOM      3  C   UNL     1       0.499   8.145  21.284  0.00  0.00    +0.000 A 
ATOM      4  C   UNL     1       1.329   7.215  20.644  0.00  0.00    +0.000 A 
ATOM      5  C   UNL     1       1.668   5.898  20.970  0.00  0.00    +0.000 A 
ATOM      6  C   UNL     1       2.614   5.183  20.224  0.00  0.00    +0.000 A 
ATOM      7  C   UNL     1       3.137   5.809  19.075  0.00  0.00    +0.000 A 
ATOM      8  C   UNL     1       2.763   7.130  18.688  0.00  0.00    +0.000 A 
ATOM      9  C   UNL     1       1.863   7.828  19.514  0.00  0.00    +0.000 A 
ATOM     10  N   UNL     1       1.330   9.112  19.484  0.00  0.00    +0.000 N 
ATOM     11  C   UNL     1       1.646  10.147  18.510  0.00  0.00    +0.000 C 
ATOM     12  C   UNL     1       0.785  11.404  18.663  0.00  0.00    +0.000 C 
ATOM     13  N   UNL     1       0.520  11.723  20.068  0.00  0.00    +0.000 N 
ATOM     14  C   UNL     1       1.091  12.871  20.548  0.00  0.00    +0.000 A 
ATOM     15  N   UNL     1       2.258  13.267  20.006  0.00  0.00    +0.000 NA
ATOM     16  C   UNL     1       2.735  14.481  20.328  0.00  0.00    +0.000 A 
ATOM     17  C   UNL     1       2.086  15.343  21.170  0.00  0.00    +0.000 A 
ATOM     18  C   UNL     1       0.917  14.869  21.729  0.00  0.00    +0.000 A 
ATOM     19  N   UNL     1       0.427  13.634  21.426  0.00  0.00    +0.000 NA
ENDROOT
BRANCH   7  20
ATOM     20  S   UNL     1       4.318   4.970  18.013  0.00  0.00    +0.000 S 
ATOM     21  C   UNL     1       3.260   3.917  17.035  0.00  0.00    +0.000 C 
ATOM     22  O   UNL     1       4.939   5.944  17.138  0.00  0.00    +0.000 OA
ATOM     23  O   UNL     1       5.125   4.115  18.852  0.00  0.00    +0.000 OA
ENDBRANCH   7  20
BRANCH  18  24
ATOM     24  C   UNL     1       0.136  15.755  22.685  0.00  0.00    +0.000 C 
ATOM     25  F   UNL     1      -0.171  15.128  23.863  0.00  0.00    +0.000 F 
ATOM     26  F   UNL     1       0.811  16.883  23.047  0.00  0.00    +0.000 F 
ATOM     27  F   UNL     1      -1.060  16.171  22.180  0.00  0.00    +0.000 F 
ENDBRANCH  18  24
BRANCH   1  29
ATOM     28  C   UNL     1      -0.352   9.758  23.267  0.00  0.00    +0.000 C 
ATOM     29  C   UNL     1      -0.510  10.961  22.331  0.00  0.00    +0.000 C 
ATOM     30  C   UNL     1      -1.904  11.578  22.580  0.00  0.00    +0.000 C 
ENDBRANCH   1  29
BRANCH   6  31
ATOM     31  C   UNL     1       2.951   3.786  20.693  0.00  0.00    +0.000 C 
BRANCH  31  32
ATOM     32  O   UNL     1       2.230   2.804  19.945  0.00  0.00    +0.000 OA
ATOM     33  H   UNL     1       1.505   3.269  19.493  0.00  0.00    +0.000 HD
ENDBRANCH  31  32
ENDBRANCH   6  31
TORSDOF 5
ENDMDL
MODEL 9
REMARK VINA RESULT:      -6.2      6.126      8.154
REMARK  Name = 
REMARK  8 active torsions:
REMARK  status: ('A' for Active; 'I' for Inactive)
REMARK    1  A    between atoms: C_1  and  C_2
REMARK    2  A    between atoms: C_2  and  C_3
REMARK    3  A    between atoms: C_2  and  C_4
REMARK    4  A    between atoms: C_9  and  C_10
REMARK    5  A    between atoms: C_10  and  O_11
REMARK    6  A    between atoms: C_12  and  S_13
REMARK    7  A    between atoms: S_13  and  C_14
REMARK    8  A    between atoms: C_27  and  C_28
REMARK                            x       y       z     vdW  Elec       q    Type
REMARK                         _______ _______ _______ _____ _____    ______ ____
ROOT
ATOM      1  C   UNL     1      -1.447  12.252  20.854  0.00  0.00    +0.000 C 
ATOM      2  C   UNL     1      -0.234  13.177  20.867  0.00  0.00    +0.000 A 
ATOM      3  C   UNL     1       0.088  14.260  21.650  0.00  0.00    +0.000 A 
ATOM      4  C   UNL     1       1.325  14.777  21.244  0.00  0.00    +0.000 A 
ATOM      5  C   UNL     1       2.063  15.876  21.696  0.00  0.00    +0.000 A 
ATOM      6  C   UNL     1       3.248  16.270  21.060  0.00  0.00    +0.000 A 
ATOM      7  C   UNL     1       3.718  15.458  20.010  0.00  0.00    +0.000 A 
ATOM      8  C   UNL     1       3.014  14.299  19.568  0.00  0.00    +0.000 A 
ATOM      9  C   UNL     1       1.792  13.990  20.196  0.00  0.00    +0.000 A 
ATOM     10  N   UNL     1       0.835  13.001  20.000  0.00  0.00    +0.000 N 
ATOM     11  C   UNL     1       0.865  11.974  18.967  0.00  0.00    +0.000 C 
ATOM     12  C   UNL     1      -0.261  10.946  19.107  0.00  0.00    +0.000 C 
ATOM     13  N   UNL     1      -1.516  11.558  19.550  0.00  0.00    +0.000 N 
ATOM     14  C   UNL     1      -2.543  11.562  18.644  0.00  0.00    +0.000 A 
ATOM     15  N   UNL     1      -2.227  11.613  17.336  0.00  0.00    +0.000 NA
ATOM     16  C   UNL     1      -3.205  11.429  16.434  0.00  0.00    +0.000 A 
ATOM     17  C   UNL     1      -4.505  11.177  16.777  0.00  0.00    +0.000 A 
ATOM     18  C   UNL     1      -4.779  11.178  18.129  0.00  0.00    +0.000 A 
ATOM     19  N   UNL     1      -3.803  11.379  19.058  0.00  0.00    +0.000 NA
ENDROOT
BRANCH   7  20
ATOM     20  S   UNL     1       5.252  15.835  19.155  0.00  0.00    +0.000 S 
ATOM     21  C   UNL     1       5.266  14.613  17.855  0.00  0.00    +0.000 C 
ATOM     22  O   UNL     1       5.144  17.150  18.554  0.00  0.00    +0.000 OA
ATOM     23  O   UNL     1       6.338  15.525  20.055  0.00  0.00    +0.000 OA
ENDBRANCH   7  20
BRANCH  18  24
ATOM     24  C   UNL     1      -6.201  10.917  18.601  0.00  0.00    +0.000 C 
ATOM     25  F   UNL     1      -6.475   9.584  18.754  0.00  0.00    +0.000 F 
ATOM     26  F   UNL     1      -6.478  11.480  19.811  0.00  0.00    +0.000 F 
ATOM     27  F   UNL     1      -7.149  11.380  17.738  0.00  0.00    +0.000 F 
ENDBRANCH  18  24
BRANCH   1  29
ATOM     28  C   UNL     1      -2.962  14.370  20.980  0.00  0.00    +0.000 C 
ATOM     29  C   UNL     1      -2.765  12.906  21.389  0.00  0.00    +0.000 C 
ATOM     30  C   UNL     1      -2.965  12.809  22.918  0.00  0.00    +0.000 C 
ENDBRANCH   1  29
BRANCH   6  31
ATOM     31  C   UNL     1       3.939  17.505  21.593  0.00  0.00    +0.000 C 
BRANCH  31  32
ATOM     32  O   UNL     1       3.740  18.622  20.724  0.00  0.00    +0.000 OA
ATOM     33  H   UNL     1       2.792  18.839  20.755  0.00  0.00    +0.000 HD
ENDBRANCH  31  32
ENDBRANCH   6  31
TORSDOF 5
ENDMDL
