MODEL 1
REMARK VINA RESULT:      -7.8      0.000      0.000
REMARK  Name = 
REMARK  14 active torsions:
REMARK  status: ('A' for Active; 'I' for Inactive)
REMARK    1  A    between atoms: C_1  and  C_2
REMARK    2  A    between atoms: C_2  and  C_3
REMARK    3  A    between atoms: C_3  and  N_4
REMARK    4  A    between atoms: N_4  and  C_5
REMARK    5  A    between atoms: N_4  and  S_8
REMARK    6  A    between atoms: C_5  and  C_6
REMARK    7  A    between atoms: C_6  and  C_7
REMARK    8  A    between atoms: S_8  and  C_11
REMARK    9  A    between atoms: C_14  and  C_15
REMARK   10  A    between atoms: N_17  and  CA_18
REMARK   11  A    between atoms: CA_18  and  CB_19
REMARK   12  A    between atoms: CA_18  and  C_29
REMARK   13  A    between atoms: CB_19  and  CG_20
REMARK   14  A    between atoms: C_29  and  OXT_31
REMARK                            x       y       z     vdW  Elec       q    Type
REMARK                         _______ _______ _______ _____ _____    ______ ____
ROOT
ATOM      1  C   UNK A   0       1.501   9.029  19.452  0.00  0.00    +0.000 C 
ATOM      2  O   UNK A   0       1.559  10.034  18.753  0.00  0.00    +0.000 OA
ATOM      3  N   TRP A   1       0.829   9.018  20.650  0.00  0.00    +0.000 N 
ATOM      4  H   TRP A   1       1.069   8.293  21.321  0.00  0.00    +0.000 HD
ENDROOT
BRANCH   1   8
ATOM      5  C   UNK A   0       3.623   5.424  18.457  0.00  0.00    +0.000 A 
ATOM      6  C   UNK A   0       2.868   5.505  19.628  0.00  0.00    +0.000 A 
ATOM      7  C   UNK A   0       2.167   6.687  19.927  0.00  0.00    +0.000 A 
ATOM      8  C   UNK A   0       2.208   7.777  19.047  0.00  0.00    +0.000 A 
ATOM      9  C   UNK A   0       2.959   7.675  17.862  0.00  0.00    +0.000 A 
ATOM     10  C   UNK A   0       3.666   6.498  17.565  0.00  0.00    +0.000 A 
BRANCH   5  11
ATOM     11  S   UNK A   0       4.750   4.047  18.269  0.00  0.00    +0.000 S 
ATOM     12  O   UNK A   0       3.954   3.000  17.673  0.00  0.00    +0.000 OA
ATOM     13  O   UNK A   0       5.409   3.828  19.539  0.00  0.00    +0.000 OA
BRANCH  11  14
ATOM     14  N   UNK A   0       5.956   4.620  17.126  0.00  0.00    +0.000 NA
BRANCH  14  15
ATOM     15  C   UNK A   0       7.301   4.740  17.827  0.00  0.00    +0.000 C 
BRANCH  15  17
ATOM     16  C   UNK A   0       7.453   7.274  17.471  0.00  0.00    +0.000 C 
ATOM     17  C   UNK A   0       7.654   6.107  18.417  0.00  0.00    +0.000 C 
ENDBRANCH  15  17
ENDBRANCH  14  15
BRANCH  14  18
ATOM     18  C   UNK A   0       6.055   3.787  15.871  0.00  0.00    +0.000 C 
BRANCH  18  19
ATOM     19  C   UNK A   0       5.863   4.538  14.548  0.00  0.00    +0.000 C 
ATOM     20  C   UNK A   0       7.148   4.868  13.808  0.00  0.00    +0.000 C 
ENDBRANCH  18  19
ENDBRANCH  14  18
ENDBRANCH  11  14
ENDBRANCH   5  11
ENDBRANCH   1   8
BRANCH   3  21
ATOM     21  CA  TRP A   1       0.245  10.230  21.244  0.00  0.00    +0.000 C 
BRANCH  21  22
ATOM     22  C   TRP A   1       0.086   9.889  22.743  0.00  0.00    +0.000 C 
ATOM     23  O   TRP A   1       1.036   9.606  23.471  0.00  0.00    +0.000 OA
BRANCH  22  24
ATOM     24  OXT TRP A   1      -1.167  10.002  23.243  0.00  0.00    +0.000 OA
ATOM     25  HXT TRP A   1      -1.826   9.416  22.828  0.00  0.00    +0.000 HD
ENDBRANCH  22  24
ENDBRANCH  21  22
BRANCH  21  26
ATOM     26  CB  TRP A   1      -1.048  10.750  20.535  0.00  0.00    +0.000 C 
BRANCH  26  27
ATOM     27  CG  TRP A   1      -1.090  12.245  20.362  0.00  0.00    +0.000 A 
ATOM     28  CD1 TRP A   1      -1.947  13.066  21.069  0.00  0.00    +0.000 A 
ATOM     29  NE1 TRP A   1      -2.151  14.127  20.246  0.00  0.00    +0.000 N 
ATOM     30  CE2 TRP A   1      -0.898  14.431  19.764  0.00  0.00    +0.000 A 
ATOM     31  CZ2 TRP A   1      -0.395  15.643  19.301  0.00  0.00    +0.000 A 
ATOM     32  CH2 TRP A   1       0.941  15.653  18.916  0.00  0.00    +0.000 A 
ATOM     33  CZ3 TRP A   1       1.696  14.480  18.917  0.00  0.00    +0.000 A 
ATOM     34  CE3 TRP A   1       1.138  13.244  19.307  0.00  0.00    +0.000 A 
ATOM     35  CD2 TRP A   1      -0.185  13.218  19.796  0.00  0.00    +0.000 A 
ATOM     36  HE1 TRP A   1      -2.933  14.155  19.607  0.00  0.00    +0.000 HD
ENDBRANCH  26  27
ENDBRANCH  21  26
ENDBRANCH   3  21
TORSDOF 12
ENDMDL
MODEL 2
REMARK VINA RESULT:      -7.7      2.732      9.312
REMARK  Name = 
REMARK  14 active torsions:
REMARK  status: ('A' for Active; 'I' for Inactive)
REMARK    1  A    between atoms: C_1  and  C_2
REMARK    2  A    between atoms: C_2  and  C_3
REMARK    3  A    between atoms: C_3  and  N_4
REMARK    4  A    between atoms: N_4  and  C_5
REMARK    5  A    between atoms: N_4  and  S_8
REMARK    6  A    between atoms: C_5  and  C_6
REMARK    7  A    between atoms: C_6  and  C_7
REMARK    8  A    between atoms: S_8  and  C_11
REMARK    9  A    between atoms: C_14  and  C_15
REMARK   10  A    between atoms: N_17  and  CA_18
REMARK   11  A    between atoms: CA_18  and  CB_19
REMARK   12  A    between atoms: CA_18  and  C_29
REMARK   13  A    between atoms: CB_19  and  CG_20
REMARK   14  A    between atoms: C_29  and  OXT_31
REMARK                            x       y       z     vdW  Elec       q    Type
REMARK                         _______ _______ _______ _____ _____    ______ ____
ROOT
ATOM      1  C   UNK A   0       2.298   5.973  19.014  0.00  0.00    +0.000 C 
ATOM      2  O   UNK A   0       2.192   5.570  17.861  0.00  0.00    +0.000 OA
ATOM      3  N   TRP A   1       2.710   5.150  20.033  0.00  0.00    +0.000 N 
ATOM      4  H   TRP A   1       2.482   5.425  20.985  0.00  0.00    +0.000 HD
ENDROOT
BRANCH   1   8
ATOM      5  C   UNK A   0       1.079   9.950  20.103  0.00  0.00    +0.000 A 
ATOM      6  C   UNK A   0       1.097   8.926  21.051  0.00  0.00    +0.000 A 
ATOM      7  C   UNK A   0       1.516   7.636  20.679  0.00  0.00    +0.000 A 
ATOM      8  C   UNK A   0       1.932   7.378  19.366  0.00  0.00    +0.000 A 
ATOM      9  C   UNK A   0       1.926   8.423  18.425  0.00  0.00    +0.000 A 
ATOM     10  C   UNK A   0       1.501   9.710  18.793  0.00  0.00    +0.000 A 
BRANCH   5  11
ATOM     11  S   UNK A   0       0.244  11.476  20.519  0.00  0.00    +0.000 S 
ATOM     12  O   UNK A   0       1.261  12.294  21.137  0.00  0.00    +0.000 OA
ATOM     13  O   UNK A   0      -0.965  11.145  21.243  0.00  0.00    +0.000 OA
BRANCH  11  14
ATOM     14  N   UNK A   0      -0.226  12.156  18.968  0.00  0.00    +0.000 NA
BRANCH  14  15
ATOM     15  C   UNK A   0      -1.743  12.191  18.869  0.00  0.00    +0.000 C 
BRANCH  15  17
ATOM     16  C   UNK A   0      -1.755  10.083  17.411  0.00  0.00    +0.000 C 
ATOM     17  C   UNK A   0      -2.378  11.433  17.701  0.00  0.00    +0.000 C 
ENDBRANCH  15  17
ENDBRANCH  14  15
BRANCH  14  18
ATOM     18  C   UNK A   0       0.381  13.509  18.683  0.00  0.00    +0.000 C 
BRANCH  18  19
ATOM     19  C   UNK A   0      -0.394  14.720  19.216  0.00  0.00    +0.000 C 
ATOM     20  C   UNK A   0       0.032  16.057  18.634  0.00  0.00    +0.000 C 
ENDBRANCH  18  19
ENDBRANCH  14  18
ENDBRANCH  11  14
ENDBRANCH   5  11
ENDBRANCH   1   8
BRANCH   3  21
ATOM     21  CA  TRP A   1       2.928   3.707  19.850  0.00  0.00    +0.000 C 
BRANCH  21  22
ATOM     22  C   TRP A   1       2.161   3.048  21.019  0.00  0.00    +0.000 C 
ATOM     23  O   TRP A   1       2.720   2.594  22.016  0.00  0.00    +0.000 OA
BRANCH  22  24
ATOM     24  OXT TRP A   1       0.811   3.074  20.926  0.00  0.00    +0.000 OA
ATOM     25  HXT TRP A   1       0.425   2.357  20.390  0.00  0.00    +0.000 HD
ENDBRANCH  22  24
ENDBRANCH  21  22
BRANCH  21  26
ATOM     26  CB  TRP A   1       4.427   3.283  19.708  0.00  0.00    +0.000 C 
BRANCH  26  27
ATOM     27  CG  TRP A   1       5.240   4.200  18.834  0.00  0.00    +0.000 A 
ATOM     28  CD1 TRP A   1       6.299   4.953  19.303  0.00  0.00    +0.000 A 
ATOM     29  NE1 TRP A   1       6.333   6.034  18.483  0.00  0.00    +0.000 N 
ATOM     30  CE2 TRP A   1       6.163   5.511  17.221  0.00  0.00    +0.000 A 
ATOM     31  CZ2 TRP A   1       6.576   6.010  15.990  0.00  0.00    +0.000 A 
ATOM     32  CH2 TRP A   1       6.296   5.226  14.877  0.00  0.00    +0.000 A 
ATOM     33  CZ3 TRP A   1       5.561   4.047  14.997  0.00  0.00    +0.000 A 
ATOM     34  CE3 TRP A   1       5.075   3.606  16.247  0.00  0.00    +0.000 A 
ATOM     35  CD2 TRP A   1       5.426   4.327  17.407  0.00  0.00    +0.000 A 
ATOM     36  HE1 TRP A   1       5.849   6.889  18.719  0.00  0.00    +0.000 HD
ENDBRANCH  26  27
ENDBRANCH  21  26
ENDBRANCH   3  21
TORSDOF 12
ENDMDL
MODEL 3
REMARK VINA RESULT:      -7.6      2.796      9.311
REMARK  Name = 
REMARK  14 active torsions:
REMARK  status: ('A' for Active; 'I' for Inactive)
REMARK    1  A    between atoms: C_1  and  C_2
REMARK    2  A    between atoms: C_2  and  C_3
REMARK    3  A    between atoms: C_3  and  N_4
REMARK    4  A    between atoms: N_4  and  C_5
REMARK    5  A    between atoms: N_4  and  S_8
REMARK    6  A    between atoms: C_5  and  C_6
REMARK    7  A    between atoms: C_6  and  C_7
REMARK    8  A    between atoms: S_8  and  C_11
REMARK    9  A    between atoms: C_14  and  C_15
REMARK   10  A    between atoms: N_17  and  CA_18
REMARK   11  A    between atoms: CA_18  and  CB_19
REMARK   12  A    between atoms: CA_18  and  C_29
REMARK   13  A    between atoms: CB_19  and  CG_20
REMARK   14  A    between atoms: C_29  and  OXT_31
REMARK                            x       y       z     vdW  Elec       q    Type
REMARK                         _______ _______ _______ _____ _____    ______ ____
ROOT
ATOM      1  C   UNK A   0       2.186   5.663  18.850  0.00  0.00    +0.000 C 
ATOM      2  O   UNK A   0       1.912   5.174  17.760  0.00  0.00    +0.000 OA
ATOM      3  N   TRP A   1       2.654   4.898  19.889  0.00  0.00    +0.000 N 
ATOM      4  H   TRP A   1       2.563   5.271  20.831  0.00  0.00    +0.000 HD
ENDROOT
BRANCH   1   8
ATOM      5  C   UNK A   0       1.393   9.809  19.671  0.00  0.00    +0.000 A 
ATOM      6  C   UNK A   0       1.314   8.854  20.686  0.00  0.00    +0.000 A 
ATOM      7  C   UNK A   0       1.594   7.506  20.401  0.00  0.00    +0.000 A 
ATOM      8  C   UNK A   0       1.969   7.119  19.108  0.00  0.00    +0.000 A 
ATOM      9  C   UNK A   0       2.062   8.094  18.098  0.00  0.00    +0.000 A 
ATOM     10  C   UNK A   0       1.776   9.440  18.380  0.00  0.00    +0.000 A 
BRANCH   5  11
ATOM     11  S   UNK A   0       0.723  11.438  19.985  0.00  0.00    +0.000 S 
ATOM     12  O   UNK A   0       1.061  12.206  18.810  0.00  0.00    +0.000 OA
ATOM     13  O   UNK A   0       1.177  11.867  21.291  0.00  0.00    +0.000 OA
BRANCH  11  14
ATOM     14  N   UNK A   0      -1.014  11.189  20.072  0.00  0.00    +0.000 NA
BRANCH  14  15
ATOM     15  C   UNK A   0      -1.688  12.477  20.522  0.00  0.00    +0.000 C 
BRANCH  15  17
ATOM     16  C   UNK A   0      -1.670  12.838  23.060  0.00  0.00    +0.000 C 
ATOM     17  C   UNK A   0      -2.467  12.427  21.838  0.00  0.00    +0.000 C 
ENDBRANCH  15  17
ENDBRANCH  14  15
BRANCH  14  18
ATOM     18  C   UNK A   0      -1.622  10.660  18.795  0.00  0.00    +0.000 C 
BRANCH  18  19
ATOM     19  C   UNK A   0      -2.313  11.695  17.899  0.00  0.00    +0.000 C 
ATOM     20  C   UNK A   0      -3.761  11.384  17.564  0.00  0.00    +0.000 C 
ENDBRANCH  18  19
ENDBRANCH  14  18
ENDBRANCH  11  14
ENDBRANCH   5  11
ENDBRANCH   1   8
BRANCH   3  21
ATOM     21  CA  TRP A   1       2.741   3.431  19.819  0.00  0.00    +0.000 C 
BRANCH  21  22
ATOM     22  C   TRP A   1       2.050   2.940  21.112  0.00  0.00    +0.000 C 
ATOM     23  O   TRP A   1       2.668   2.660  22.137  0.00  0.00    +0.000 OA
BRANCH  22  24
ATOM     24  OXT TRP A   1       0.697   2.915  21.082  0.00  0.00    +0.000 OA
ATOM     25  HXT TRP A   1       0.265   3.206  21.907  0.00  0.00    +0.000 HD
ENDBRANCH  22  24
ENDBRANCH  21  22
BRANCH  21  26
ATOM     26  CB  TRP A   1       4.181   2.871  19.575  0.00  0.00    +0.000 C 
BRANCH  26  27
ATOM     27  CG  TRP A   1       4.876   3.474  18.384  0.00  0.00    +0.000 A 
ATOM     28  CD1 TRP A   1       4.458   3.279  17.082  0.00  0.00    +0.000 A 
ATOM     29  NE1 TRP A   1       5.592   3.391  16.344  0.00  0.00    +0.000 N 
ATOM     30  CE2 TRP A   1       6.232   4.492  16.868  0.00  0.00    +0.000 A 
ATOM     31  CZ2 TRP A   1       7.132   5.366  16.266  0.00  0.00    +0.000 A 
ATOM     32  CH2 TRP A   1       7.583   6.426  17.044  0.00  0.00    +0.000 A 
ATOM     33  CZ3 TRP A   1       7.209   6.541  18.383  0.00  0.00    +0.000 A 
ATOM     34  CE3 TRP A   1       6.364   5.591  18.998  0.00  0.00    +0.000 A 
ATOM     35  CD2 TRP A   1       5.813   4.560  18.210  0.00  0.00    +0.000 A 
ATOM     36  HE1 TRP A   1       6.146   2.581  16.102  0.00  0.00    +0.000 HD
ENDBRANCH  26  27
ENDBRANCH  21  26
ENDBRANCH   3  21
TORSDOF 12
ENDMDL
MODEL 4
REMARK VINA RESULT:      -7.6      2.765      9.237
REMARK  Name = 
REMARK  14 active torsions:
REMARK  status: ('A' for Active; 'I' for Inactive)
REMARK    1  A    between atoms: C_1  and  C_2
REMARK    2  A    between atoms: C_2  and  C_3
REMARK    3  A    between atoms: C_3  and  N_4
REMARK    4  A    between atoms: N_4  and  C_5
REMARK    5  A    between atoms: N_4  and  S_8
REMARK    6  A    between atoms: C_5  and  C_6
REMARK    7  A    between atoms: C_6  and  C_7
REMARK    8  A    between atoms: S_8  and  C_11
REMARK    9  A    between atoms: C_14  and  C_15
REMARK   10  A    between atoms: N_17  and  CA_18
REMARK   11  A    between atoms: CA_18  and  CB_19
REMARK   12  A    between atoms: CA_18  and  C_29
REMARK   13  A    between atoms: CB_19  and  CG_20
REMARK   14  A    between atoms: C_29  and  OXT_31
REMARK                            x       y       z     vdW  Elec       q    Type
REMARK                         _______ _______ _______ _____ _____    ______ ____
ROOT
ATOM      1  C   UNK A   0       2.291   5.079  19.184  0.00  0.00    +0.000 C 
ATOM      2  O   UNK A   0       2.722   4.395  20.106  0.00  0.00    +0.000 OA
ATOM      3  N   TRP A   1       2.009   4.539  17.954  0.00  0.00    +0.000 N 
ATOM      4  H   TRP A   1       1.964   5.171  17.157  0.00  0.00    +0.000 HD
ENDROOT
BRANCH   1   8
ATOM      5  C   UNK A   0       1.570   9.281  19.737  0.00  0.00    +0.000 A 
ATOM      6  C   UNK A   0       1.400   8.385  20.793  0.00  0.00    +0.000 A 
ATOM      7  C   UNK A   0       1.658   7.017  20.597  0.00  0.00    +0.000 A 
ATOM      8  C   UNK A   0       2.102   6.551  19.351  0.00  0.00    +0.000 A 
ATOM      9  C   UNK A   0       2.286   7.468  18.301  0.00  0.00    +0.000 A 
ATOM     10  C   UNK A   0       2.022   8.834  18.493  0.00  0.00    +0.000 A 
BRANCH   5  11
ATOM     11  S   UNK A   0       0.929  10.942  19.922  0.00  0.00    +0.000 S 
ATOM     12  O   UNK A   0       1.565  11.700  18.870  0.00  0.00    +0.000 OA
ATOM     13  O   UNK A   0       1.093  11.336  21.305  0.00  0.00    +0.000 OA
BRANCH  11  14
ATOM     14  N   UNK A   0      -0.792  10.786  19.606  0.00  0.00    +0.000 NA
BRANCH  14  15
ATOM     15  C   UNK A   0      -1.568  11.637  20.600  0.00  0.00    +0.000 C 
BRANCH  15  17
ATOM     16  C   UNK A   0      -3.633  13.090  21.046  0.00  0.00    +0.000 C 
ATOM     17  C   UNK A   0      -2.641  12.566  20.027  0.00  0.00    +0.000 C 
ENDBRANCH  15  17
ENDBRANCH  14  15
BRANCH  14  18
ATOM     18  C   UNK A   0      -1.184  11.097  18.182  0.00  0.00    +0.000 C 
BRANCH  18  19
ATOM     19  C   UNK A   0      -1.733   9.922  17.363  0.00  0.00    +0.000 C 
ATOM     20  C   UNK A   0      -3.239   9.739  17.440  0.00  0.00    +0.000 C 
ENDBRANCH  18  19
ENDBRANCH  14  18
ENDBRANCH  11  14
ENDBRANCH   5  11
ENDBRANCH   1   8
BRANCH   3  21
ATOM     21  CA  TRP A   1       2.319   3.143  17.608  0.00  0.00    +0.000 C 
BRANCH  21  22
ATOM     22  C   TRP A   1       1.404   2.303  18.528  0.00  0.00    +0.000 C 
ATOM     23  O   TRP A   1       0.177   2.337  18.464  0.00  0.00    +0.000 OA
BRANCH  22  24
ATOM     24  OXT TRP A   1       2.037   1.450  19.366  0.00  0.00    +0.000 OA
ATOM     25  HXT TRP A   1       1.920   0.506  19.152  0.00  0.00    +0.000 HD
ENDBRANCH  22  24
ENDBRANCH  21  22
BRANCH  21  26
ATOM     26  CB  TRP A   1       3.838   2.778  17.659  0.00  0.00    +0.000 C 
BRANCH  26  27
ATOM     27  CG  TRP A   1       4.748   3.885  17.198  0.00  0.00    +0.000 A 
ATOM     28  CD1 TRP A   1       4.548   4.596  16.031  0.00  0.00    +0.000 A 
ATOM     29  NE1 TRP A   1       5.794   4.983  15.656  0.00  0.00    +0.000 N 
ATOM     30  CE2 TRP A   1       6.380   5.424  16.821  0.00  0.00    +0.000 A 
ATOM     31  CZ2 TRP A   1       7.403   6.349  17.006  0.00  0.00    +0.000 A 
ATOM     32  CH2 TRP A   1       7.757   6.627  18.321  0.00  0.00    +0.000 A 
ATOM     33  CZ3 TRP A   1       7.168   5.940  19.383  0.00  0.00    +0.000 A 
ATOM     34  CE3 TRP A   1       6.195   4.941  19.165  0.00  0.00    +0.000 A 
ATOM     35  CD2 TRP A   1       5.744   4.705  17.850  0.00  0.00    +0.000 A 
ATOM     36  HE1 TRP A   1       6.348   4.430  15.017  0.00  0.00    +0.000 HD
ENDBRANCH  26  27
ENDBRANCH  21  26
ENDBRANCH   3  21
TORSDOF 12
ENDMDL
MODEL 5
REMARK VINA RESULT:      -7.6      5.963      9.817
REMARK  Name = 
REMARK  14 active torsions:
REMARK  status: ('A' for Active; 'I' for Inactive)
REMARK    1  A    between atoms: C_1  and  C_2
REMARK    2  A    between atoms: C_2  and  C_3
REMARK    3  A    between atoms: C_3  and  N_4
REMARK    4  A    between atoms: N_4  and  C_5
REMARK    5  A    between atoms: N_4  and  S_8
REMARK    6  A    between atoms: C_5  and  C_6
REMARK    7  A    between atoms: C_6  and  C_7
REMARK    8  A    between atoms: S_8  and  C_11
REMARK    9  A    between atoms: C_14  and  C_15
REMARK   10  A    between atoms: N_17  and  CA_18
REMARK   11  A    between atoms: CA_18  and  CB_19
REMARK   12  A    between atoms: CA_18  and  C_29
REMARK   13  A    between atoms: CB_19  and  CG_20
REMARK   14  A    between atoms: C_29  and  OXT_31
REMARK                            x       y       z     vdW  Elec       q    Type
REMARK                         _______ _______ _______ _____ _____    ______ ____
ROOT
ATOM      1  C   UNK A   0       7.716   7.549  18.226  0.00  0.00    +0.000 C 
ATOM      2  O   UNK A   0       8.293   6.703  18.898  0.00  0.00    +0.000 OA
ATOM      3  N   TRP A   1       6.624   7.239  17.453  0.00  0.00    +0.000 N 
ATOM      4  H   TRP A   1       6.386   7.872  16.693  0.00  0.00    +0.000 HD
ENDROOT
BRANCH   1   8
ATOM      5  C   UNK A   0       9.121  11.612  18.293  0.00  0.00    +0.000 A 
ATOM      6  C   UNK A   0       9.673  10.654  19.144  0.00  0.00    +0.000 A 
ATOM      7  C   UNK A   0       9.212   9.327  19.094  0.00  0.00    +0.000 A 
ATOM      8  C   UNK A   0       8.213   8.957  18.183  0.00  0.00    +0.000 A 
ATOM      9  C   UNK A   0       7.678   9.930  17.319  0.00  0.00    +0.000 A 
ATOM     10  C   UNK A   0       8.132  11.257  17.372  0.00  0.00    +0.000 A 
BRANCH   5  11
ATOM     11  S   UNK A   0       9.491  13.335  18.602  0.00  0.00    +0.000 S 
ATOM     12  O   UNK A   0       8.211  13.940  18.890  0.00  0.00    +0.000 OA
ATOM     13  O   UNK A   0      10.299  13.826  17.506  0.00  0.00    +0.000 OA
BRANCH  11  14
ATOM     14  N   UNK A   0      10.494  13.317  20.045  0.00  0.00    +0.000 NA
BRANCH  14  15
ATOM     15  C   UNK A   0      11.705  14.212  19.831  0.00  0.00    +0.000 C 
BRANCH  15  17
ATOM     16  C   UNK A   0      11.081  16.673  19.474  0.00  0.00    +0.000 C 
ATOM     17  C   UNK A   0      11.635  15.624  20.417  0.00  0.00    +0.000 C 
ENDBRANCH  15  17
ENDBRANCH  14  15
BRANCH  14  18
ATOM     18  C   UNK A   0       9.754  13.676  21.311  0.00  0.00    +0.000 C 
BRANCH  18  19
ATOM     19  C   UNK A   0       9.170  12.501  22.105  0.00  0.00    +0.000 C 
ATOM     20  C   UNK A   0       8.514  12.883  23.421  0.00  0.00    +0.000 C 
ENDBRANCH  18  19
ENDBRANCH  14  18
ENDBRANCH  11  14
ENDBRANCH   5  11
ENDBRANCH   1   8
BRANCH   3  21
ATOM     21  CA  TRP A   1       6.146   5.860  17.270  0.00  0.00    +0.000 C 
BRANCH  21  22
ATOM     22  C   TRP A   1       7.201   5.203  16.350  0.00  0.00    +0.000 C 
ATOM     23  O   TRP A   1       7.412   5.577  15.198  0.00  0.00    +0.000 OA
BRANCH  22  24
ATOM     24  OXT TRP A   1       7.954   4.232  16.918  0.00  0.00    +0.000 OA
ATOM     25  HXT TRP A   1       8.767   4.008  16.430  0.00  0.00    +0.000 HD
ENDBRANCH  22  24
ENDBRANCH  21  22
BRANCH  21  26
ATOM     26  CB  TRP A   1       4.665   5.739  16.784  0.00  0.00    +0.000 C 
BRANCH  26  27
ATOM     27  CG  TRP A   1       3.664   5.615  17.902  0.00  0.00    +0.000 A 
ATOM     28  CD1 TRP A   1       3.168   6.699  18.598  0.00  0.00    +0.000 A 
ATOM     29  NE1 TRP A   1       2.864   6.200  19.824  0.00  0.00    +0.000 N 
ATOM     30  CE2 TRP A   1       2.232   5.007  19.560  0.00  0.00    +0.000 A 
ATOM     31  CZ2 TRP A   1       1.298   4.308  20.320  0.00  0.00    +0.000 A 
ATOM     32  CH2 TRP A   1       0.797   3.137  19.764  0.00  0.00    +0.000 A 
ATOM     33  CZ3 TRP A   1       1.281   2.656  18.547  0.00  0.00    +0.000 A 
ATOM     34  CE3 TRP A   1       2.293   3.337  17.836  0.00  0.00    +0.000 A 
ATOM     35  CD2 TRP A   1       2.753   4.578  18.325  0.00  0.00    +0.000 A 
ATOM     36  HE1 TRP A   1       3.526   6.236  20.586  0.00  0.00    +0.000 HD
ENDBRANCH  26  27
ENDBRANCH  21  26
ENDBRANCH   3  21
TORSDOF 12
ENDMDL
MODEL 6
REMARK VINA RESULT:      -7.5      2.269      3.845
REMARK  Name = 
REMARK  14 active torsions:
REMARK  status: ('A' for Active; 'I' for Inactive)
REMARK    1  A    between atoms: C_1  and  C_2
REMARK    2  A    between atoms: C_2  and  C_3
REMARK    3  A    between atoms: C_3  and  N_4
REMARK    4  A    between atoms: N_4  and  C_5
REMARK    5  A    between atoms: N_4  and  S_8
REMARK    6  A    between atoms: C_5  and  C_6
REMARK    7  A    between atoms: C_6  and  C_7
REMARK    8  A    between atoms: S_8  and  C_11
REMARK    9  A    between atoms: C_14  and  C_15
REMARK   10  A    between atoms: N_17  and  CA_18
REMARK   11  A    between atoms: CA_18  and  CB_19
REMARK   12  A    between atoms: CA_18  and  C_29
REMARK   13  A    between atoms: CB_19  and  CG_20
REMARK   14  A    between atoms: C_29  and  OXT_31
REMARK                            x       y       z     vdW  Elec       q    Type
REMARK                         _______ _______ _______ _____ _____    ______ ____
ROOT
ATOM      1  C   UNK A   0       1.007   9.020  19.428  0.00  0.00    +0.000 C 
ATOM      2  O   UNK A   0       0.715   9.156  20.611  0.00  0.00    +0.000 OA
ATOM      3  N   TRP A   1       0.353   9.710  18.438  0.00  0.00    +0.000 N 
ATOM      4  H   TRP A   1       0.403   9.342  17.491  0.00  0.00    +0.000 HD
ENDROOT
BRANCH   1   8
ATOM      5  C   UNK A   0       4.131   6.251  18.400  0.00  0.00    +0.000 A 
ATOM      6  C   UNK A   0       3.393   6.087  19.573  0.00  0.00    +0.000 A 
ATOM      7  C   UNK A   0       2.363   6.993  19.882  0.00  0.00    +0.000 A 
ATOM      8  C   UNK A   0       2.063   8.050  19.011  0.00  0.00    +0.000 A 
ATOM      9  C   UNK A   0       2.804   8.193  17.824  0.00  0.00    +0.000 A 
ATOM     10  C   UNK A   0       3.837   7.293  17.517  0.00  0.00    +0.000 A 
BRANCH   5  11
ATOM     11  S   UNK A   0       5.627   5.290  18.199  0.00  0.00    +0.000 S 
ATOM     12  O   UNK A   0       5.895   4.749  19.511  0.00  0.00    +0.000 OA
ATOM     13  O   UNK A   0       6.611   6.121  17.539  0.00  0.00    +0.000 OA
BRANCH  11  14
ATOM     14  N   UNK A   0       5.176   4.003  17.090  0.00  0.00    +0.000 NA
BRANCH  14  15
ATOM     15  C   UNK A   0       4.005   3.223  17.670  0.00  0.00    +0.000 C 
BRANCH  15  17
ATOM     16  C   UNK A   0       1.488   3.640  17.920  0.00  0.00    +0.000 C 
ATOM     17  C   UNK A   0       2.650   3.393  16.979  0.00  0.00    +0.000 C 
ENDBRANCH  15  17
ENDBRANCH  14  15
BRANCH  14  18
ATOM     18  C   UNK A   0       4.889   4.476  15.686  0.00  0.00    +0.000 C 
BRANCH  18  19
ATOM     19  C   UNK A   0       6.080   4.480  14.721  0.00  0.00    +0.000 C 
ATOM     20  C   UNK A   0       5.851   3.730  13.420  0.00  0.00    +0.000 C 
ENDBRANCH  18  19
ENDBRANCH  14  18
ENDBRANCH  11  14
ENDBRANCH   5  11
ENDBRANCH   1   8
BRANCH   3  21
ATOM     21  CA  TRP A   1      -0.820  10.558  18.701  0.00  0.00    +0.000 C 
BRANCH  21  22
ATOM     22  C   TRP A   1      -1.564  10.621  17.348  0.00  0.00    +0.000 C 
ATOM     23  O   TRP A   1      -2.023   9.627  16.788  0.00  0.00    +0.000 OA
BRANCH  22  24
ATOM     24  OXT TRP A   1      -1.763  11.861  16.843  0.00  0.00    +0.000 OA
ATOM     25  HXT TRP A   1      -2.210  12.481  17.449  0.00  0.00    +0.000 HD
ENDBRANCH  22  24
ENDBRANCH  21  22
BRANCH  21  26
ATOM     26  CB  TRP A   1      -0.495  11.942  19.353  0.00  0.00    +0.000 C 
BRANCH  26  27
ATOM     27  CG  TRP A   1      -1.064  12.114  20.736  0.00  0.00    +0.000 A 
ATOM     28  CD1 TRP A   1      -0.285  12.355  21.851  0.00  0.00    +0.000 A 
ATOM     29  NE1 TRP A   1      -0.997  11.826  22.879  0.00  0.00    +0.000 N 
ATOM     30  CE2 TRP A   1      -2.289  12.240  22.647  0.00  0.00    +0.000 A 
ATOM     31  CZ2 TRP A   1      -3.334  12.435  23.546  0.00  0.00    +0.000 A 
ATOM     32  CH2 TRP A   1      -4.529  12.907  23.015  0.00  0.00    +0.000 A 
ATOM     33  CZ3 TRP A   1      -4.681  13.085  21.640  0.00  0.00    +0.000 A 
ATOM     34  CE3 TRP A   1      -3.635  12.794  20.738  0.00  0.00    +0.000 A 
ATOM     35  CD2 TRP A   1      -2.380  12.408  21.253  0.00  0.00    +0.000 A 
ATOM     36  HE1 TRP A   1      -0.843  10.878  23.193  0.00  0.00    +0.000 HD
ENDBRANCH  26  27
ENDBRANCH  21  26
ENDBRANCH   3  21
TORSDOF 12
ENDMDL
MODEL 7
REMARK VINA RESULT:      -7.5      2.421      3.521
REMARK  Name = 
REMARK  14 active torsions:
REMARK  status: ('A' for Active; 'I' for Inactive)
REMARK    1  A    between atoms: C_1  and  C_2
REMARK    2  A    between atoms: C_2  and  C_3
REMARK    3  A    between atoms: C_3  and  N_4
REMARK    4  A    between atoms: N_4  and  C_5
REMARK    5  A    between atoms: N_4  and  S_8
REMARK    6  A    between atoms: C_5  and  C_6
REMARK    7  A    between atoms: C_6  and  C_7
REMARK    8  A    between atoms: S_8  and  C_11
REMARK    9  A    between atoms: C_14  and  C_15
REMARK   10  A    between atoms: N_17  and  CA_18
REMARK   11  A    between atoms: CA_18  and  CB_19
REMARK   12  A    between atoms: CA_18  and  C_29
REMARK   13  A    between atoms: CB_19  and  CG_20
REMARK   14  A    between atoms: C_29  and  OXT_31
REMARK                            x       y       z     vdW  Elec       q    Type
REMARK                         _______ _______ _______ _____ _____    ______ ____
ROOT
ATOM      1  C   UNK A   0       1.361   8.896  19.940  0.00  0.00    +0.000 C 
ATOM      2  O   UNK A   0       0.972   9.041  21.093  0.00  0.00    +0.000 OA
ATOM      3  N   TRP A   1       1.257   9.900  19.009  0.00  0.00    +0.000 N 
ATOM      4  H   TRP A   1       1.291   9.641  18.026  0.00  0.00    +0.000 HD
ENDROOT
BRANCH   1   8
ATOM      5  C   UNK A   0       3.118   5.151  18.769  0.00  0.00    +0.000 A 
ATOM      6  C   UNK A   0       2.737   5.375  20.093  0.00  0.00    +0.000 A 
ATOM      7  C   UNK A   0       2.148   6.600  20.452  0.00  0.00    +0.000 A 
ATOM      8  C   UNK A   0       1.925   7.590  19.485  0.00  0.00    +0.000 A 
ATOM      9  C   UNK A   0       2.299   7.343  18.151  0.00  0.00    +0.000 A 
ATOM     10  C   UNK A   0       2.894   6.123  17.792  0.00  0.00    +0.000 A 
BRANCH   5  11
ATOM     11  S   UNK A   0       4.148   3.732  18.413  0.00  0.00    +0.000 S 
ATOM     12  O   UNK A   0       3.427   3.001  17.397  0.00  0.00    +0.000 OA
ATOM     13  O   UNK A   0       4.486   3.094  19.667  0.00  0.00    +0.000 OA
BRANCH  11  14
ATOM     14  N   UNK A   0       5.621   4.416  17.741  0.00  0.00    +0.000 NA
BRANCH  14  15
ATOM     15  C   UNK A   0       5.438   4.642  16.248  0.00  0.00    +0.000 C 
BRANCH  15  17
ATOM     16  C   UNK A   0       6.056   3.929  13.864  0.00  0.00    +0.000 C 
ATOM     17  C   UNK A   0       6.473   4.003  15.319  0.00  0.00    +0.000 C 
ENDBRANCH  15  17
ENDBRANCH  14  15
BRANCH  14  18
ATOM     18  C   UNK A   0       6.090   5.668  18.440  0.00  0.00    +0.000 C 
BRANCH  18  19
ATOM     19  C   UNK A   0       6.301   6.898  17.549  0.00  0.00    +0.000 C 
ATOM     20  C   UNK A   0       7.706   7.474  17.577  0.00  0.00    +0.000 C 
ENDBRANCH  18  19
ENDBRANCH  14  18
ENDBRANCH  11  14
ENDBRANCH   5  11
ENDBRANCH   1   8
BRANCH   3  21
ATOM     21  CA  TRP A   1       0.561  11.167  19.282  0.00  0.00    +0.000 C 
BRANCH  21  22
ATOM     22  C   TRP A   1       1.605  12.031  20.025  0.00  0.00    +0.000 C 
ATOM     23  O   TRP A   1       2.405  12.762  19.445  0.00  0.00    +0.000 OA
BRANCH  22  24
ATOM     24  OXT TRP A   1       1.534  12.006  21.377  0.00  0.00    +0.000 OA
ATOM     25  HXT TRP A   1       1.812  11.165  21.784  0.00  0.00    +0.000 HD
ENDBRANCH  22  24
ENDBRANCH  21  22
BRANCH  21  26
ATOM     26  CB  TRP A   1      -0.819  11.015  20.002  0.00  0.00    +0.000 C 
BRANCH  26  27
ATOM     27  CG  TRP A   1      -2.002  11.343  19.131  0.00  0.00    +0.000 A 
ATOM     28  CD1 TRP A   1      -2.757  12.490  19.277  0.00  0.00    +0.000 A 
ATOM     29  NE1 TRP A   1      -3.990  12.140  18.827  0.00  0.00    +0.000 N 
ATOM     30  CE2 TRP A   1      -3.743  11.435  17.671  0.00  0.00    +0.000 A 
ATOM     31  CZ2 TRP A   1      -4.552  11.251  16.553  0.00  0.00    +0.000 A 
ATOM     32  CH2 TRP A   1      -4.006  10.515  15.508  0.00  0.00    +0.000 A 
ATOM     33  CZ3 TRP A   1      -2.747   9.926  15.626  0.00  0.00    +0.000 A 
ATOM     34  CE3 TRP A   1      -1.982  10.053  16.805  0.00  0.00    +0.000 A 
ATOM     35  CD2 TRP A   1      -2.465  10.873  17.846  0.00  0.00    +0.000 A 
ATOM     36  HE1 TRP A   1      -4.704  11.801  19.456  0.00  0.00    +0.000 HD
ENDBRANCH  26  27
ENDBRANCH  21  26
ENDBRANCH   3  21
TORSDOF 12
ENDMDL
MODEL 8
REMARK VINA RESULT:      -7.4      2.662      9.605
REMARK  Name = 
REMARK  14 active torsions:
REMARK  status: ('A' for Active; 'I' for Inactive)
REMARK    1  A    between atoms: C_1  and  C_2
REMARK    2  A    between atoms: C_2  and  C_3
REMARK    3  A    between atoms: C_3  and  N_4
REMARK    4  A    between atoms: N_4  and  C_5
REMARK    5  A    between atoms: N_4  and  S_8
REMARK    6  A    between atoms: C_5  and  C_6
REMARK    7  A    between atoms: C_6  and  C_7
REMARK    8  A    between atoms: S_8  and  C_11
REMARK    9  A    between atoms: C_14  and  C_15
REMARK   10  A    between atoms: N_17  and  CA_18
REMARK   11  A    between atoms: CA_18  and  CB_19
REMARK   12  A    between atoms: CA_18  and  C_29
REMARK   13  A    between atoms: CB_19  and  CG_20
REMARK   14  A    between atoms: C_29  and  OXT_31
REMARK                            x       y       z     vdW  Elec       q    Type
REMARK                         _______ _______ _______ _____ _____    ______ ____
ROOT
ATOM      1  C   UNK A   0       2.425   6.777  18.899  0.00  0.00    +0.000 C 
ATOM      2  O   UNK A   0       3.018   6.772  17.827  0.00  0.00    +0.000 OA
ATOM      3  N   TRP A   1       2.273   5.636  19.648  0.00  0.00    +0.000 N 
ATOM      4  H   TRP A   1       1.527   5.619  20.340  0.00  0.00    +0.000 HD
ENDROOT
BRANCH   1   8
ATOM      5  C   UNK A   0       0.761  10.481  20.314  0.00  0.00    +0.000 A 
ATOM      6  C   UNK A   0       1.155  10.340  18.983  0.00  0.00    +0.000 A 
ATOM      7  C   UNK A   0       1.680   9.115  18.535  0.00  0.00    +0.000 A 
ATOM      8  C   UNK A   0       1.794   8.029  19.414  0.00  0.00    +0.000 A 
ATOM      9  C   UNK A   0       1.377   8.180  20.749  0.00  0.00    +0.000 A 
ATOM     10  C   UNK A   0       0.859   9.405  21.200  0.00  0.00    +0.000 A 
BRANCH   5  11
ATOM     11  S   UNK A   0       0.407  12.125  20.924  0.00  0.00    +0.000 S 
ATOM     12  O   UNK A   0       1.702  12.752  21.059  0.00  0.00    +0.000 OA
ATOM     13  O   UNK A   0      -0.465  12.001  22.072  0.00  0.00    +0.000 OA
BRANCH  11  14
ATOM     14  N   UNK A   0      -0.506  12.887  19.631  0.00  0.00    +0.000 NA
BRANCH  14  15
ATOM     15  C   UNK A   0      -1.835  12.167  19.459  0.00  0.00    +0.000 C 
BRANCH  15  17
ATOM     16  C   UNK A   0      -2.396  10.169  17.954  0.00  0.00    +0.000 C 
ATOM     17  C   UNK A   0      -2.174  11.664  18.053  0.00  0.00    +0.000 C 
ENDBRANCH  15  17
ENDBRANCH  14  15
BRANCH  14  18
ATOM     18  C   UNK A   0      -0.697  14.373  19.809  0.00  0.00    +0.000 C 
BRANCH  18  19
ATOM     19  C   UNK A   0       0.192  15.274  18.944  0.00  0.00    +0.000 C 
ATOM     20  C   UNK A   0      -0.469  16.557  18.468  0.00  0.00    +0.000 C 
ENDBRANCH  18  19
ENDBRANCH  14  18
ENDBRANCH  11  14
ENDBRANCH   5  11
ENDBRANCH   1   8
BRANCH   3  21
ATOM     21  CA  TRP A   1       2.690   4.309  19.168  0.00  0.00    +0.000 C 
BRANCH  21  22
ATOM     22  C   TRP A   1       1.574   3.355  19.649  0.00  0.00    +0.000 C 
ATOM     23  O   TRP A   1       1.647   2.132  19.545  0.00  0.00    +0.000 OA
BRANCH  22  24
ATOM     24  OXT TRP A   1       0.529   3.941  20.279  0.00  0.00    +0.000 OA
ATOM     25  HXT TRP A   1      -0.296   3.421  20.273  0.00  0.00    +0.000 HD
ENDBRANCH  22  24
ENDBRANCH  21  22
BRANCH  21  26
ATOM     26  CB  TRP A   1       4.144   3.896  19.568  0.00  0.00    +0.000 C 
BRANCH  26  27
ATOM     27  CG  TRP A   1       5.215   4.537  18.726  0.00  0.00    +0.000 A 
ATOM     28  CD1 TRP A   1       6.331   5.153  19.258  0.00  0.00    +0.000 A 
ATOM     29  NE1 TRP A   1       6.665   6.095  18.339  0.00  0.00    +0.000 N 
ATOM     30  CE2 TRP A   1       6.555   5.446  17.130  0.00  0.00    +0.000 A 
ATOM     31  CZ2 TRP A   1       7.201   5.701  15.924  0.00  0.00    +0.000 A 
ATOM     32  CH2 TRP A   1       6.916   4.836  14.873  0.00  0.00    +0.000 A 
ATOM     33  CZ3 TRP A   1       5.965   3.826  15.014  0.00  0.00    +0.000 A 
ATOM     34  CE3 TRP A   1       5.257   3.643  16.221  0.00  0.00    +0.000 A 
ATOM     35  CD2 TRP A   1       5.592   4.441  17.335  0.00  0.00    +0.000 A 
ATOM     36  HE1 TRP A   1       6.324   7.044  18.410  0.00  0.00    +0.000 HD
ENDBRANCH  26  27
ENDBRANCH  21  26
ENDBRANCH   3  21
TORSDOF 12
ENDMDL
MODEL 9
REMARK VINA RESULT:      -7.4      2.845      4.000
REMARK  Name = 
REMARK  14 active torsions:
REMARK  status: ('A' for Active; 'I' for Inactive)
REMARK    1  A    between atoms: C_1  and  C_2
REMARK    2  A    between atoms: C_2  and  C_3
REMARK    3  A    between atoms: C_3  and  N_4
REMARK    4  A    between atoms: N_4  and  C_5
REMARK    5  A    between atoms: N_4  and  S_8
REMARK    6  A    between atoms: C_5  and  C_6
REMARK    7  A    between atoms: C_6  and  C_7
REMARK    8  A    between atoms: S_8  and  C_11
REMARK    9  A    between atoms: C_14  and  C_15
REMARK   10  A    between atoms: N_17  and  CA_18
REMARK   11  A    between atoms: CA_18  and  CB_19
REMARK   12  A    between atoms: CA_18  and  C_29
REMARK   13  A    between atoms: CB_19  and  CG_20
REMARK   14  A    between atoms: C_29  and  OXT_31
REMARK                            x       y       z     vdW  Elec       q    Type
REMARK                         _______ _______ _______ _____ _____    ______ ____
ROOT
ATOM      1  C   UNK A   0       0.830   9.844  19.288  0.00  0.00    +0.000 C 
ATOM      2  O   UNK A   0       0.607  10.312  20.399  0.00  0.00    +0.000 OA
ATOM      3  N   TRP A   1       0.270  10.376  18.153  0.00  0.00    +0.000 N 
ATOM      4  H   TRP A   1       0.224   9.786  17.326  0.00  0.00    +0.000 HD
ENDROOT
BRANCH   1   8
ATOM      5  C   UNK A   0       3.215   6.320  18.669  0.00  0.00    +0.000 A 
ATOM      6  C   UNK A   0       3.122   7.299  17.679  0.00  0.00    +0.000 A 
ATOM      7  C   UNK A   0       2.351   8.453  17.908  0.00  0.00    +0.000 A 
ATOM      8  C   UNK A   0       1.690   8.632  19.131  0.00  0.00    +0.000 A 
ATOM      9  C   UNK A   0       1.807   7.645  20.126  0.00  0.00    +0.000 A 
ATOM     10  C   UNK A   0       2.570   6.489  19.896  0.00  0.00    +0.000 A 
BRANCH   5  11
ATOM     11  S   UNK A   0       3.924   4.737  18.231  0.00  0.00    +0.000 S 
ATOM     12  O   UNK A   0       3.080   4.237  17.171  0.00  0.00    +0.000 OA
ATOM     13  O   UNK A   0       4.100   3.971  19.446  0.00  0.00    +0.000 OA
BRANCH  11  14
ATOM     14  N   UNK A   0       5.519   5.128  17.605  0.00  0.00    +0.000 NA
BRANCH  14  15
ATOM     15  C   UNK A   0       6.493   5.284  18.763  0.00  0.00    +0.000 C 
BRANCH  15  17
ATOM     16  C   UNK A   0       7.513   7.385  17.706  0.00  0.00    +0.000 C 
ATOM     17  C   UNK A   0       7.749   6.118  18.504  0.00  0.00    +0.000 C 
ENDBRANCH  15  17
ENDBRANCH  14  15
BRANCH  14  18
ATOM     18  C   UNK A   0       6.030   4.151  16.575  0.00  0.00    +0.000 C 
BRANCH  18  19
ATOM     19  C   UNK A   0       6.503   4.757  15.248  0.00  0.00    +0.000 C 
ATOM     20  C   UNK A   0       6.098   3.977  14.009  0.00  0.00    +0.000 C 
ENDBRANCH  18  19
ENDBRANCH  14  18
ENDBRANCH  11  14
ENDBRANCH   5  11
ENDBRANCH   1   8
BRANCH   3  21
ATOM     21  CA  TRP A   1      -0.731  11.453  18.190  0.00  0.00    +0.000 C 
BRANCH  21  22
ATOM     22  C   TRP A   1       0.050  12.691  18.688  0.00  0.00    +0.000 C 
ATOM     23  O   TRP A   1      -0.307  13.366  19.651  0.00  0.00    +0.000 OA
BRANCH  22  24
ATOM     24  OXT TRP A   1       1.215  12.948  18.048  0.00  0.00    +0.000 OA
ATOM     25  HXT TRP A   1       1.274  13.835  17.650  0.00  0.00    +0.000 HD
ENDBRANCH  22  24
ENDBRANCH  21  22
BRANCH  21  26
ATOM     26  CB  TRP A   1      -2.030  11.113  18.992  0.00  0.00    +0.000 C 
BRANCH  26  27
ATOM     27  CG  TRP A   1      -3.303  11.401  18.242  0.00  0.00    +0.000 A 
ATOM     28  CD1 TRP A   1      -3.536  10.970  16.950  0.00  0.00    +0.000 A 
ATOM     29  NE1 TRP A   1      -4.388  11.894  16.437  0.00  0.00    +0.000 N 
ATOM     30  CE2 TRP A   1      -5.311  12.101  17.436  0.00  0.00    +0.000 A 
ATOM     31  CZ2 TRP A   1      -6.633  12.527  17.351  0.00  0.00    +0.000 A 
ATOM     32  CH2 TRP A   1      -7.341  12.600  18.545  0.00  0.00    +0.000 A 
ATOM     33  CZ3 TRP A   1      -6.716  12.340  19.765  0.00  0.00    +0.000 A 
ATOM     34  CE3 TRP A   1      -5.349  11.995  19.834  0.00  0.00    +0.000 A 
ATOM     35  CD2 TRP A   1      -4.629  11.818  18.634  0.00  0.00    +0.000 A 
ATOM     36  HE1 TRP A   1      -4.048  12.694  15.921  0.00  0.00    +0.000 HD
ENDBRANCH  26  27
ENDBRANCH  21  26
ENDBRANCH   3  21
TORSDOF 12
ENDMDL
