MODEL 1
REMARK VINA RESULT:      -8.3      0.000      0.000
REMARK  Name = 
REMARK  7 active torsions:
REMARK  status: ('A' for Active; 'I' for Inactive)
REMARK    1  A    between atoms: C_1  and  C_2
REMARK    2  A    between atoms: C_2  and  C_3
REMARK    3  A    between atoms: C_3  and  C_4
REMARK    4  A    between atoms: C_4  and  N_5
REMARK    5  A    between atoms: C_6  and  C_8
REMARK    6  A    between atoms: C_8  and  C_9
REMARK    7  A    between atoms: C_9  and  C_10
REMARK                            x       y       z     vdW  Elec       q    Type
REMARK                         _______ _______ _______ _____ _____    ______ ____
ROOT
ATOM      1  C   UNL     1       4.802   5.715  17.636  0.00  0.00    +0.000 C 
ATOM      2  O   UNL     1       5.037   5.601  19.015  0.00  0.00    +0.000 OA
ATOM      3  C   UNL     1       3.846   4.995  19.406  0.00  0.00    +0.000 C 
ATOM      4  O   UNL     1       3.656   3.997  20.074  0.00  0.00    +0.000 OA
ATOM      5  C   UNL     1       2.802   5.845  18.907  0.00  0.00    +0.000 A 
ATOM      6  C   UNL     1       3.345   6.479  17.867  0.00  0.00    +0.000 A 
ATOM      7  C   UNL     1       2.828   7.993  17.822  0.00  0.00    +0.000 A 
ATOM      8  C   UNL     1       2.072   8.558  18.849  0.00  0.00    +0.000 A 
ATOM      9  N   UNL     1       1.781   7.701  19.918  0.00  0.00    +0.000 N 
ATOM     10  C   UNL     1       1.910   6.360  19.941  0.00  0.00    +0.000 A 
ATOM     11  O   UNL     1       1.505   5.664  20.865  0.00  0.00    +0.000 OA
ATOM     12  C   UNL     1       1.351   8.334  21.129  0.00  0.00    +0.000 C 
ATOM     13  C   UNL     1       1.030   9.687  20.677  0.00  0.00    +0.000 A 
ATOM     14  C   UNL     1       0.369  10.600  21.479  0.00  0.00    +0.000 A 
ATOM     15  C   UNL     1      -0.095  11.755  20.912  0.00  0.00    +0.000 A 
ATOM     16  C   UNL     1      -0.825  12.635  21.736  0.00  0.00    +0.000 A 
ATOM     17  C   UNL     1      -1.370  13.785  21.196  0.00  0.00    +0.000 A 
ATOM     18  C   UNL     1      -1.196  14.027  19.835  0.00  0.00    +0.000 A 
ATOM     19  C   UNL     1      -0.455  13.115  19.040  0.00  0.00    +0.000 A 
ATOM     20  C   UNL     1       0.154  11.937  19.523  0.00  0.00    +0.000 A 
ATOM     21  N   UNL     1       0.906  11.023  18.746  0.00  0.00    +0.000 NA
ATOM     22  C   UNL     1       1.348   9.892  19.344  0.00  0.00    +0.000 A 
ENDROOT
BRANCH   1  24
ATOM     23  N   UNL     1       6.680   5.572  15.843  0.00  0.00    +0.000 N 
ATOM     24  C   UNL     1       5.502   6.198  16.223  0.00  0.00    +0.000 C 
ATOM     25  O   UNL     1       4.882   6.922  15.437  0.00  0.00    +0.000 OA
ATOM     26  H   UNL     1       6.992   4.836  16.461  0.00  0.00    +0.000 HD
BRANCH  23  27
ATOM     27  C   UNL     1       7.167   5.424  14.451  0.00  0.00    +0.000 C 
BRANCH  27  28
ATOM     28  C   UNL     1       6.863   4.151  13.643  0.00  0.00    +0.000 C 
BRANCH  28  30
ATOM     29  C   UNL     1       5.188   3.168  11.973  0.00  0.00    +0.000 C 
ATOM     30  C   UNL     1       5.400   3.904  13.286  0.00  0.00    +0.000 C 
ENDBRANCH  28  30
ENDBRANCH  27  28
ENDBRANCH  23  27
ENDBRANCH   1  24
BRANCH   1  31
ATOM     31  C   UNL     1       5.401   4.096  17.420  0.00  0.00    +0.000 C 
ATOM     32  C   UNL     1       4.584   2.865  16.872  0.00  0.00    +0.000 C 
ENDBRANCH   1  31
TORSDOF 5
ENDMDL
MODEL 2
REMARK VINA RESULT:      -8.1      2.486      3.640
REMARK  Name = 
REMARK  7 active torsions:
REMARK  status: ('A' for Active; 'I' for Inactive)
REMARK    1  A    between atoms: C_1  and  C_2
REMARK    2  A    between atoms: C_2  and  C_3
REMARK    3  A    between atoms: C_3  and  C_4
REMARK    4  A    between atoms: C_4  and  N_5
REMARK    5  A    between atoms: C_6  and  C_8
REMARK    6  A    between atoms: C_8  and  C_9
REMARK    7  A    between atoms: C_9  and  C_10
REMARK                            x       y       z     vdW  Elec       q    Type
REMARK                         _______ _______ _______ _____ _____    ______ ____
ROOT
ATOM      1  C   UNL     1       5.586   5.404  17.418  0.00  0.00    +0.000 C 
ATOM      2  O   UNL     1       5.377   4.542  18.506  0.00  0.00    +0.000 OA
ATOM      3  C   UNL     1       4.128   4.031  18.164  0.00  0.00    +0.000 C 
ATOM      4  O   UNL     1       3.744   2.880  18.089  0.00  0.00    +0.000 OA
ATOM      5  C   UNL     1       3.287   5.178  17.965  0.00  0.00    +0.000 A 
ATOM      6  C   UNL     1       4.125   6.164  17.637  0.00  0.00    +0.000 A 
ATOM      7  C   UNL     1       3.638   7.535  18.303  0.00  0.00    +0.000 A 
ATOM      8  C   UNL     1       2.594   7.592  19.226  0.00  0.00    +0.000 A 
ATOM      9  N   UNL     1       1.989   6.364  19.520  0.00  0.00    +0.000 N 
ATOM     10  C   UNL     1       2.113   5.213  18.830  0.00  0.00    +0.000 A 
ATOM     11  O   UNL     1       1.443   4.214  19.067  0.00  0.00    +0.000 OA
ATOM     12  C   UNL     1       1.196   6.325  20.712  0.00  0.00    +0.000 C 
ATOM     13  C   UNL     1       1.025   7.744  21.020  0.00  0.00    +0.000 A 
ATOM     14  C   UNL     1       0.139   8.193  21.983  0.00  0.00    +0.000 A 
ATOM     15  C   UNL     1      -0.131   9.532  22.051  0.00  0.00    +0.000 A 
ATOM     16  C   UNL     1      -1.088   9.954  22.996  0.00  0.00    +0.000 A 
ATOM     17  C   UNL     1      -1.444  11.288  23.061  0.00  0.00    +0.000 A 
ATOM     18  C   UNL     1      -0.854  12.178  22.166  0.00  0.00    +0.000 A 
ATOM     19  C   UNL     1       0.105  11.713  21.230  0.00  0.00    +0.000 A 
ATOM     20  C   UNL     1       0.540  10.374  21.121  0.00  0.00    +0.000 A 
ATOM     21  N   UNL     1       1.504   9.895  20.200  0.00  0.00    +0.000 NA
ATOM     22  C   UNL     1       1.743   8.564  20.164  0.00  0.00    +0.000 A 
ENDROOT
BRANCH   1  24
ATOM     23  N   UNL     1       6.908   7.643  17.398  0.00  0.00    +0.000 N 
ATOM     24  C   UNL     1       6.690   6.433  16.754  0.00  0.00    +0.000 C 
ATOM     25  O   UNL     1       7.445   6.043  15.858  0.00  0.00    +0.000 OA
ATOM     26  H   UNL     1       6.385   7.773  18.252  0.00  0.00    +0.000 HD
BRANCH  23  27
ATOM     27  C   UNL     1       8.158   8.436  17.341  0.00  0.00    +0.000 C 
BRANCH  27  28
ATOM     28  C   UNL     1       8.243   9.819  18.010  0.00  0.00    +0.000 C 
BRANCH  28  30
ATOM     29  C   UNL     1      10.102  11.177  19.132  0.00  0.00    +0.000 C 
ATOM     30  C   UNL     1       9.208   9.949  19.185  0.00  0.00    +0.000 C 
ENDBRANCH  28  30
ENDBRANCH  27  28
ENDBRANCH  23  27
ENDBRANCH   1  24
BRANCH   1  31
ATOM     31  C   UNL     1       6.233   4.067  16.510  0.00  0.00    +0.000 C 
ATOM     32  C   UNL     1       5.730   3.566  15.104  0.00  0.00    +0.000 C 
ENDBRANCH   1  31
TORSDOF 5
ENDMDL
MODEL 3
REMARK VINA RESULT:      -7.9      1.064      1.158
REMARK  Name = 
REMARK  7 active torsions:
REMARK  status: ('A' for Active; 'I' for Inactive)
REMARK    1  A    between atoms: C_1  and  C_2
REMARK    2  A    between atoms: C_2  and  C_3
REMARK    3  A    between atoms: C_3  and  C_4
REMARK    4  A    between atoms: C_4  and  N_5
REMARK    5  A    between atoms: C_6  and  C_8
REMARK    6  A    between atoms: C_8  and  C_9
REMARK    7  A    between atoms: C_9  and  C_10
REMARK                            x       y       z     vdW  Elec       q    Type
REMARK                         _______ _______ _______ _____ _____    ______ ____
ROOT
ATOM      1  C   UNL     1       4.571   4.675  18.279  0.00  0.00    +0.000 C 
ATOM      2  O   UNL     1       4.614   4.665  19.682  0.00  0.00    +0.000 OA
ATOM      3  C   UNL     1       3.300   4.294  19.955  0.00  0.00    +0.000 C 
ATOM      4  O   UNL     1       2.865   3.411  20.667  0.00  0.00    +0.000 OA
ATOM      5  C   UNL     1       2.482   5.242  19.252  0.00  0.00    +0.000 A 
ATOM      6  C   UNL     1       3.246   5.676  18.248  0.00  0.00    +0.000 A 
ATOM      7  C   UNL     1       3.000   7.240  18.013  0.00  0.00    +0.000 A 
ATOM      8  C   UNL     1       2.230   8.017  18.879  0.00  0.00    +0.000 A 
ATOM      9  N   UNL     1       1.672   7.328  19.963  0.00  0.00    +0.000 N 
ATOM     10  C   UNL     1       1.570   5.992  20.110  0.00  0.00    +0.000 A 
ATOM     11  O   UNL     1       0.945   5.464  21.022  0.00  0.00    +0.000 OA
ATOM     12  C   UNL     1       1.209   8.139  21.049  0.00  0.00    +0.000 C 
ATOM     13  C   UNL     1       1.178   9.473  20.452  0.00  0.00    +0.000 A 
ATOM     14  C   UNL     1       0.587  10.553  21.081  0.00  0.00    +0.000 A 
ATOM     15  C   UNL     1       0.396  11.704  20.366  0.00  0.00    +0.000 A 
ATOM     16  C   UNL     1      -0.271  12.765  21.010  0.00  0.00    +0.000 A 
ATOM     17  C   UNL     1      -0.545  13.926  20.311  0.00  0.00    +0.000 A 
ATOM     18  C   UNL     1      -0.169  14.000  18.971  0.00  0.00    +0.000 A 
ATOM     19  C   UNL     1       0.500  12.908  18.360  0.00  0.00    +0.000 A 
ATOM     20  C   UNL     1       0.840  11.704  19.014  0.00  0.00    +0.000 A 
ATOM     21  N   UNL     1       1.516  10.610  18.422  0.00  0.00    +0.000 NA
ATOM     22  C   UNL     1       1.686   9.490  19.163  0.00  0.00    +0.000 A 
ENDROOT
BRANCH   1  24
ATOM     23  N   UNL     1       5.123   4.256  15.773  0.00  0.00    +0.000 N 
ATOM     24  C   UNL     1       5.509   4.898  16.942  0.00  0.00    +0.000 C 
ATOM     25  O   UNL     1       6.380   5.773  16.931  0.00  0.00    +0.000 OA
ATOM     26  H   UNL     1       4.266   3.727  15.839  0.00  0.00    +0.000 HD
BRANCH  23  27
ATOM     27  C   UNL     1       5.437   4.711  14.397  0.00  0.00    +0.000 C 
BRANCH  27  28
ATOM     28  C   UNL     1       6.118   3.764  13.394  0.00  0.00    +0.000 C 
BRANCH  28  30
ATOM     29  C   UNL     1       5.792   2.076  11.496  0.00  0.00    +0.000 C 
ATOM     30  C   UNL     1       5.281   3.325  12.196  0.00  0.00    +0.000 C 
ENDBRANCH  28  30
ENDBRANCH  27  28
ENDBRANCH  23  27
ENDBRANCH   1  24
BRANCH   1  31
ATOM     31  C   UNL     1       4.912   2.968  18.278  0.00  0.00    +0.000 C 
ATOM     32  C   UNL     1       3.894   1.815  17.936  0.00  0.00    +0.000 C 
ENDBRANCH   1  31
TORSDOF 5
ENDMDL
MODEL 4
REMARK VINA RESULT:      -7.8      2.525      8.713
REMARK  Name = 
REMARK  7 active torsions:
REMARK  status: ('A' for Active; 'I' for Inactive)
REMARK    1  A    between atoms: C_1  and  C_2
REMARK    2  A    between atoms: C_2  and  C_3
REMARK    3  A    between atoms: C_3  and  C_4
REMARK    4  A    between atoms: C_4  and  N_5
REMARK    5  A    between atoms: C_6  and  C_8
REMARK    6  A    between atoms: C_8  and  C_9
REMARK    7  A    between atoms: C_9  and  C_10
REMARK                            x       y       z     vdW  Elec       q    Type
REMARK                         _______ _______ _______ _____ _____    ______ ____
ROOT
ATOM      1  C   UNL     1      -0.255  10.839  19.879  0.00  0.00    +0.000 C 
ATOM      2  O   UNL     1      -1.026   9.677  20.036  0.00  0.00    +0.000 OA
ATOM      3  C   UNL     1      -0.342   9.083  21.093  0.00  0.00    +0.000 C 
ATOM      4  O   UNL     1      -0.756   8.648  22.150  0.00  0.00    +0.000 OA
ATOM      5  C   UNL     1       1.026   9.003  20.667  0.00  0.00    +0.000 A 
ATOM      6  C   UNL     1       1.162   9.979  19.767  0.00  0.00    +0.000 A 
ATOM      7  C   UNL     1       2.113   9.493  18.576  0.00  0.00    +0.000 A 
ATOM      8  C   UNL     1       2.554   8.174  18.457  0.00  0.00    +0.000 A 
ATOM      9  N   UNL     1       2.117   7.306  19.465  0.00  0.00    +0.000 N 
ATOM     10  C   UNL     1       1.565   7.646  20.647  0.00  0.00    +0.000 A 
ATOM     11  O   UNL     1       1.336   6.837  21.537  0.00  0.00    +0.000 OA
ATOM     12  C   UNL     1       2.226   5.907  19.178  0.00  0.00    +0.000 C 
ATOM     13  C   UNL     1       3.113   5.895  18.015  0.00  0.00    +0.000 A 
ATOM     14  C   UNL     1       3.669   4.730  17.519  0.00  0.00    +0.000 A 
ATOM     15  C   UNL     1       4.661   4.826  16.581  0.00  0.00    +0.000 A 
ATOM     16  C   UNL     1       5.257   3.627  16.143  0.00  0.00    +0.000 A 
ATOM     17  C   UNL     1       6.307   3.673  15.244  0.00  0.00    +0.000 A 
ATOM     18  C   UNL     1       6.759   4.919  14.813  0.00  0.00    +0.000 A 
ATOM     19  C   UNL     1       6.130   6.102  15.279  0.00  0.00    +0.000 A 
ATOM     20  C   UNL     1       5.038   6.136  16.173  0.00  0.00    +0.000 A 
ATOM     21  N   UNL     1       4.393   7.307  16.639  0.00  0.00    +0.000 NA
ATOM     22  C   UNL     1       3.417   7.171  17.567  0.00  0.00    +0.000 A 
ENDROOT
BRANCH   1  24
ATOM     23  N   UNL     1       0.904  13.091  19.289  0.00  0.00    +0.000 N 
ATOM     24  C   UNL     1      -0.160  12.243  19.019  0.00  0.00    +0.000 C 
ATOM     25  O   UNL     1      -0.878  12.415  18.029  0.00  0.00    +0.000 OA
ATOM     26  H   UNL     1       1.559  12.750  19.979  0.00  0.00    +0.000 HD
BRANCH  23  27
ATOM     27  C   UNL     1       1.496  14.061  18.337  0.00  0.00    +0.000 C 
BRANCH  27  28
ATOM     28  C   UNL     1       1.437  15.572  18.617  0.00  0.00    +0.000 C 
BRANCH  28  30
ATOM     29  C   UNL     1       3.682  15.619  17.385  0.00  0.00    +0.000 C 
ATOM     30  C   UNL     1       2.655  16.391  18.197  0.00  0.00    +0.000 C 
ENDBRANCH  28  30
ENDBRANCH  27  28
ENDBRANCH  23  27
ENDBRANCH   1  24
BRANCH   1  31
ATOM     31  C   UNL     1      -1.211  11.615  21.109  0.00  0.00    +0.000 C 
ATOM     32  C   UNL     1      -0.673  12.242  22.450  0.00  0.00    +0.000 C 
ENDBRANCH   1  31
TORSDOF 5
ENDMDL
MODEL 5
REMARK VINA RESULT:      -7.6      3.037      9.001
REMARK  Name = 
REMARK  7 active torsions:
REMARK  status: ('A' for Active; 'I' for Inactive)
REMARK    1  A    between atoms: C_1  and  C_2
REMARK    2  A    between atoms: C_2  and  C_3
REMARK    3  A    between atoms: C_3  and  C_4
REMARK    4  A    between atoms: C_4  and  N_5
REMARK    5  A    between atoms: C_6  and  C_8
REMARK    6  A    between atoms: C_8  and  C_9
REMARK    7  A    between atoms: C_9  and  C_10
REMARK                            x       y       z     vdW  Elec       q    Type
REMARK                         _______ _______ _______ _____ _____    ______ ____
ROOT
ATOM      1  C   UNL     1      -0.857  12.551  20.392  0.00  0.00    +0.000 C 
ATOM      2  O   UNL     1      -1.605  11.556  21.040  0.00  0.00    +0.000 OA
ATOM      3  C   UNL     1      -0.755  11.282  22.108  0.00  0.00    +0.000 C 
ATOM      4  O   UNL     1      -0.984  11.236  23.301  0.00  0.00    +0.000 OA
ATOM      5  C   UNL     1       0.516  10.975  21.516  0.00  0.00    +0.000 A 
ATOM      6  C   UNL     1       0.506  11.602  20.339  0.00  0.00    +0.000 A 
ATOM      7  C   UNL     1       1.227  10.697  19.234  0.00  0.00    +0.000 A 
ATOM      8  C   UNL     1       1.621   9.382  19.481  0.00  0.00    +0.000 A 
ATOM      9  N   UNL     1       1.356   8.912  20.773  0.00  0.00    +0.000 N 
ATOM     10  C   UNL     1       1.024   9.648  21.852  0.00  0.00    +0.000 A 
ATOM     11  O   UNL     1       0.942   9.182  22.983  0.00  0.00    +0.000 OA
ATOM     12  C   UNL     1       1.393   7.490  20.943  0.00  0.00    +0.000 C 
ATOM     13  C   UNL     1       2.062   7.047  19.721  0.00  0.00    +0.000 A 
ATOM     14  C   UNL     1       2.506   5.749  19.548  0.00  0.00    +0.000 A 
ATOM     15  C   UNL     1       3.319   5.471  18.483  0.00  0.00    +0.000 A 
ATOM     16  C   UNL     1       3.813   4.157  18.369  0.00  0.00    +0.000 A 
ATOM     17  C   UNL     1       4.690   3.841  17.347  0.00  0.00    +0.000 A 
ATOM     18  C   UNL     1       5.077   4.850  16.468  0.00  0.00    +0.000 A 
ATOM     19  C   UNL     1       4.557   6.161  16.619  0.00  0.00    +0.000 A 
ATOM     20  C   UNL     1       3.639   6.553  17.616  0.00  0.00    +0.000 A 
ATOM     21  N   UNL     1       3.102   7.855  17.773  0.00  0.00    +0.000 NA
ATOM     22  C   UNL     1       2.301   8.089  18.839  0.00  0.00    +0.000 A 
ENDROOT
BRANCH   1  24
ATOM     23  N   UNL     1      -0.716  14.946  19.391  0.00  0.00    +0.000 N 
ATOM     24  C   UNL     1      -0.894  13.598  19.118  0.00  0.00    +0.000 C 
ATOM     25  O   UNL     1      -0.856  13.171  17.960  0.00  0.00    +0.000 OA
ATOM     26  H   UNL     1      -0.542  15.168  20.361  0.00  0.00    +0.000 HD
BRANCH  23  27
ATOM     27  C   UNL     1      -0.176  15.952  18.446  0.00  0.00    +0.000 C 
BRANCH  27  28
ATOM     28  C   UNL     1       1.268  16.464  18.584  0.00  0.00    +0.000 C 
BRANCH  28  30
ATOM     29  C   UNL     1       2.657  14.352  18.164  0.00  0.00    +0.000 C 
ATOM     30  C   UNL     1       2.293  15.471  19.127  0.00  0.00    +0.000 C 
ENDBRANCH  28  30
ENDBRANCH  27  28
ENDBRANCH  23  27
ENDBRANCH   1  24
BRANCH   1  31
ATOM     31  C   UNL     1      -1.572  13.742  21.439  0.00  0.00    +0.000 C 
ATOM     32  C   UNL     1      -0.827  14.571  22.552  0.00  0.00    +0.000 C 
ENDBRANCH   1  31
TORSDOF 5
ENDMDL
MODEL 6
REMARK VINA RESULT:      -7.5      3.720      9.876
REMARK  Name = 
REMARK  7 active torsions:
REMARK  status: ('A' for Active; 'I' for Inactive)
REMARK    1  A    between atoms: C_1  and  C_2
REMARK    2  A    between atoms: C_2  and  C_3
REMARK    3  A    between atoms: C_3  and  C_4
REMARK    4  A    between atoms: C_4  and  N_5
REMARK    5  A    between atoms: C_6  and  C_8
REMARK    6  A    between atoms: C_8  and  C_9
REMARK    7  A    between atoms: C_9  and  C_10
REMARK                            x       y       z     vdW  Elec       q    Type
REMARK                         _______ _______ _______ _____ _____    ______ ____
ROOT
ATOM      1  C   UNL     1       0.501  12.658  20.759  0.00  0.00    +0.000 C 
ATOM      2  O   UNL     1       1.823  12.774  20.304  0.00  0.00    +0.000 OA
ATOM      3  C   UNL     1       1.637  12.462  18.960  0.00  0.00    +0.000 C 
ATOM      4  O   UNL     1       1.989  13.057  17.960  0.00  0.00    +0.000 OA
ATOM      5  C   UNL     1       0.968  11.192  18.952  0.00  0.00    +0.000 A 
ATOM      6  C   UNL     1       0.333  11.132  20.125  0.00  0.00    +0.000 A 
ATOM      7  C   UNL     1       0.395   9.640  20.701  0.00  0.00    +0.000 A 
ATOM      8  C   UNL     1       1.169   8.639  20.113  0.00  0.00    +0.000 A 
ATOM      9  N   UNL     1       1.878   9.027  18.969  0.00  0.00    +0.000 N 
ATOM     10  C   UNL     1       1.690  10.143  18.238  0.00  0.00    +0.000 A 
ATOM     11  O   UNL     1       2.255  10.348  17.170  0.00  0.00    +0.000 OA
ATOM     12  C   UNL     1       2.949   8.164  18.573  0.00  0.00    +0.000 C 
ATOM     13  C   UNL     1       2.680   6.955  19.350  0.00  0.00    +0.000 A 
ATOM     14  C   UNL     1       3.348   5.765  19.127  0.00  0.00    +0.000 A 
ATOM     15  C   UNL     1       2.883   4.629  19.731  0.00  0.00    +0.000 A 
ATOM     16  C   UNL     1       3.541   3.419  19.432  0.00  0.00    +0.000 A 
ATOM     17  C   UNL     1       3.071   2.234  19.966  0.00  0.00    +0.000 A 
ATOM     18  C   UNL     1       1.936   2.273  20.774  0.00  0.00    +0.000 A 
ATOM     19  C   UNL     1       1.303   3.512  21.050  0.00  0.00    +0.000 A 
ATOM     20  C   UNL     1       1.739   4.764  20.566  0.00  0.00    +0.000 A 
ATOM     21  N   UNL     1       1.125   6.011  20.841  0.00  0.00    +0.000 NA
ATOM     22  C   UNL     1       1.615   7.111  20.223  0.00  0.00    +0.000 A 
ENDROOT
BRANCH   1  24
ATOM     23  N   UNL     1      -1.668  12.188  22.115  0.00  0.00    +0.000 N 
ATOM     24  C   UNL     1      -0.446  12.845  22.096  0.00  0.00    +0.000 C 
ATOM     25  O   UNL     1       0.015  13.362  23.119  0.00  0.00    +0.000 OA
ATOM     26  H   UNL     1      -1.857  11.613  21.306  0.00  0.00    +0.000 HD
BRANCH  23  27
ATOM     27  C   UNL     1      -2.396  11.758  23.333  0.00  0.00    +0.000 C 
BRANCH  27  28
ATOM     28  C   UNL     1      -3.597  12.564  23.855  0.00  0.00    +0.000 C 
BRANCH  28  30
ATOM     29  C   UNL     1      -2.932  14.742  25.028  0.00  0.00    +0.000 C 
ATOM     30  C   UNL     1      -3.484  14.084  23.774  0.00  0.00    +0.000 C 
ENDBRANCH  28  30
ENDBRANCH  27  28
ENDBRANCH  23  27
ENDBRANCH   1  24
BRANCH   1  31
ATOM     31  C   UNL     1       0.211  14.305  20.279  0.00  0.00    +0.000 C 
ATOM     32  C   UNL     1      -0.840  14.793  19.212  0.00  0.00    +0.000 C 
ENDBRANCH   1  31
TORSDOF 5
ENDMDL
MODEL 7
REMARK VINA RESULT:      -7.5      0.853      1.098
REMARK  Name = 
REMARK  7 active torsions:
REMARK  status: ('A' for Active; 'I' for Inactive)
REMARK    1  A    between atoms: C_1  and  C_2
REMARK    2  A    between atoms: C_2  and  C_3
REMARK    3  A    between atoms: C_3  and  C_4
REMARK    4  A    between atoms: C_4  and  N_5
REMARK    5  A    between atoms: C_6  and  C_8
REMARK    6  A    between atoms: C_8  and  C_9
REMARK    7  A    between atoms: C_9  and  C_10
REMARK                            x       y       z     vdW  Elec       q    Type
REMARK                         _______ _______ _______ _____ _____    ______ ____
ROOT
ATOM      1  C   UNL     1       4.412   5.327  17.897  0.00  0.00    +0.000 C 
ATOM      2  O   UNL     1       4.647   5.342  19.281  0.00  0.00    +0.000 OA
ATOM      3  C   UNL     1       3.403   4.915  19.736  0.00  0.00    +0.000 C 
ATOM      4  O   UNL     1       3.114   4.024  20.511  0.00  0.00    +0.000 OA
ATOM      5  C   UNL     1       2.451   5.812  19.144  0.00  0.00    +0.000 A 
ATOM      6  C   UNL     1       3.048   6.265  18.040  0.00  0.00    +0.000 A 
ATOM      7  C   UNL     1       2.696   7.811  17.826  0.00  0.00    +0.000 A 
ATOM      8  C   UNL     1       2.016   8.566  18.783  0.00  0.00    +0.000 A 
ATOM      9  N   UNL     1       1.647   7.869  19.940  0.00  0.00    +0.000 N 
ATOM     10  C   UNL     1       1.631   6.533  20.113  0.00  0.00    +0.000 A 
ATOM     11  O   UNL     1       1.164   5.991  21.108  0.00  0.00    +0.000 OA
ATOM     12  C   UNL     1       1.300   8.675  21.072  0.00  0.00    +0.000 C 
ATOM     13  C   UNL     1       1.122   9.997  20.472  0.00  0.00    +0.000 A 
ATOM     14  C   UNL     1       0.572  11.058  21.167  0.00  0.00    +0.000 A 
ATOM     15  C   UNL     1       0.228  12.187  20.474  0.00  0.00    +0.000 A 
ATOM     16  C   UNL     1      -0.394  13.227  21.193  0.00  0.00    +0.000 A 
ATOM     17  C   UNL     1      -0.818  14.362  20.528  0.00  0.00    +0.000 A 
ATOM     18  C   UNL     1      -0.634  14.431  19.148  0.00  0.00    +0.000 A 
ATOM     19  C   UNL     1      -0.003  13.362  18.461  0.00  0.00    +0.000 A 
ATOM     20  C   UNL     1       0.481  12.186  19.073  0.00  0.00    +0.000 A 
ATOM     21  N   UNL     1       1.122  11.115  18.404  0.00  0.00    +0.000 NA
ATOM     22  C   UNL     1       1.446  10.016  19.125  0.00  0.00    +0.000 A 
ENDROOT
BRANCH   1  24
ATOM     23  N   UNL     1       5.227   4.491  15.574  0.00  0.00    +0.000 N 
ATOM     24  C   UNL     1       5.144   5.572  16.440  0.00  0.00    +0.000 C 
ATOM     25  O   UNL     1       5.399   6.717  16.057  0.00  0.00    +0.000 OA
ATOM     26  H   UNL     1       4.792   3.642  15.906  0.00  0.00    +0.000 HD
BRANCH  23  27
ATOM     27  C   UNL     1       5.313   4.576  14.097  0.00  0.00    +0.000 C 
BRANCH  27  28
ATOM     28  C   UNL     1       6.290   3.681  13.314  0.00  0.00    +0.000 C 
BRANCH  28  30
ATOM     29  C   UNL     1       8.022   5.472  12.722  0.00  0.00    +0.000 C 
ATOM     30  C   UNL     1       7.112   4.361  12.223  0.00  0.00    +0.000 C 
ENDBRANCH  28  30
ENDBRANCH  27  28
ENDBRANCH  23  27
ENDBRANCH   1  24
BRANCH   1  31
ATOM     31  C   UNL     1       4.831   3.638  17.865  0.00  0.00    +0.000 C 
ATOM     32  C   UNL     1       3.830   2.433  17.693  0.00  0.00    +0.000 C 
ENDBRANCH   1  31
TORSDOF 5
ENDMDL
MODEL 8
REMARK VINA RESULT:      -7.5      1.174      1.283
REMARK  Name = 
REMARK  7 active torsions:
REMARK  status: ('A' for Active; 'I' for Inactive)
REMARK    1  A    between atoms: C_1  and  C_2
REMARK    2  A    between atoms: C_2  and  C_3
REMARK    3  A    between atoms: C_3  and  C_4
REMARK    4  A    between atoms: C_4  and  N_5
REMARK    5  A    between atoms: C_6  and  C_8
REMARK    6  A    between atoms: C_8  and  C_9
REMARK    7  A    between atoms: C_9  and  C_10
REMARK                            x       y       z     vdW  Elec       q    Type
REMARK                         _______ _______ _______ _____ _____    ______ ____
ROOT
ATOM      1  C   UNL     1       5.511   5.750  17.352  0.00  0.00    +0.000 C 
ATOM      2  O   UNL     1       5.865   5.948  18.695  0.00  0.00    +0.000 OA
ATOM      3  C   UNL     1       4.921   5.130  19.310  0.00  0.00    +0.000 C 
ATOM      4  O   UNL     1       5.064   4.252  20.138  0.00  0.00    +0.000 OA
ATOM      5  C   UNL     1       3.649   5.575  18.813  0.00  0.00    +0.000 A 
ATOM      6  C   UNL     1       3.920   6.134  17.632  0.00  0.00    +0.000 A 
ATOM      7  C   UNL     1       3.000   7.427  17.420  0.00  0.00    +0.000 A 
ATOM      8  C   UNL     1       2.191   7.947  18.431  0.00  0.00    +0.000 A 
ATOM      9  N   UNL     1       2.227   7.247  19.644  0.00  0.00    +0.000 N 
ATOM     10  C   UNL     1       2.725   6.013  19.854  0.00  0.00    +0.000 A 
ATOM     11  O   UNL     1       2.596   5.410  20.913  0.00  0.00    +0.000 OA
ATOM     12  C   UNL     1       1.724   7.949  20.787  0.00  0.00    +0.000 C 
ATOM     13  C   UNL     1       1.009   9.069  20.176  0.00  0.00    +0.000 A 
ATOM     14  C   UNL     1       0.179   9.903  20.903  0.00  0.00    +0.000 A 
ATOM     15  C   UNL     1      -0.627  10.777  20.226  0.00  0.00    +0.000 A 
ATOM     16  C   UNL     1      -1.512  11.566  20.986  0.00  0.00    +0.000 A 
ATOM     17  C   UNL     1      -2.393  12.418  20.346  0.00  0.00    +0.000 A 
ATOM     18  C   UNL     1      -2.390  12.453  18.952  0.00  0.00    +0.000 A 
ATOM     19  C   UNL     1      -1.482  11.641  18.224  0.00  0.00    +0.000 A 
ATOM     20  C   UNL     1      -0.537  10.769  18.805  0.00  0.00    +0.000 A 
ATOM     21  N   UNL     1       0.383   9.961  18.093  0.00  0.00    +0.000 NA
ATOM     22  C   UNL     1       1.163   9.110  18.800  0.00  0.00    +0.000 A 
ENDROOT
BRANCH   1  24
ATOM     23  N   UNL     1       7.009   5.448  15.248  0.00  0.00    +0.000 N 
ATOM     24  C   UNL     1       5.947   6.142  15.810  0.00  0.00    +0.000 C 
ATOM     25  O   UNL     1       5.216   6.859  15.120  0.00  0.00    +0.000 OA
ATOM     26  H   UNL     1       7.406   4.726  15.832  0.00  0.00    +0.000 HD
BRANCH  23  27
ATOM     27  C   UNL     1       7.217   5.221  13.798  0.00  0.00    +0.000 C 
BRANCH  27  28
ATOM     28  C   UNL     1       6.673   3.954  13.116  0.00  0.00    +0.000 C 
BRANCH  28  30
ATOM     29  C   UNL     1       4.754   3.166  11.613  0.00  0.00    +0.000 C 
ATOM     30  C   UNL     1       5.166   3.902  12.878  0.00  0.00    +0.000 C 
ENDBRANCH  28  30
ENDBRANCH  27  28
ENDBRANCH  23  27
ENDBRANCH   1  24
BRANCH   1  31
ATOM     31  C   UNL     1       6.520   4.333  17.316  0.00  0.00    +0.000 C 
ATOM     32  C   UNL     1       8.010   4.238  17.817  0.00  0.00    +0.000 C 
ENDBRANCH   1  31
TORSDOF 5
ENDMDL
MODEL 9
REMARK VINA RESULT:      -7.5      3.057      9.365
REMARK  Name = 
REMARK  7 active torsions:
REMARK  status: ('A' for Active; 'I' for Inactive)
REMARK    1  A    between atoms: C_1  and  C_2
REMARK    2  A    between atoms: C_2  and  C_3
REMARK    3  A    between atoms: C_3  and  C_4
REMARK    4  A    between atoms: C_4  and  N_5
REMARK    5  A    between atoms: C_6  and  C_8
REMARK    6  A    between atoms: C_8  and  C_9
REMARK    7  A    between atoms: C_9  and  C_10
REMARK                            x       y       z     vdW  Elec       q    Type
REMARK                         _______ _______ _______ _____ _____    ______ ____
ROOT
ATOM      1  C   UNL     1      -0.759  12.490  20.508  0.00  0.00    +0.000 C 
ATOM      2  O   UNL     1      -1.530  11.476  21.096  0.00  0.00    +0.000 OA
ATOM      3  C   UNL     1      -0.701  11.138  22.163  0.00  0.00    +0.000 C 
ATOM      4  O   UNL     1      -0.949  11.039  23.348  0.00  0.00    +0.000 OA
ATOM      5  C   UNL     1       0.574  10.841  21.575  0.00  0.00    +0.000 A 
ATOM      6  C   UNL     1       0.591  11.525  20.429  0.00  0.00    +0.000 A 
ATOM      7  C   UNL     1       1.317  10.664  19.292  0.00  0.00    +0.000 A 
ATOM      8  C   UNL     1       1.688   9.332  19.481  0.00  0.00    +0.000 A 
ATOM      9  N   UNL     1       1.396   8.805  20.745  0.00  0.00    +0.000 N 
ATOM     10  C   UNL     1       1.058   9.492  21.853  0.00  0.00    +0.000 A 
ATOM     11  O   UNL     1       0.953   8.973  22.958  0.00  0.00    +0.000 OA
ATOM     12  C   UNL     1       1.411   7.376  20.847  0.00  0.00    +0.000 C 
ATOM     13  C   UNL     1       2.092   6.983  19.614  0.00  0.00    +0.000 A 
ATOM     14  C   UNL     1       2.520   5.688  19.384  0.00  0.00    +0.000 A 
ATOM     15  C   UNL     1       3.346   5.450  18.320  0.00  0.00    +0.000 A 
ATOM     16  C   UNL     1       3.822   4.135  18.149  0.00  0.00    +0.000 A 
ATOM     17  C   UNL     1       4.710   3.856  17.126  0.00  0.00    +0.000 A 
ATOM     18  C   UNL     1       5.125   4.900  16.303  0.00  0.00    +0.000 A 
ATOM     19  C   UNL     1       4.621   6.210  16.509  0.00  0.00    +0.000 A 
ATOM     20  C   UNL     1       3.693   6.567  17.511  0.00  0.00    +0.000 A 
ATOM     21  N   UNL     1       3.173   7.868  17.723  0.00  0.00    +0.000 NA
ATOM     22  C   UNL     1       2.359   8.062  18.787  0.00  0.00    +0.000 A 
ENDROOT
BRANCH   1  24
ATOM     23  N   UNL     1      -0.297  14.873  19.575  0.00  0.00    +0.000 N 
ATOM     24  C   UNL     1      -0.762  13.598  19.287  0.00  0.00    +0.000 C 
ATOM     25  O   UNL     1      -0.957  13.239  18.121  0.00  0.00    +0.000 OA
ATOM     26  H   UNL     1       0.042  15.002  20.518  0.00  0.00    +0.000 HD
BRANCH  23  27
ATOM     27  C   UNL     1       0.298  15.814  18.597  0.00  0.00    +0.000 C 
BRANCH  27  28
ATOM     28  C   UNL     1       0.288  17.330  18.860  0.00  0.00    +0.000 C 
BRANCH  28  30
ATOM     29  C   UNL     1       0.115  18.373  16.527  0.00  0.00    +0.000 C 
ATOM     30  C   UNL     1      -0.526  18.184  17.892  0.00  0.00    +0.000 C 
ENDBRANCH  28  30
ENDBRANCH  27  28
ENDBRANCH  23  27
ENDBRANCH   1  24
BRANCH   1  31
ATOM     31  C   UNL     1      -1.473  13.640  21.602  0.00  0.00    +0.000 C 
ATOM     32  C   UNL     1      -0.728  14.418  22.752  0.00  0.00    +0.000 C 
ENDBRANCH   1  31
TORSDOF 5
ENDMDL
