MODEL 1
REMARK VINA RESULT:      -7.7      0.000      0.000
REMARK  Name = 
REMARK  11 active torsions:
REMARK  status: ('A' for Active; 'I' for Inactive)
REMARK    1  A    between atoms: C_1  and  C_2
REMARK    2  A    between atoms: C_2  and  O_3
REMARK    3  A    between atoms: O_3  and  C_4
REMARK    4  A    between atoms: C_7  and  S_8
REMARK    5  A    between atoms: S_8  and  N_11
REMARK    6  A    between atoms: N_11  and  C_12
REMARK    7  A    between atoms: C_12  and  C_13
REMARK    8  A    between atoms: C_13  and  C_14
REMARK    9  A    between atoms: N_16  and  C_17
REMARK   10  A    between atoms: N_20  and  C_21
REMARK   11  A    between atoms: C_21  and  C_22
REMARK                            x       y       z     vdW  Elec       q    Type
REMARK                         _______ _______ _______ _____ _____    ______ ____
ROOT
ATOM      1  C   UNL     1       8.128   8.369  18.034  0.00  0.00    +0.000 C 
ATOM      2  O   UNL     1       8.763   7.868  18.947  0.00  0.00    +0.000 OA
ATOM      3  N   UNL     1       7.374   7.656  17.122  0.00  0.00    +0.000 N 
ATOM      4  H   UNL     1       6.452   8.076  17.054  0.00  0.00    +0.000 HD
ENDROOT
BRANCH   3   5
ATOM      5  C   UNL     1       7.349   6.203  16.951  0.00  0.00    +0.000 C 
ATOM      6  C   UNL     1       6.423   5.663  15.860  0.00  0.00    +0.000 C 
ATOM      7  C   UNL     1       4.947   5.858  16.197  0.00  0.00    +0.000 C 
ATOM      8  N   UNL     1       4.557   5.281  17.500  0.00  0.00    +0.000 NA
ATOM      9  C   UNL     1       5.434   5.749  18.580  0.00  0.00    +0.000 C 
ATOM     10  C   UNL     1       6.929   5.564  18.282  0.00  0.00    +0.000 C 
BRANCH   8  11
ATOM     11  C   UNL     1       3.144   5.662  17.760  0.00  0.00    +0.000 C 
BRANCH  11  12
ATOM     12  C   UNL     1       2.319   4.658  18.537  0.00  0.00    +0.000 A 
ATOM     13  C   UNL     1       1.933   4.932  19.859  0.00  0.00    +0.000 A 
ATOM     14  C   UNL     1       1.118   4.041  20.563  0.00  0.00    +0.000 A 
ATOM     15  C   UNL     1       0.676   2.871  19.950  0.00  0.00    +0.000 A 
ATOM     16  C   UNL     1       1.063   2.582  18.642  0.00  0.00    +0.000 A 
ATOM     17  C   UNL     1       1.885   3.467  17.941  0.00  0.00    +0.000 A 
ENDBRANCH  11  12
ENDBRANCH   8  11
ENDBRANCH   3   5
BRANCH   1  18
ATOM     18  C   UNL     1       8.027   9.880  17.825  0.00  0.00    +0.000 C 
BRANCH  18  19
ATOM     19  C   UNL     1       9.365  10.622  17.989  0.00  0.00    +0.000 C 
BRANCH  19  20
ATOM     20  N   UNL     1       9.775  10.713  19.415  0.00  0.00    +0.000 NA
ATOM     21  H   UNL     1       8.969  10.742  20.039  0.00  0.00    +0.000 HD
BRANCH  20  22
ATOM     22  S   UNL     1      10.648  12.067  19.916  0.00  0.00    +0.000 S 
ATOM     23  O   UNL     1      10.488  13.047  18.864  0.00  0.00    +0.000 OA
ATOM     24  O   UNL     1      11.959  11.611  20.325  0.00  0.00    +0.000 OA
BRANCH  22  28
ATOM     25  C   UNL     1       8.182  13.616  23.376  0.00  0.00    +0.000 A 
ATOM     26  C   UNL     1       9.095  14.453  22.738  0.00  0.00    +0.000 A 
ATOM     27  C   UNL     1       9.874  13.970  21.696  0.00  0.00    +0.000 A 
ATOM     28  C   UNL     1       9.742  12.638  21.312  0.00  0.00    +0.000 A 
ATOM     29  C   UNL     1       8.860  11.781  21.960  0.00  0.00    +0.000 A 
ATOM     30  C   UNL     1       8.079  12.270  23.010  0.00  0.00    +0.000 A 
BRANCH  25  31
ATOM     31  O   UNL     1       7.444  14.224  24.354  0.00  0.00    +0.000 OA
BRANCH  31  33
ATOM     32  C   UNL     1       8.213  13.605  26.513  0.00  0.00    +0.000 C 
ATOM     33  C   UNL     1       8.181  14.711  25.475  0.00  0.00    +0.000 C 
ENDBRANCH  31  33
ENDBRANCH  25  31
ENDBRANCH  22  28
ENDBRANCH  20  22
ENDBRANCH  19  20
ENDBRANCH  18  19
ENDBRANCH   1  18
TORSDOF 10
ENDMDL
MODEL 2
REMARK VINA RESULT:      -7.6      2.214      2.956
REMARK  Name = 
REMARK  11 active torsions:
REMARK  status: ('A' for Active; 'I' for Inactive)
REMARK    1  A    between atoms: C_1  and  C_2
REMARK    2  A    between atoms: C_2  and  O_3
REMARK    3  A    between atoms: O_3  and  C_4
REMARK    4  A    between atoms: C_7  and  S_8
REMARK    5  A    between atoms: S_8  and  N_11
REMARK    6  A    between atoms: N_11  and  C_12
REMARK    7  A    between atoms: C_12  and  C_13
REMARK    8  A    between atoms: C_13  and  C_14
REMARK    9  A    between atoms: N_16  and  C_17
REMARK   10  A    between atoms: N_20  and  C_21
REMARK   11  A    between atoms: C_21  and  C_22
REMARK                            x       y       z     vdW  Elec       q    Type
REMARK                         _______ _______ _______ _____ _____    ______ ____
ROOT
ATOM      1  C   UNL     1       8.120   8.009  18.026  0.00  0.00    +0.000 C 
ATOM      2  O   UNL     1       8.631   7.431  18.971  0.00  0.00    +0.000 OA
ATOM      3  N   UNL     1       7.383   7.388  17.036  0.00  0.00    +0.000 N 
ATOM      4  H   UNL     1       6.510   7.891  16.907  0.00  0.00    +0.000 HD
ENDROOT
BRANCH   3   5
ATOM      5  C   UNL     1       7.243   5.948  16.820  0.00  0.00    +0.000 C 
ATOM      6  C   UNL     1       6.224   5.514  15.764  0.00  0.00    +0.000 C 
ATOM      7  C   UNL     1       4.787   5.802  16.187  0.00  0.00    +0.000 C 
ATOM      8  N   UNL     1       4.424   5.208  17.490  0.00  0.00    +0.000 NA
ATOM      9  C   UNL     1       5.387   5.573  18.535  0.00  0.00    +0.000 C 
ATOM     10  C   UNL     1       6.847   5.293  18.151  0.00  0.00    +0.000 C 
BRANCH   8  11
ATOM     11  C   UNL     1       3.058   5.679  17.839  0.00  0.00    +0.000 C 
BRANCH  11  12
ATOM     12  C   UNL     1       2.205   4.711  18.633  0.00  0.00    +0.000 A 
ATOM     13  C   UNL     1       1.708   3.546  18.027  0.00  0.00    +0.000 A 
ATOM     14  C   UNL     1       0.975   2.615  18.767  0.00  0.00    +0.000 A 
ATOM     15  C   UNL     1       0.736   2.837  20.121  0.00  0.00    +0.000 A 
ATOM     16  C   UNL     1       1.213   3.997  20.731  0.00  0.00    +0.000 A 
ATOM     17  C   UNL     1       1.939   4.932  19.990  0.00  0.00    +0.000 A 
ENDBRANCH  11  12
ENDBRANCH   8  11
ENDBRANCH   3   5
BRANCH   1  18
ATOM     18  C   UNL     1       8.171   9.527  17.855  0.00  0.00    +0.000 C 
BRANCH  18  19
ATOM     19  C   UNL     1       9.162  10.227  18.802  0.00  0.00    +0.000 C 
BRANCH  19  20
ATOM     20  N   UNL     1      10.018  11.205  18.081  0.00  0.00    +0.000 NA
ATOM     21  H   UNL     1      10.778  10.746  17.579  0.00  0.00    +0.000 HD
BRANCH  20  22
ATOM     22  S   UNL     1      10.850  12.364  18.982  0.00  0.00    +0.000 S 
ATOM     23  O   UNL     1      11.915  12.835  18.123  0.00  0.00    +0.000 OA
ATOM     24  O   UNL     1      11.130  11.786  20.278  0.00  0.00    +0.000 OA
BRANCH  22  28
ATOM     25  C   UNL     1       7.999  15.843  19.444  0.00  0.00    +0.000 A 
ATOM     26  C   UNL     1       8.344  15.070  20.551  0.00  0.00    +0.000 A 
ATOM     27  C   UNL     1       9.194  13.983  20.404  0.00  0.00    +0.000 A 
ATOM     28  C   UNL     1       9.682  13.670  19.139  0.00  0.00    +0.000 A 
ATOM     29  C   UNL     1       9.323  14.413  18.019  0.00  0.00    +0.000 A 
ATOM     30  C   UNL     1       8.464  15.504  18.169  0.00  0.00    +0.000 A 
BRANCH  25  31
ATOM     31  O   UNL     1       7.192  16.911  19.729  0.00  0.00    +0.000 OA
BRANCH  31  33
ATOM     32  C   UNL     1       4.969  16.122  19.467  0.00  0.00    +0.000 C 
ATOM     33  C   UNL     1       6.033  17.049  18.908  0.00  0.00    +0.000 C 
ENDBRANCH  31  33
ENDBRANCH  25  31
ENDBRANCH  22  28
ENDBRANCH  20  22
ENDBRANCH  19  20
ENDBRANCH  18  19
ENDBRANCH   1  18
TORSDOF 10
ENDMDL
MODEL 3
REMARK VINA RESULT:      -7.4      3.048      3.673
REMARK  Name = 
REMARK  11 active torsions:
REMARK  status: ('A' for Active; 'I' for Inactive)
REMARK    1  A    between atoms: C_1  and  C_2
REMARK    2  A    between atoms: C_2  and  O_3
REMARK    3  A    between atoms: O_3  and  C_4
REMARK    4  A    between atoms: C_7  and  S_8
REMARK    5  A    between atoms: S_8  and  N_11
REMARK    6  A    between atoms: N_11  and  C_12
REMARK    7  A    between atoms: C_12  and  C_13
REMARK    8  A    between atoms: C_13  and  C_14
REMARK    9  A    between atoms: N_16  and  C_17
REMARK   10  A    between atoms: N_20  and  C_21
REMARK   11  A    between atoms: C_21  and  C_22
REMARK                            x       y       z     vdW  Elec       q    Type
REMARK                         _______ _______ _______ _____ _____    ______ ____
ROOT
ATOM      1  C   UNL     1       8.077   8.284  18.020  0.00  0.00    +0.000 C 
ATOM      2  O   UNL     1       8.705   7.782  18.937  0.00  0.00    +0.000 OA
ATOM      3  N   UNL     1       7.308   7.574  17.118  0.00  0.00    +0.000 N 
ATOM      4  H   UNL     1       6.393   8.009  17.047  0.00  0.00    +0.000 HD
ENDROOT
BRANCH   3   5
ATOM      5  C   UNL     1       7.257   6.120  16.964  0.00  0.00    +0.000 C 
ATOM      6  C   UNL     1       6.314   5.583  15.886  0.00  0.00    +0.000 C 
ATOM      7  C   UNL     1       4.845   5.807  16.230  0.00  0.00    +0.000 C 
ATOM      8  N   UNL     1       4.454   5.251  17.542  0.00  0.00    +0.000 NA
ATOM      9  C   UNL     1       5.346   5.717  18.611  0.00  0.00    +0.000 C 
ATOM     10  C   UNL     1       6.836   5.503  18.305  0.00  0.00    +0.000 C 
BRANCH   8  11
ATOM     11  C   UNL     1       3.049   5.659  17.807  0.00  0.00    +0.000 C 
BRANCH  11  12
ATOM     12  C   UNL     1       2.206   4.668  18.581  0.00  0.00    +0.000 A 
ATOM     13  C   UNL     1       1.750   3.492  17.963  0.00  0.00    +0.000 A 
ATOM     14  C   UNL     1       1.026   2.541  18.686  0.00  0.00    +0.000 A 
ATOM     15  C   UNL     1       0.756   2.753  20.036  0.00  0.00    +0.000 A 
ATOM     16  C   UNL     1       1.191   3.922  20.658  0.00  0.00    +0.000 A 
ATOM     17  C   UNL     1       1.908   4.878  19.934  0.00  0.00    +0.000 A 
ENDBRANCH  11  12
ENDBRANCH   8  11
ENDBRANCH   3   5
BRANCH   1  18
ATOM     18  C   UNL     1       8.001   9.794  17.793  0.00  0.00    +0.000 C 
BRANCH  18  19
ATOM     19  C   UNL     1       9.247  10.558  18.275  0.00  0.00    +0.000 C 
BRANCH  19  20
ATOM     20  N   UNL     1       9.125  12.020  18.037  0.00  0.00    +0.000 NA
ATOM     21  H   UNL     1       9.817  12.353  17.366  0.00  0.00    +0.000 HD
BRANCH  20  22
ATOM     22  S   UNL     1       9.369  13.071  19.334  0.00  0.00    +0.000 S 
ATOM     23  O   UNL     1      10.666  13.672  19.111  0.00  0.00    +0.000 OA
ATOM     24  O   UNL     1       9.079  12.336  20.547  0.00  0.00    +0.000 OA
BRANCH  22  28
ATOM     25  C   UNL     1       6.112  16.152  18.747  0.00  0.00    +0.000 A 
ATOM     26  C   UNL     1       6.331  15.174  17.780  0.00  0.00    +0.000 A 
ATOM     27  C   UNL     1       7.351  14.247  17.944  0.00  0.00    +0.000 A 
ATOM     28  C   UNL     1       8.157  14.319  19.077  0.00  0.00    +0.000 A 
ATOM     29  C   UNL     1       7.971  15.309  20.036  0.00  0.00    +0.000 A 
ATOM     30  C   UNL     1       6.947  16.243  19.865  0.00  0.00    +0.000 A 
BRANCH  25  31
ATOM     31  O   UNL     1       5.050  16.976  18.488  0.00  0.00    +0.000 OA
BRANCH  31  33
ATOM     32  C   UNL     1       2.947  16.833  17.397  0.00  0.00    +0.000 C 
ATOM     33  C   UNL     1       3.760  16.375  18.593  0.00  0.00    +0.000 C 
ENDBRANCH  31  33
ENDBRANCH  25  31
ENDBRANCH  22  28
ENDBRANCH  20  22
ENDBRANCH  19  20
ENDBRANCH  18  19
ENDBRANCH   1  18
TORSDOF 10
ENDMDL
MODEL 4
REMARK VINA RESULT:      -7.3      1.544      1.854
REMARK  Name = 
REMARK  11 active torsions:
REMARK  status: ('A' for Active; 'I' for Inactive)
REMARK    1  A    between atoms: C_1  and  C_2
REMARK    2  A    between atoms: C_2  and  O_3
REMARK    3  A    between atoms: O_3  and  C_4
REMARK    4  A    between atoms: C_7  and  S_8
REMARK    5  A    between atoms: S_8  and  N_11
REMARK    6  A    between atoms: N_11  and  C_12
REMARK    7  A    between atoms: C_12  and  C_13
REMARK    8  A    between atoms: C_13  and  C_14
REMARK    9  A    between atoms: N_16  and  C_17
REMARK   10  A    between atoms: N_20  and  C_21
REMARK   11  A    between atoms: C_21  and  C_22
REMARK                            x       y       z     vdW  Elec       q    Type
REMARK                         _______ _______ _______ _____ _____    ______ ____
ROOT
ATOM      1  C   UNL     1       8.111   8.058  18.031  0.00  0.00    +0.000 C 
ATOM      2  O   UNL     1       8.661   7.508  18.971  0.00  0.00    +0.000 OA
ATOM      3  N   UNL     1       7.388   7.401  17.055  0.00  0.00    +0.000 N 
ATOM      4  H   UNL     1       6.492   7.865  16.937  0.00  0.00    +0.000 HD
ENDROOT
BRANCH   3   5
ATOM      5  C   UNL     1       7.307   5.955  16.848  0.00  0.00    +0.000 C 
ATOM      6  C   UNL     1       6.332   5.475  15.771  0.00  0.00    +0.000 C 
ATOM      7  C   UNL     1       4.874   5.711  16.156  0.00  0.00    +0.000 C 
ATOM      8  N   UNL     1       4.502   5.114  17.454  0.00  0.00    +0.000 NA
ATOM      9  C   UNL     1       5.424   5.523  18.520  0.00  0.00    +0.000 C 
ATOM     10  C   UNL     1       6.903   5.295  18.174  0.00  0.00    +0.000 C 
BRANCH   8  11
ATOM     11  C   UNL     1       3.110   5.536  17.766  0.00  0.00    +0.000 C 
BRANCH  11  12
ATOM     12  C   UNL     1       2.299   4.575  18.609  0.00  0.00    +0.000 A 
ATOM     13  C   UNL     1       2.069   4.847  19.968  0.00  0.00    +0.000 A 
ATOM     14  C   UNL     1       1.269   4.000  20.739  0.00  0.00    +0.000 A 
ATOM     15  C   UNL     1       0.686   2.877  20.159  0.00  0.00    +0.000 A 
ATOM     16  C   UNL     1       0.917   2.588  18.814  0.00  0.00    +0.000 A 
ATOM     17  C   UNL     1       1.724   3.429  18.044  0.00  0.00    +0.000 A 
ENDBRANCH  11  12
ENDBRANCH   8  11
ENDBRANCH   3   5
BRANCH   1  18
ATOM     18  C   UNL     1       8.093   9.576  17.852  0.00  0.00    +0.000 C 
BRANCH  18  19
ATOM     19  C   UNL     1       9.037  10.326  18.810  0.00  0.00    +0.000 C 
BRANCH  19  20
ATOM     20  N   UNL     1       9.999  11.189  18.074  0.00  0.00    +0.000 NA
ATOM     21  H   UNL     1      10.866  11.319  18.595  0.00  0.00    +0.000 HD
BRANCH  20  22
ATOM     22  S   UNL     1       9.556  12.782  17.738  0.00  0.00    +0.000 S 
ATOM     23  O   UNL     1       8.239  12.703  17.142  0.00  0.00    +0.000 OA
ATOM     24  O   UNL     1      10.661  13.400  17.038  0.00  0.00    +0.000 OA
BRANCH  22  28
ATOM     25  C   UNL     1       8.996  14.445  21.905  0.00  0.00    +0.000 A 
ATOM     26  C   UNL     1       7.951  14.495  20.986  0.00  0.00    +0.000 A 
ATOM     27  C   UNL     1       8.131  14.014  19.697  0.00  0.00    +0.000 A 
ATOM     28  C   UNL     1       9.372  13.496  19.334  0.00  0.00    +0.000 A 
ATOM     29  C   UNL     1      10.435  13.468  20.230  0.00  0.00    +0.000 A 
ATOM     30  C   UNL     1      10.251  13.957  21.526  0.00  0.00    +0.000 A 
BRANCH  25  31
ATOM     31  O   UNL     1       8.677  14.909  23.152  0.00  0.00    +0.000 OA
BRANCH  31  33
ATOM     32  C   UNL     1       9.287  17.202  23.228  0.00  0.00    +0.000 C 
ATOM     33  C   UNL     1       9.615  15.810  23.737  0.00  0.00    +0.000 C 
ENDBRANCH  31  33
ENDBRANCH  25  31
ENDBRANCH  22  28
ENDBRANCH  20  22
ENDBRANCH  19  20
ENDBRANCH  18  19
ENDBRANCH   1  18
TORSDOF 10
ENDMDL
MODEL 5
REMARK VINA RESULT:      -7.3      5.764      9.459
REMARK  Name = 
REMARK  11 active torsions:
REMARK  status: ('A' for Active; 'I' for Inactive)
REMARK    1  A    between atoms: C_1  and  C_2
REMARK    2  A    between atoms: C_2  and  O_3
REMARK    3  A    between atoms: O_3  and  C_4
REMARK    4  A    between atoms: C_7  and  S_8
REMARK    5  A    between atoms: S_8  and  N_11
REMARK    6  A    between atoms: N_11  and  C_12
REMARK    7  A    between atoms: C_12  and  C_13
REMARK    8  A    between atoms: C_13  and  C_14
REMARK    9  A    between atoms: N_16  and  C_17
REMARK   10  A    between atoms: N_20  and  C_21
REMARK   11  A    between atoms: C_21  and  C_22
REMARK                            x       y       z     vdW  Elec       q    Type
REMARK                         _______ _______ _______ _____ _____    ______ ____
ROOT
ATOM      1  C   UNL     1       1.717   5.084  20.602  0.00  0.00    +0.000 C 
ATOM      2  O   UNL     1       2.583   4.913  21.444  0.00  0.00    +0.000 OA
ATOM      3  N   UNL     1       1.582   6.229  19.841  0.00  0.00    +0.000 N 
ATOM      4  H   UNL     1       1.490   5.969  18.864  0.00  0.00    +0.000 HD
ENDROOT
BRANCH   3   5
ATOM      5  C   UNL     1       2.295   7.493  20.026  0.00  0.00    +0.000 C 
ATOM      6  C   UNL     1       1.526   8.612  20.730  0.00  0.00    +0.000 C 
ATOM      7  C   UNL     1       0.371   9.147  19.888  0.00  0.00    +0.000 C 
ATOM      8  N   UNL     1       0.782   9.606  18.546  0.00  0.00    +0.000 NA
ATOM      9  C   UNL     1       1.548   8.575  17.835  0.00  0.00    +0.000 C 
ATOM     10  C   UNL     1       2.725   8.015  18.648  0.00  0.00    +0.000 C 
BRANCH   8  11
ATOM     11  C   UNL     1      -0.449   9.966  17.793  0.00  0.00    +0.000 C 
BRANCH  11  12
ATOM     12  C   UNL     1      -1.385  10.937  18.480  0.00  0.00    +0.000 A 
ATOM     13  C   UNL     1      -2.773  10.837  18.287  0.00  0.00    +0.000 A 
ATOM     14  C   UNL     1      -3.650  11.687  18.966  0.00  0.00    +0.000 A 
ATOM     15  C   UNL     1      -3.149  12.642  19.848  0.00  0.00    +0.000 A 
ATOM     16  C   UNL     1      -1.773  12.760  20.037  0.00  0.00    +0.000 A 
ATOM     17  C   UNL     1      -0.895  11.917  19.353  0.00  0.00    +0.000 A 
ENDBRANCH  11  12
ENDBRANCH   8  11
ENDBRANCH   3   5
BRANCH   1  18
ATOM     18  C   UNL     1       0.700   4.007  20.225  0.00  0.00    +0.000 C 
BRANCH  18  19
ATOM     19  C   UNL     1       1.335   2.655  19.853  0.00  0.00    +0.000 C 
BRANCH  19  20
ATOM     20  N   UNL     1       2.773   2.797  19.504  0.00  0.00    +0.000 NA
ATOM     21  H   UNL     1       3.094   3.760  19.608  0.00  0.00    +0.000 HD
BRANCH  20  22
ATOM     22  S   UNL     1       3.258   2.440  17.928  0.00  0.00    +0.000 S 
ATOM     23  O   UNL     1       2.099   2.688  17.098  0.00  0.00    +0.000 OA
ATOM     24  O   UNL     1       3.900   1.144  17.955  0.00  0.00    +0.000 OA
BRANCH  22  28
ATOM     25  C   UNL     1       6.441   5.531  17.056  0.00  0.00    +0.000 A 
ATOM     26  C   UNL     1       6.045   5.287  18.369  0.00  0.00    +0.000 A 
ATOM     27  C   UNL     1       5.046   4.361  18.635  0.00  0.00    +0.000 A 
ATOM     28  C   UNL     1       4.439   3.695  17.574  0.00  0.00    +0.000 A 
ATOM     29  C   UNL     1       4.800   3.950  16.256  0.00  0.00    +0.000 A 
ATOM     30  C   UNL     1       5.804   4.885  15.991  0.00  0.00    +0.000 A 
BRANCH  25  31
ATOM     31  O   UNL     1       7.465   6.431  16.931  0.00  0.00    +0.000 OA
BRANCH  31  33
ATOM     32  C   UNL     1       8.014   8.607  17.703  0.00  0.00    +0.000 C 
ATOM     33  C   UNL     1       7.794   7.162  18.110  0.00  0.00    +0.000 C 
ENDBRANCH  31  33
ENDBRANCH  25  31
ENDBRANCH  22  28
ENDBRANCH  20  22
ENDBRANCH  19  20
ENDBRANCH  18  19
ENDBRANCH   1  18
TORSDOF 10
ENDMDL
MODEL 6
REMARK VINA RESULT:      -7.3      6.894     10.793
REMARK  Name = 
REMARK  11 active torsions:
REMARK  status: ('A' for Active; 'I' for Inactive)
REMARK    1  A    between atoms: C_1  and  C_2
REMARK    2  A    between atoms: C_2  and  O_3
REMARK    3  A    between atoms: O_3  and  C_4
REMARK    4  A    between atoms: C_7  and  S_8
REMARK    5  A    between atoms: S_8  and  N_11
REMARK    6  A    between atoms: N_11  and  C_12
REMARK    7  A    between atoms: C_12  and  C_13
REMARK    8  A    between atoms: C_13  and  C_14
REMARK    9  A    between atoms: N_16  and  C_17
REMARK   10  A    between atoms: N_20  and  C_21
REMARK   11  A    between atoms: C_21  and  C_22
REMARK                            x       y       z     vdW  Elec       q    Type
REMARK                         _______ _______ _______ _____ _____    ______ ____
ROOT
ATOM      1  C   UNL     1       2.100   8.425  18.513  0.00  0.00    +0.000 C 
ATOM      2  O   UNL     1       2.301   8.529  17.314  0.00  0.00    +0.000 OA
ATOM      3  N   UNL     1       1.312   9.286  19.251  0.00  0.00    +0.000 N 
ATOM      4  H   UNL     1       0.662   8.743  19.811  0.00  0.00    +0.000 HD
ENDROOT
BRANCH   3   5
ATOM      5  C   UNL     1       0.746  10.559  18.802  0.00  0.00    +0.000 C 
ATOM      6  C   UNL     1       1.291  11.820  19.475  0.00  0.00    +0.000 C 
ATOM      7  C   UNL     1       0.888  11.920  20.943  0.00  0.00    +0.000 C 
ATOM      8  N   UNL     1      -0.571  11.840  21.161  0.00  0.00    +0.000 NA
ATOM      9  C   UNL     1      -1.149  10.658  20.512  0.00  0.00    +0.000 C 
ATOM     10  C   UNL     1      -0.771  10.524  19.030  0.00  0.00    +0.000 C 
BRANCH   8  11
ATOM     11  C   UNL     1      -0.809  11.810  22.629  0.00  0.00    +0.000 C 
BRANCH  11  12
ATOM     12  C   UNL     1      -1.874  12.753  23.147  0.00  0.00    +0.000 A 
ATOM     13  C   UNL     1      -1.516  14.010  23.662  0.00  0.00    +0.000 A 
ATOM     14  C   UNL     1      -2.495  14.914  24.083  0.00  0.00    +0.000 A 
ATOM     15  C   UNL     1      -3.842  14.572  23.988  0.00  0.00    +0.000 A 
ATOM     16  C   UNL     1      -4.210  13.322  23.492  0.00  0.00    +0.000 A 
ATOM     17  C   UNL     1      -3.232  12.415  23.078  0.00  0.00    +0.000 A 
ENDBRANCH  11  12
ENDBRANCH   8  11
ENDBRANCH   3   5
BRANCH   1  18
ATOM     18  C   UNL     1       2.646   7.268  19.349  0.00  0.00    +0.000 C 
BRANCH  18  19
ATOM     19  C   UNL     1       1.660   6.749  20.412  0.00  0.00    +0.000 C 
BRANCH  19  20
ATOM     20  N   UNL     1       2.253   5.658  21.229  0.00  0.00    +0.000 NA
ATOM     21  H   UNL     1       3.271   5.706  21.243  0.00  0.00    +0.000 HD
BRANCH  20  22
ATOM     22  S   UNL     1       1.989   4.061  20.750  0.00  0.00    +0.000 S 
ATOM     23  O   UNL     1       0.617   4.012  20.295  0.00  0.00    +0.000 OA
ATOM     24  O   UNL     1       2.458   3.206  21.819  0.00  0.00    +0.000 OA
BRANCH  22  28
ATOM     25  C   UNL     1       4.604   3.808  17.070  0.00  0.00    +0.000 A 
ATOM     26  C   UNL     1       3.226   3.632  16.962  0.00  0.00    +0.000 A 
ATOM     27  C   UNL     1       2.426   3.678  18.095  0.00  0.00    +0.000 A 
ATOM     28  C   UNL     1       3.021   3.887  19.337  0.00  0.00    +0.000 A 
ATOM     29  C   UNL     1       4.398   4.033  19.465  0.00  0.00    +0.000 A 
ATOM     30  C   UNL     1       5.201   3.983  18.323  0.00  0.00    +0.000 A 
BRANCH  25  31
ATOM     31  O   UNL     1       5.273   3.786  15.876  0.00  0.00    +0.000 OA
BRANCH  31  33
ATOM     32  C   UNL     1       6.771   4.692  14.273  0.00  0.00    +0.000 C 
ATOM     33  C   UNL     1       6.000   4.969  15.550  0.00  0.00    +0.000 C 
ENDBRANCH  31  33
ENDBRANCH  25  31
ENDBRANCH  22  28
ENDBRANCH  20  22
ENDBRANCH  19  20
ENDBRANCH  18  19
ENDBRANCH   1  18
TORSDOF 10
ENDMDL
MODEL 7
REMARK VINA RESULT:      -7.2      2.388      3.377
REMARK  Name = 
REMARK  11 active torsions:
REMARK  status: ('A' for Active; 'I' for Inactive)
REMARK    1  A    between atoms: C_1  and  C_2
REMARK    2  A    between atoms: C_2  and  O_3
REMARK    3  A    between atoms: O_3  and  C_4
REMARK    4  A    between atoms: C_7  and  S_8
REMARK    5  A    between atoms: S_8  and  N_11
REMARK    6  A    between atoms: N_11  and  C_12
REMARK    7  A    between atoms: C_12  and  C_13
REMARK    8  A    between atoms: C_13  and  C_14
REMARK    9  A    between atoms: N_16  and  C_17
REMARK   10  A    between atoms: N_20  and  C_21
REMARK   11  A    between atoms: C_21  and  C_22
REMARK                            x       y       z     vdW  Elec       q    Type
REMARK                         _______ _______ _______ _____ _____    ______ ____
ROOT
ATOM      1  C   UNL     1       8.078   8.516  18.070  0.00  0.00    +0.000 C 
ATOM      2  O   UNL     1       8.786   7.999  18.919  0.00  0.00    +0.000 OA
ATOM      3  N   UNL     1       7.260   7.818  17.203  0.00  0.00    +0.000 N 
ATOM      4  H   UNL     1       6.332   8.231  17.217  0.00  0.00    +0.000 HD
ENDROOT
BRANCH   3   5
ATOM      5  C   UNL     1       7.231   6.369  17.001  0.00  0.00    +0.000 C 
ATOM      6  C   UNL     1       6.204   5.843  15.997  0.00  0.00    +0.000 C 
ATOM      7  C   UNL     1       4.769   6.013  16.486  0.00  0.00    +0.000 C 
ATOM      8  N   UNL     1       4.519   5.402  17.807  0.00  0.00    +0.000 NA
ATOM      9  C   UNL     1       5.495   5.855  18.804  0.00  0.00    +0.000 C 
ATOM     10  C   UNL     1       6.954   5.695  18.352  0.00  0.00    +0.000 C 
BRANCH   8  11
ATOM     11  C   UNL     1       3.135   5.760  18.218  0.00  0.00    +0.000 C 
BRANCH  11  12
ATOM     12  C   UNL     1       2.283   4.623  18.740  0.00  0.00    +0.000 A 
ATOM     13  C   UNL     1       2.104   3.462  17.970  0.00  0.00    +0.000 A 
ATOM     14  C   UNL     1       1.373   2.381  18.470  0.00  0.00    +0.000 A 
ATOM     15  C   UNL     1       0.818   2.447  19.746  0.00  0.00    +0.000 A 
ATOM     16  C   UNL     1       0.978   3.600  20.514  0.00  0.00    +0.000 A 
ATOM     17  C   UNL     1       1.701   4.684  20.013  0.00  0.00    +0.000 A 
ENDBRANCH  11  12
ENDBRANCH   8  11
ENDBRANCH   3   5
BRANCH   1  18
ATOM     18  C   UNL     1       7.951  10.030  17.904  0.00  0.00    +0.000 C 
BRANCH  18  19
ATOM     19  C   UNL     1       9.302  10.767  17.857  0.00  0.00    +0.000 C 
BRANCH  19  20
ATOM     20  N   UNL     1      10.101  10.534  19.089  0.00  0.00    +0.000 NA
ATOM     21  H   UNL     1       9.769   9.721  19.607  0.00  0.00    +0.000 HD
BRANCH  20  22
ATOM     22  S   UNL     1      10.104  11.726  20.283  0.00  0.00    +0.000 S 
ATOM     23  O   UNL     1      11.462  11.778  20.780  0.00  0.00    +0.000 OA
ATOM     24  O   UNL     1       8.991  11.457  21.167  0.00  0.00    +0.000 OA
BRANCH  22  28
ATOM     25  C   UNL     1       9.401  15.637  18.126  0.00  0.00    +0.000 A 
ATOM     26  C   UNL     1       8.371  15.047  18.856  0.00  0.00    +0.000 A 
ATOM     27  C   UNL     1       8.577  13.831  19.493  0.00  0.00    +0.000 A 
ATOM     28  C   UNL     1       9.816  13.206  19.378  0.00  0.00    +0.000 A 
ATOM     29  C   UNL     1      10.843  13.767  18.627  0.00  0.00    +0.000 A 
ATOM     30  C   UNL     1      10.632  14.989  17.984  0.00  0.00    +0.000 A 
BRANCH  25  31
ATOM     31  O   UNL     1       9.085  16.855  17.586  0.00  0.00    +0.000 OA
BRANCH  31  33
ATOM     32  C   UNL     1       9.179  18.626  19.164  0.00  0.00    +0.000 C 
ATOM     33  C   UNL     1       8.262  17.696  18.391  0.00  0.00    +0.000 C 
ENDBRANCH  31  33
ENDBRANCH  25  31
ENDBRANCH  22  28
ENDBRANCH  20  22
ENDBRANCH  19  20
ENDBRANCH  18  19
ENDBRANCH   1  18
TORSDOF 10
ENDMDL
MODEL 8
REMARK VINA RESULT:      -7.2      8.847     10.876
REMARK  Name = 
REMARK  11 active torsions:
REMARK  status: ('A' for Active; 'I' for Inactive)
REMARK    1  A    between atoms: C_1  and  C_2
REMARK    2  A    between atoms: C_2  and  O_3
REMARK    3  A    between atoms: O_3  and  C_4
REMARK    4  A    between atoms: C_7  and  S_8
REMARK    5  A    between atoms: S_8  and  N_11
REMARK    6  A    between atoms: N_11  and  C_12
REMARK    7  A    between atoms: C_12  and  C_13
REMARK    8  A    between atoms: C_13  and  C_14
REMARK    9  A    between atoms: N_16  and  C_17
REMARK   10  A    between atoms: N_20  and  C_21
REMARK   11  A    between atoms: C_21  and  C_22
REMARK                            x       y       z     vdW  Elec       q    Type
REMARK                         _______ _______ _______ _____ _____    ______ ____
ROOT
ATOM      1  C   UNL     1      -1.565  10.732  17.941  0.00  0.00    +0.000 C 
ATOM      2  O   UNL     1      -1.329  11.847  17.507  0.00  0.00    +0.000 OA
ATOM      3  N   UNL     1      -0.707  10.007  18.745  0.00  0.00    +0.000 N 
ATOM      4  H   UNL     1      -1.220   9.659  19.549  0.00  0.00    +0.000 HD
ENDROOT
BRANCH   3   5
ATOM      5  C   UNL     1       0.684  10.334  19.060  0.00  0.00    +0.000 C 
ATOM      6  C   UNL     1       1.754   9.625  18.228  0.00  0.00    +0.000 C 
ATOM      7  C   UNL     1       1.822   8.128  18.517  0.00  0.00    +0.000 C 
ATOM      8  N   UNL     1       2.023   7.811  19.946  0.00  0.00    +0.000 NA
ATOM      9  C   UNL     1       1.035   8.489  20.792  0.00  0.00    +0.000 C 
ATOM     10  C   UNL     1       0.940  10.001  20.536  0.00  0.00    +0.000 C 
BRANCH   8  11
ATOM     11  C   UNL     1       1.931   6.335  20.100  0.00  0.00    +0.000 C 
BRANCH  11  12
ATOM     12  C   UNL     1       2.795   5.515  19.166  0.00  0.00    +0.000 A 
ATOM     13  C   UNL     1       4.191   5.505  19.320  0.00  0.00    +0.000 A 
ATOM     14  C   UNL     1       4.992   4.702  18.504  0.00  0.00    +0.000 A 
ATOM     15  C   UNL     1       4.406   3.896  17.531  0.00  0.00    +0.000 A 
ATOM     16  C   UNL     1       3.022   3.908  17.359  0.00  0.00    +0.000 A 
ATOM     17  C   UNL     1       2.220   4.716  18.168  0.00  0.00    +0.000 A 
ENDBRANCH  11  12
ENDBRANCH   8  11
ENDBRANCH   3   5
BRANCH   1  18
ATOM     18  C   UNL     1      -2.893  10.013  17.704  0.00  0.00    +0.000 C 
BRANCH  18  19
ATOM     19  C   UNL     1      -3.830  10.744  16.725  0.00  0.00    +0.000 C 
BRANCH  19  20
ATOM     20  N   UNL     1      -4.250  12.070  17.249  0.00  0.00    +0.000 NA
ATOM     21  H   UNL     1      -3.645  12.387  18.006  0.00  0.00    +0.000 HD
BRANCH  20  22
ATOM     22  S   UNL     1      -5.780  12.212  17.947  0.00  0.00    +0.000 S 
ATOM     23  O   UNL     1      -6.385  10.902  17.830  0.00  0.00    +0.000 OA
ATOM     24  O   UNL     1      -6.409  13.384  17.379  0.00  0.00    +0.000 OA
BRANCH  22  28
ATOM     25  C   UNL     1      -4.874  12.696  22.351  0.00  0.00    +0.000 A 
ATOM     26  C   UNL     1      -6.192  12.572  21.918  0.00  0.00    +0.000 A 
ATOM     27  C   UNL     1      -6.473  12.455  20.564  0.00  0.00    +0.000 A 
ATOM     28  C   UNL     1      -5.424  12.478  19.649  0.00  0.00    +0.000 A 
ATOM     29  C   UNL     1      -4.106  12.633  20.063  0.00  0.00    +0.000 A 
ATOM     30  C   UNL     1      -3.826  12.754  21.426  0.00  0.00    +0.000 A 
BRANCH  25  31
ATOM     31  O   UNL     1      -4.727  12.758  23.710  0.00  0.00    +0.000 OA
BRANCH  31  33
ATOM     32  C   UNL     1      -3.371  14.424  24.719  0.00  0.00    +0.000 C 
ATOM     33  C   UNL     1      -3.403  13.006  24.180  0.00  0.00    +0.000 C 
ENDBRANCH  31  33
ENDBRANCH  25  31
ENDBRANCH  22  28
ENDBRANCH  20  22
ENDBRANCH  19  20
ENDBRANCH  18  19
ENDBRANCH   1  18
TORSDOF 10
ENDMDL
MODEL 9
REMARK VINA RESULT:      -7.2      9.201     12.016
REMARK  Name = 
REMARK  11 active torsions:
REMARK  status: ('A' for Active; 'I' for Inactive)
REMARK    1  A    between atoms: C_1  and  C_2
REMARK    2  A    between atoms: C_2  and  O_3
REMARK    3  A    between atoms: O_3  and  C_4
REMARK    4  A    between atoms: C_7  and  S_8
REMARK    5  A    between atoms: S_8  and  N_11
REMARK    6  A    between atoms: N_11  and  C_12
REMARK    7  A    between atoms: C_12  and  C_13
REMARK    8  A    between atoms: C_13  and  C_14
REMARK    9  A    between atoms: N_16  and  C_17
REMARK   10  A    between atoms: N_20  and  C_21
REMARK   11  A    between atoms: C_21  and  C_22
REMARK                            x       y       z     vdW  Elec       q    Type
REMARK                         _______ _______ _______ _____ _____    ______ ____
ROOT
ATOM      1  C   UNL     1      -4.110  10.982  17.379  0.00  0.00    +0.000 C 
ATOM      2  O   UNL     1      -4.334  11.330  16.231  0.00  0.00    +0.000 OA
ATOM      3  N   UNL     1      -5.084  10.753  18.331  0.00  0.00    +0.000 N 
ATOM      4  H   UNL     1      -4.912   9.855  18.773  0.00  0.00    +0.000 HD
ENDROOT
BRANCH   3   5
ATOM      5  C   UNL     1      -6.510  11.064  18.219  0.00  0.00    +0.000 C 
ATOM      6  C   UNL     1      -6.870  12.532  17.987  0.00  0.00    +0.000 C 
ATOM      7  C   UNL     1      -6.561  13.407  19.198  0.00  0.00    +0.000 C 
ATOM      8  N   UNL     1      -7.201  12.938  20.444  0.00  0.00    +0.000 NA
ATOM      9  C   UNL     1      -6.907  11.523  20.700  0.00  0.00    +0.000 C 
ATOM     10  C   UNL     1      -7.210  10.607  19.506  0.00  0.00    +0.000 C 
BRANCH   8  11
ATOM     11  C   UNL     1      -6.708  13.793  21.557  0.00  0.00    +0.000 C 
BRANCH  11  12
ATOM     12  C   UNL     1      -5.557  13.231  22.364  0.00  0.00    +0.000 A 
ATOM     13  C   UNL     1      -4.302  13.033  21.765  0.00  0.00    +0.000 A 
ATOM     14  C   UNL     1      -3.217  12.576  22.517  0.00  0.00    +0.000 A 
ATOM     15  C   UNL     1      -3.374  12.318  23.877  0.00  0.00    +0.000 A 
ATOM     16  C   UNL     1      -4.617  12.498  24.480  0.00  0.00    +0.000 A 
ATOM     17  C   UNL     1      -5.705  12.947  23.729  0.00  0.00    +0.000 A 
ENDBRANCH  11  12
ENDBRANCH   8  11
ENDBRANCH   3   5
BRANCH   1  18
ATOM     18  C   UNL     1      -2.703  10.681  17.895  0.00  0.00    +0.000 C 
BRANCH  18  19
ATOM     19  C   UNL     1      -1.800  11.923  18.000  0.00  0.00    +0.000 C 
BRANCH  19  20
ATOM     20  N   UNL     1      -0.359  11.567  17.916  0.00  0.00    +0.000 NA
ATOM     21  H   UNL     1      -0.221  10.641  17.512  0.00  0.00    +0.000 HD
BRANCH  20  22
ATOM     22  S   UNL     1       0.526  11.452  19.348  0.00  0.00    +0.000 S 
ATOM     23  O   UNL     1      -0.445  11.557  20.416  0.00  0.00    +0.000 OA
ATOM     24  O   UNL     1       1.635  12.376  19.247  0.00  0.00    +0.000 OA
BRANCH  22  28
ATOM     25  C   UNL     1       2.224   7.261  19.331  0.00  0.00    +0.000 A 
ATOM     26  C   UNL     1       2.250   8.031  18.170  0.00  0.00    +0.000 A 
ATOM     27  C   UNL     1       1.701   9.305  18.166  0.00  0.00    +0.000 A 
ATOM     28  C   UNL     1       1.113   9.794  19.329  0.00  0.00    +0.000 A 
ATOM     29  C   UNL     1       1.051   9.027  20.487  0.00  0.00    +0.000 A 
ATOM     30  C   UNL     1       1.601   7.743  20.487  0.00  0.00    +0.000 A 
BRANCH  25  31
ATOM     31  O   UNL     1       2.837   6.043  19.217  0.00  0.00    +0.000 OA
BRANCH  31  33
ATOM     32  C   UNL     1       1.902   4.339  17.854  0.00  0.00    +0.000 C 
ATOM     33  C   UNL     1       2.885   5.494  17.901  0.00  0.00    +0.000 C 
ENDBRANCH  31  33
ENDBRANCH  25  31
ENDBRANCH  22  28
ENDBRANCH  20  22
ENDBRANCH  19  20
ENDBRANCH  18  19
ENDBRANCH   1  18
TORSDOF 10
ENDMDL
