MODEL 1
REMARK VINA RESULT:      -6.6      0.000      0.000
REMARK  Name = 
REMARK  7 active torsions:
REMARK  status: ('A' for Active; 'I' for Inactive)
REMARK    1  A    between atoms: C_1  and  C_2
REMARK    2  A    between atoms: C_5  and  N_6
REMARK    3  A    between atoms: N_6  and  C_14
REMARK    4  A    between atoms: C_7  and  C_9
REMARK    5  A    between atoms: C_14  and  C_15
REMARK    6  A    between atoms: C_14  and  C_23
REMARK    7  A    between atoms: N_17  and  C_18
REMARK                            x       y       z     vdW  Elec       q    Type
REMARK                         _______ _______ _______ _____ _____    ______ ____
ROOT
ATOM      1  C   UNL     1      -1.196  12.283  19.229  0.00  0.00    +0.000 C 
ENDROOT
BRANCH   1   2
ATOM      2  C   UNL     1      -0.379  11.003  19.526  0.00  0.00    +0.000 A 
ATOM      3  C   UNL     1      -0.415  10.313  20.746  0.00  0.00    +0.000 A 
ATOM      4  C   UNL     1       0.470   9.263  20.964  0.00  0.00    +0.000 A 
ATOM      5  N   UNL     1       1.345   8.807  20.047  0.00  0.00    +0.000 NA
ATOM      6  C   UNL     1       1.318   9.417  18.848  0.00  0.00    +0.000 A 
ATOM      7  C   UNL     1       0.477  10.477  18.543  0.00  0.00    +0.000 A 
ENDBRANCH   1   2
BRANCH   1   8
ATOM      8  C   UNL     1      -0.407  13.633  19.532  0.00  0.00    +0.000 C 
ATOM      9  O   UNL     1       0.351  13.743  20.501  0.00  0.00    +0.000 OA
ATOM     10  N   UNL     1      -0.525  14.677  18.631  0.00  0.00    +0.000 N 
ATOM     11  H   UNL     1      -1.286  14.646  17.969  0.00  0.00    +0.000 HD
BRANCH  10  12
ATOM     12  C   UNL     1       0.105  15.965  18.890  0.00  0.00    +0.000 C 
ATOM     13  C   UNL     1       1.553  16.014  18.423  0.00  0.00    +0.000 C 
ATOM     14  C   UNL     1       1.876  17.502  18.424  0.00  0.00    +0.000 C 
ATOM     15  C   UNL     1       0.572  18.203  18.050  0.00  0.00    +0.000 C 
ATOM     16  C   UNL     1      -0.529  17.141  18.137  0.00  0.00    +0.000 C 
ENDBRANCH  10  12
ENDBRANCH   1   8
BRANCH   1  17
ATOM     17  N   UNL     1      -2.634  12.271  19.669  0.00  0.00    +0.000 N 
ATOM     18  C   UNL     1      -3.726  11.775  18.898  0.00  0.00    +0.000 C 
ATOM     19  O   UNL     1      -4.892  11.957  19.260  0.00  0.00    +0.000 OA
BRANCH  17  24
ATOM     20  C   UNL     1      -3.760  14.995  24.667  0.00  0.00    +0.000 C 
ATOM     21  C   UNL     1      -3.472  14.280  23.378  0.00  0.00    +0.000 A 
ATOM     22  C   UNL     1      -3.654  14.922  22.152  0.00  0.00    +0.000 A 
ATOM     23  C   UNL     1      -3.382  14.257  20.949  0.00  0.00    +0.000 A 
ATOM     24  C   UNL     1      -2.939  12.926  20.928  0.00  0.00    +0.000 A 
ATOM     25  C   UNL     1      -2.790  12.276  22.164  0.00  0.00    +0.000 A 
ATOM     26  C   UNL     1      -3.051  12.947  23.373  0.00  0.00    +0.000 A 
ENDBRANCH  17  24
BRANCH  18  27
ATOM     27  C   UNL     1      -3.508  11.070  17.643  0.00  0.00    +0.000 A 
ATOM     28  C   UNL     1      -3.046   9.779  17.428  0.00  0.00    +0.000 A 
ATOM     29  C   UNL     1      -3.036   9.570  16.025  0.00  0.00    +0.000 A 
ATOM     30  C   UNL     1      -3.490  10.735  15.467  0.00  0.00    +0.000 A 
ATOM     31  O   UNL     1      -3.759  11.645  16.435  0.00  0.00    +0.000 OA
ENDBRANCH  18  27
ENDBRANCH   1  17
TORSDOF 6
ENDMDL
MODEL 2
REMARK VINA RESULT:      -6.5      2.313      6.727
REMARK  Name = 
REMARK  7 active torsions:
REMARK  status: ('A' for Active; 'I' for Inactive)
REMARK    1  A    between atoms: C_1  and  C_2
REMARK    2  A    between atoms: C_5  and  N_6
REMARK    3  A    between atoms: N_6  and  C_14
REMARK    4  A    between atoms: C_7  and  C_9
REMARK    5  A    between atoms: C_14  and  C_15
REMARK    6  A    between atoms: C_14  and  C_23
REMARK    7  A    between atoms: N_17  and  C_18
REMARK                            x       y       z     vdW  Elec       q    Type
REMARK                         _______ _______ _______ _____ _____    ______ ____
ROOT
ATOM      1  C   UNL     1      -0.581  10.514  19.807  0.00  0.00    +0.000 C 
ENDROOT
BRANCH   1   2
ATOM      2  C   UNL     1      -1.736  10.772  18.811  0.00  0.00    +0.000 A 
ATOM      3  C   UNL     1      -2.823  11.618  19.072  0.00  0.00    +0.000 A 
ATOM      4  C   UNL     1      -3.884  11.665  18.174  0.00  0.00    +0.000 A 
ATOM      5  N   UNL     1      -3.924  10.984  17.012  0.00  0.00    +0.000 NA
ATOM      6  C   UNL     1      -2.840  10.239  16.725  0.00  0.00    +0.000 A 
ATOM      7  C   UNL     1      -1.741  10.125  17.564  0.00  0.00    +0.000 A 
ENDBRANCH   1   2
BRANCH   1   8
ATOM      8  C   UNL     1      -0.776  11.228  21.217  0.00  0.00    +0.000 C 
ATOM      9  O   UNL     1      -0.094  10.927  22.202  0.00  0.00    +0.000 OA
ATOM     10  N   UNL     1      -1.686  12.267  21.305  0.00  0.00    +0.000 N 
ATOM     11  H   UNL     1      -2.364  12.365  20.562  0.00  0.00    +0.000 HD
BRANCH  10  12
ATOM     12  C   UNL     1      -1.971  12.908  22.581  0.00  0.00    +0.000 C 
ATOM     13  C   UNL     1      -2.481  14.334  22.421  0.00  0.00    +0.000 C 
ATOM     14  C   UNL     1      -3.068  14.657  23.787  0.00  0.00    +0.000 C 
ATOM     15  C   UNL     1      -3.628  13.337  24.313  0.00  0.00    +0.000 C 
ATOM     16  C   UNL     1      -3.092  12.242  23.387  0.00  0.00    +0.000 C 
ENDBRANCH  10  12
ENDBRANCH   1   8
BRANCH   1  17
ATOM     17  N   UNL     1       0.812  10.584  19.243  0.00  0.00    +0.000 N 
ATOM     18  C   UNL     1       1.473  11.779  18.833  0.00  0.00    +0.000 C 
ATOM     19  O   UNL     1       2.546  11.734  18.224  0.00  0.00    +0.000 OA
BRANCH  17  24
ATOM     20  C   UNL     1       3.579   5.565  18.343  0.00  0.00    +0.000 C 
ATOM     21  C   UNL     1       2.859   6.864  18.566  0.00  0.00    +0.000 A 
ATOM     22  C   UNL     1       2.280   7.155  19.801  0.00  0.00    +0.000 A 
ATOM     23  C   UNL     1       1.611   8.368  20.011  0.00  0.00    +0.000 A 
ATOM     24  C   UNL     1       1.482   9.322  18.990  0.00  0.00    +0.000 A 
ATOM     25  C   UNL     1       2.039   9.009  17.740  0.00  0.00    +0.000 A 
ATOM     26  C   UNL     1       2.722   7.797  17.532  0.00  0.00    +0.000 A 
ENDBRANCH  17  24
BRANCH  18  27
ATOM     27  C   UNL     1       0.892  13.091  19.084  0.00  0.00    +0.000 A 
ATOM     28  C   UNL     1       0.040  13.842  18.288  0.00  0.00    +0.000 A 
ATOM     29  C   UNL     1      -0.250  15.035  19.000  0.00  0.00    +0.000 A 
ATOM     30  C   UNL     1       0.436  14.944  20.181  0.00  0.00    +0.000 A 
ATOM     31  O   UNL     1       1.137  13.785  20.229  0.00  0.00    +0.000 OA
ENDBRANCH  18  27
ENDBRANCH   1  17
TORSDOF 6
ENDMDL
MODEL 3
REMARK VINA RESULT:      -6.5      0.570      1.185
REMARK  Name = 
REMARK  7 active torsions:
REMARK  status: ('A' for Active; 'I' for Inactive)
REMARK    1  A    between atoms: C_1  and  C_2
REMARK    2  A    between atoms: C_5  and  N_6
REMARK    3  A    between atoms: N_6  and  C_14
REMARK    4  A    between atoms: C_7  and  C_9
REMARK    5  A    between atoms: C_14  and  C_15
REMARK    6  A    between atoms: C_14  and  C_23
REMARK    7  A    between atoms: N_17  and  C_18
REMARK                            x       y       z     vdW  Elec       q    Type
REMARK                         _______ _______ _______ _____ _____    ______ ____
ROOT
ATOM      1  C   UNL     1      -1.073  12.318  19.091  0.00  0.00    +0.000 C 
ENDROOT
BRANCH   1   2
ATOM      2  C   UNL     1      -0.256  11.025  19.325  0.00  0.00    +0.000 A 
ATOM      3  C   UNL     1      -0.268  10.294  20.522  0.00  0.00    +0.000 A 
ATOM      4  C   UNL     1       0.617   9.233  20.684  0.00  0.00    +0.000 A 
ATOM      5  N   UNL     1       1.468   8.804  19.731  0.00  0.00    +0.000 NA
ATOM      6  C   UNL     1       1.415   9.455  18.554  0.00  0.00    +0.000 A 
ATOM      7  C   UNL     1       0.573  10.528  18.305  0.00  0.00    +0.000 A 
ENDBRANCH   1   2
BRANCH   1   8
ATOM      8  C   UNL     1      -0.262  13.654  19.395  0.00  0.00    +0.000 C 
ATOM      9  O   UNL     1       0.725  13.664  20.137  0.00  0.00    +0.000 OA
ATOM     10  N   UNL     1      -0.639  14.813  18.738  0.00  0.00    +0.000 N 
ATOM     11  H   UNL     1      -1.549  14.833  18.301  0.00  0.00    +0.000 HD
BRANCH  10  12
ATOM     12  C   UNL     1       0.009  16.084  19.031  0.00  0.00    +0.000 C 
ATOM     13  C   UNL     1      -0.220  17.123  17.943  0.00  0.00    +0.000 C 
ATOM     14  C   UNL     1       0.184  18.431  18.609  0.00  0.00    +0.000 C 
ATOM     15  C   UNL     1      -0.195  18.273  20.080  0.00  0.00    +0.000 C 
ATOM     16  C   UNL     1      -0.523  16.791  20.283  0.00  0.00    +0.000 C 
ENDBRANCH  10  12
ENDBRANCH   1   8
BRANCH   1  17
ATOM     17  N   UNL     1      -2.493  12.306  19.587  0.00  0.00    +0.000 N 
ATOM     18  C   UNL     1      -3.614  11.805  18.862  0.00  0.00    +0.000 C 
ATOM     19  O   UNL     1      -4.765  11.987  19.267  0.00  0.00    +0.000 OA
BRANCH  17  24
ATOM     20  C   UNL     1      -3.608  14.835  24.688  0.00  0.00    +0.000 C 
ATOM     21  C   UNL     1      -3.317  14.190  23.364  0.00  0.00    +0.000 A 
ATOM     22  C   UNL     1      -2.779  12.904  23.301  0.00  0.00    +0.000 A 
ATOM     23  C   UNL     1      -2.511  12.300  22.065  0.00  0.00    +0.000 A 
ATOM     24  C   UNL     1      -2.750  12.967  20.854  0.00  0.00    +0.000 A 
ATOM     25  C   UNL     1      -3.260  14.273  20.925  0.00  0.00    +0.000 A 
ATOM     26  C   UNL     1      -3.542  14.875  22.165  0.00  0.00    +0.000 A 
ENDBRANCH  17  24
BRANCH  18  27
ATOM     27  C   UNL     1      -3.444  11.093  17.603  0.00  0.00    +0.000 A 
ATOM     28  C   UNL     1      -2.988   9.802  17.376  0.00  0.00    +0.000 A 
ATOM     29  C   UNL     1      -3.032   9.586  15.975  0.00  0.00    +0.000 A 
ATOM     30  C   UNL     1      -3.511  10.747  15.430  0.00  0.00    +0.000 A 
ATOM     31  O   UNL     1      -3.743  11.661  16.402  0.00  0.00    +0.000 OA
ENDBRANCH  18  27
ENDBRANCH   1  17
TORSDOF 6
ENDMDL
MODEL 4
REMARK VINA RESULT:      -6.4      0.294      1.256
REMARK  Name = 
REMARK  7 active torsions:
REMARK  status: ('A' for Active; 'I' for Inactive)
REMARK    1  A    between atoms: C_1  and  C_2
REMARK    2  A    between atoms: C_5  and  N_6
REMARK    3  A    between atoms: N_6  and  C_14
REMARK    4  A    between atoms: C_7  and  C_9
REMARK    5  A    between atoms: C_14  and  C_15
REMARK    6  A    between atoms: C_14  and  C_23
REMARK    7  A    between atoms: N_17  and  C_18
REMARK                            x       y       z     vdW  Elec       q    Type
REMARK                         _______ _______ _______ _____ _____    ______ ____
ROOT
ATOM      1  C   UNL     1      -1.133  12.526  19.223  0.00  0.00    +0.000 C 
ENDROOT
BRANCH   1   2
ATOM      2  C   UNL     1      -0.258  11.291  19.543  0.00  0.00    +0.000 A 
ATOM      3  C   UNL     1       0.623  10.695  18.629  0.00  0.00    +0.000 A 
ATOM      4  C   UNL     1       1.250   9.499  18.964  0.00  0.00    +0.000 A 
ATOM      5  N   UNL     1       1.117   8.882  20.155  0.00  0.00    +0.000 NA
ATOM      6  C   UNL     1       0.337   9.503  21.060  0.00  0.00    +0.000 A 
ATOM      7  C   UNL     1      -0.334  10.691  20.811  0.00  0.00    +0.000 A 
ENDBRANCH   1   2
BRANCH   1   8
ATOM      8  C   UNL     1      -0.413  13.916  19.514  0.00  0.00    +0.000 C 
ATOM      9  O   UNL     1       0.330  14.075  20.487  0.00  0.00    +0.000 OA
ATOM     10  N   UNL     1      -0.573  14.942  18.598  0.00  0.00    +0.000 N 
ATOM     11  H   UNL     1      -1.327  14.865  17.930  0.00  0.00    +0.000 HD
BRANCH  10  12
ATOM     12  C   UNL     1      -0.009  16.261  18.844  0.00  0.00    +0.000 C 
ATOM     13  C   UNL     1       1.391  16.418  18.267  0.00  0.00    +0.000 C 
ATOM     14  C   UNL     1       1.617  17.923  18.286  0.00  0.00    +0.000 C 
ATOM     15  C   UNL     1       0.245  18.545  18.037  0.00  0.00    +0.000 C 
ATOM     16  C   UNL     1      -0.774  17.411  18.179  0.00  0.00    +0.000 C 
ENDBRANCH  10  12
ENDBRANCH   1   8
BRANCH   1  17
ATOM     17  N   UNL     1      -2.573  12.450  19.652  0.00  0.00    +0.000 N 
ATOM     18  C   UNL     1      -3.626  11.852  18.899  0.00  0.00    +0.000 C 
ATOM     19  O   UNL     1      -4.804  11.982  19.242  0.00  0.00    +0.000 OA
BRANCH  17  24
ATOM     20  C   UNL     1      -4.091  15.128  24.571  0.00  0.00    +0.000 C 
ATOM     21  C   UNL     1      -3.695  14.444  23.293  0.00  0.00    +0.000 A 
ATOM     22  C   UNL     1      -3.181  13.147  23.310  0.00  0.00    +0.000 A 
ATOM     23  C   UNL     1      -2.814  12.507  22.118  0.00  0.00    +0.000 A 
ATOM     24  C   UNL     1      -2.930  13.147  20.875  0.00  0.00    +0.000 A 
ATOM     25  C   UNL     1      -3.417  14.464  20.869  0.00  0.00    +0.000 A 
ATOM     26  C   UNL     1      -3.797  15.103  22.064  0.00  0.00    +0.000 A 
ENDBRANCH  17  24
BRANCH  18  27
ATOM     27  C   UNL     1      -3.353  11.099  17.683  0.00  0.00    +0.000 A 
ATOM     28  C   UNL     1      -2.937   9.784  17.537  0.00  0.00    +0.000 A 
ATOM     29  C   UNL     1      -2.839   9.531  16.145  0.00  0.00    +0.000 A 
ATOM     30  C   UNL     1      -3.199  10.697  15.524  0.00  0.00    +0.000 A 
ATOM     31  O   UNL     1      -3.493  11.647  16.444  0.00  0.00    +0.000 OA
ENDBRANCH  18  27
ENDBRANCH   1  17
TORSDOF 6
ENDMDL
MODEL 5
REMARK VINA RESULT:      -6.4      2.131      6.942
REMARK  Name = 
REMARK  7 active torsions:
REMARK  status: ('A' for Active; 'I' for Inactive)
REMARK    1  A    between atoms: C_1  and  C_2
REMARK    2  A    between atoms: C_5  and  N_6
REMARK    3  A    between atoms: N_6  and  C_14
REMARK    4  A    between atoms: C_7  and  C_9
REMARK    5  A    between atoms: C_14  and  C_15
REMARK    6  A    between atoms: C_14  and  C_23
REMARK    7  A    between atoms: N_17  and  C_18
REMARK                            x       y       z     vdW  Elec       q    Type
REMARK                         _______ _______ _______ _____ _____    ______ ____
ROOT
ATOM      1  C   UNL     1      -1.083  12.729  20.063  0.00  0.00    +0.000 C 
ENDROOT
BRANCH   1   2
ATOM      2  C   UNL     1      -2.060  12.651  21.261  0.00  0.00    +0.000 A 
ATOM      3  C   UNL     1      -1.759  12.029  22.480  0.00  0.00    +0.000 A 
ATOM      4  C   UNL     1      -2.757  11.881  23.437  0.00  0.00    +0.000 A 
ATOM      5  N   UNL     1      -4.012  12.353  23.302  0.00  0.00    +0.000 NA
ATOM      6  C   UNL     1      -4.272  13.025  22.165  0.00  0.00    +0.000 A 
ATOM      7  C   UNL     1      -3.343  13.214  21.153  0.00  0.00    +0.000 A 
ENDBRANCH   1   2
BRANCH   1   8
ATOM      8  C   UNL     1      -1.660  12.093  18.722  0.00  0.00    +0.000 C 
ATOM      9  O   UNL     1      -1.378  12.549  17.609  0.00  0.00    +0.000 OA
ATOM     10  N   UNL     1      -2.436  10.951  18.818  0.00  0.00    +0.000 N 
ATOM     11  H   UNL     1      -2.815  10.713  19.724  0.00  0.00    +0.000 HD
BRANCH  10  12
ATOM     12  C   UNL     1      -3.061  10.367  17.639  0.00  0.00    +0.000 C 
ATOM     13  C   UNL     1      -3.869  11.381  16.841  0.00  0.00    +0.000 C 
ATOM     14  C   UNL     1      -4.089  10.687  15.504  0.00  0.00    +0.000 C 
ATOM     15  C   UNL     1      -2.837   9.844  15.271  0.00  0.00    +0.000 C 
ATOM     16  C   UNL     1      -2.070   9.836  16.597  0.00  0.00    +0.000 C 
ENDBRANCH  10  12
ENDBRANCH   1   8
BRANCH   1  17
ATOM     17  N   UNL     1       0.356  12.403  20.356  0.00  0.00    +0.000 N 
ATOM     18  C   UNL     1       1.295  13.292  20.957  0.00  0.00    +0.000 C 
ATOM     19  O   UNL     1       2.494  13.009  21.007  0.00  0.00    +0.000 OA
BRANCH  17  24
ATOM     20  C   UNL     1       2.412   7.282  18.563  0.00  0.00    +0.000 C 
ATOM     21  C   UNL     1       1.877   8.610  19.017  0.00  0.00    +0.000 A 
ATOM     22  C   UNL     1       1.260   8.742  20.262  0.00  0.00    +0.000 A 
ATOM     23  C   UNL     1       0.764   9.981  20.687  0.00  0.00    +0.000 A 
ATOM     24  C   UNL     1       0.849  11.124  19.878  0.00  0.00    +0.000 A 
ATOM     25  C   UNL     1       1.442  10.977  18.614  0.00  0.00    +0.000 A 
ATOM     26  C   UNL     1       1.952   9.736  18.190  0.00  0.00    +0.000 A 
ENDBRANCH  17  24
BRANCH  18  27
ATOM     27  C   UNL     1       0.879  14.578  21.501  0.00  0.00    +0.000 A 
ATOM     28  C   UNL     1       0.829  15.819  20.883  0.00  0.00    +0.000 A 
ATOM     29  C   UNL     1       0.333  16.740  21.841  0.00  0.00    +0.000 A 
ATOM     30  C   UNL     1       0.107  16.014  22.980  0.00  0.00    +0.000 A 
ATOM     31  O   UNL     1       0.450  14.718  22.785  0.00  0.00    +0.000 OA
ENDBRANCH  18  27
ENDBRANCH   1  17
TORSDOF 6
ENDMDL
MODEL 6
REMARK VINA RESULT:      -6.4      1.882      2.139
REMARK  Name = 
REMARK  7 active torsions:
REMARK  status: ('A' for Active; 'I' for Inactive)
REMARK    1  A    between atoms: C_1  and  C_2
REMARK    2  A    between atoms: C_5  and  N_6
REMARK    3  A    between atoms: N_6  and  C_14
REMARK    4  A    between atoms: C_7  and  C_9
REMARK    5  A    between atoms: C_14  and  C_15
REMARK    6  A    between atoms: C_14  and  C_23
REMARK    7  A    between atoms: N_17  and  C_18
REMARK                            x       y       z     vdW  Elec       q    Type
REMARK                         _______ _______ _______ _____ _____    ______ ____
ROOT
ATOM      1  C   UNL     1      -0.407  11.900  18.775  0.00  0.00    +0.000 C 
ENDROOT
BRANCH   1   2
ATOM      2  C   UNL     1       0.318  10.565  19.069  0.00  0.00    +0.000 A 
ATOM      3  C   UNL     1       0.309   9.925  20.316  0.00  0.00    +0.000 A 
ATOM      4  C   UNL     1       1.116   8.811  20.519  0.00  0.00    +0.000 A 
ATOM      5  N   UNL     1       1.884   8.248  19.566  0.00  0.00    +0.000 NA
ATOM      6  C   UNL     1       1.825   8.816  18.346  0.00  0.00    +0.000 A 
ATOM      7  C   UNL     1       1.057   9.933  18.054  0.00  0.00    +0.000 A 
ENDBRANCH   1   2
BRANCH   1   8
ATOM      8  C   UNL     1       0.539  13.178  18.862  0.00  0.00    +0.000 C 
ATOM      9  O   UNL     1       0.229  14.256  18.345  0.00  0.00    +0.000 OA
ATOM     10  N   UNL     1       1.701  13.083  19.607  0.00  0.00    +0.000 N 
ATOM     11  H   UNL     1       2.033  12.161  19.849  0.00  0.00    +0.000 HD
BRANCH  10  12
ATOM     12  C   UNL     1       2.649  14.188  19.661  0.00  0.00    +0.000 C 
ATOM     13  C   UNL     1       3.543  14.135  20.892  0.00  0.00    +0.000 C 
ATOM     14  C   UNL     1       4.668  15.104  20.557  0.00  0.00    +0.000 C 
ATOM     15  C   UNL     1       4.863  14.996  19.046  0.00  0.00    +0.000 C 
ATOM     16  C   UNL     1       3.665  14.206  18.512  0.00  0.00    +0.000 C 
ENDBRANCH  10  12
ENDBRANCH   1   8
BRANCH   1  17
ATOM     17  N   UNL     1      -1.767  12.069  19.395  0.00  0.00    +0.000 N 
ATOM     18  C   UNL     1      -3.005  11.747  18.765  0.00  0.00    +0.000 C 
ATOM     19  O   UNL     1      -4.080  12.073  19.274  0.00  0.00    +0.000 OA
BRANCH  17  24
ATOM     20  C   UNL     1      -1.878  14.777  24.525  0.00  0.00    +0.000 C 
ATOM     21  C   UNL     1      -1.853  14.067  23.202  0.00  0.00    +0.000 A 
ATOM     22  C   UNL     1      -2.124  14.756  22.019  0.00  0.00    +0.000 A 
ATOM     23  C   UNL     1      -2.097  14.095  20.784  0.00  0.00    +0.000 A 
ATOM     24  C   UNL     1      -1.820  12.722  20.690  0.00  0.00    +0.000 A 
ATOM     25  C   UNL     1      -1.581  12.029  21.888  0.00  0.00    +0.000 A 
ATOM     26  C   UNL     1      -1.594  12.694  23.127  0.00  0.00    +0.000 A 
ENDBRANCH  17  24
BRANCH  18  27
ATOM     27  C   UNL     1      -3.044  11.054  17.484  0.00  0.00    +0.000 A 
ATOM     28  C   UNL     1      -2.658   9.759  17.172  0.00  0.00    +0.000 A 
ATOM     29  C   UNL     1      -2.919   9.569  15.791  0.00  0.00    +0.000 A 
ATOM     30  C   UNL     1      -3.447  10.750  15.342  0.00  0.00    +0.000 A 
ATOM     31  O   UNL     1      -3.508  11.650  16.351  0.00  0.00    +0.000 OA
ENDBRANCH  18  27
ENDBRANCH   1  17
TORSDOF 6
ENDMDL
MODEL 7
REMARK VINA RESULT:      -6.4      1.672      1.976
REMARK  Name = 
REMARK  7 active torsions:
REMARK  status: ('A' for Active; 'I' for Inactive)
REMARK    1  A    between atoms: C_1  and  C_2
REMARK    2  A    between atoms: C_5  and  N_6
REMARK    3  A    between atoms: N_6  and  C_14
REMARK    4  A    between atoms: C_7  and  C_9
REMARK    5  A    between atoms: C_14  and  C_15
REMARK    6  A    between atoms: C_14  and  C_23
REMARK    7  A    between atoms: N_17  and  C_18
REMARK                            x       y       z     vdW  Elec       q    Type
REMARK                         _______ _______ _______ _____ _____    ______ ____
ROOT
ATOM      1  C   UNL     1       0.160  11.739  19.529  0.00  0.00    +0.000 C 
ENDROOT
BRANCH   1   2
ATOM      2  C   UNL     1       0.574  10.278  19.825  0.00  0.00    +0.000 A 
ATOM      3  C   UNL     1       0.292   9.609  21.024  0.00  0.00    +0.000 A 
ATOM      4  C   UNL     1       0.838   8.350  21.250  0.00  0.00    +0.000 A 
ATOM      5  N   UNL     1       1.593   7.680  20.357  0.00  0.00    +0.000 NA
ATOM      6  C   UNL     1       1.791   8.291  19.174  0.00  0.00    +0.000 A 
ATOM      7  C   UNL     1       1.294   9.548  18.863  0.00  0.00    +0.000 A 
ENDBRANCH   1   2
BRANCH   1   8
ATOM      8  C   UNL     1       1.316  12.800  19.797  0.00  0.00    +0.000 C 
ATOM      9  O   UNL     1       2.022  12.756  20.810  0.00  0.00    +0.000 OA
ATOM     10  N   UNL     1       1.577  13.746  18.820  0.00  0.00    +0.000 N 
ATOM     11  H   UNL     1       0.878  13.893  18.106  0.00  0.00    +0.000 HD
BRANCH  10  12
ATOM     12  C   UNL     1       2.565  14.794  19.036  0.00  0.00    +0.000 C 
ATOM     13  C   UNL     1       3.206  15.272  17.741  0.00  0.00    +0.000 C 
ATOM     14  C   UNL     1       3.877  16.580  18.138  0.00  0.00    +0.000 C 
ATOM     15  C   UNL     1       2.981  17.187  19.216  0.00  0.00    +0.000 C 
ATOM     16  C   UNL     1       1.994  16.090  19.624  0.00  0.00    +0.000 C 
ENDBRANCH  10  12
ENDBRANCH   1   8
BRANCH   1  17
ATOM     17  N   UNL     1      -1.207  12.151  20.001  0.00  0.00    +0.000 N 
ATOM     18  C   UNL     1      -2.421  11.953  19.280  0.00  0.00    +0.000 C 
ATOM     19  O   UNL     1      -3.475  12.471  19.658  0.00  0.00    +0.000 OA
BRANCH  17  24
ATOM     20  C   UNL     1      -1.600  15.151  24.952  0.00  0.00    +0.000 C 
ATOM     21  C   UNL     1      -1.491  14.382  23.667  0.00  0.00    +0.000 A 
ATOM     22  C   UNL     1      -1.607  12.991  23.657  0.00  0.00    +0.000 A 
ATOM     23  C   UNL     1      -1.510  12.273  22.458  0.00  0.00    +0.000 A 
ATOM     24  C   UNL     1      -1.272  12.916  21.233  0.00  0.00    +0.000 A 
ATOM     25  C   UNL     1      -1.123  14.312  21.255  0.00  0.00    +0.000 A 
ATOM     26  C   UNL     1      -1.234  15.035  22.457  0.00  0.00    +0.000 A 
ENDBRANCH  17  24
BRANCH  18  27
ATOM     27  C   UNL     1      -2.454  11.164  18.056  0.00  0.00    +0.000 A 
ATOM     28  C   UNL     1      -2.547   9.789  17.898  0.00  0.00    +0.000 A 
ATOM     29  C   UNL     1      -2.561   9.531  16.503  0.00  0.00    +0.000 A 
ATOM     30  C   UNL     1      -2.478  10.754  15.893  0.00  0.00    +0.000 A 
ATOM     31  O   UNL     1      -2.396  11.737  16.822  0.00  0.00    +0.000 OA
ENDBRANCH  18  27
ENDBRANCH   1  17
TORSDOF 6
ENDMDL
MODEL 8
REMARK VINA RESULT:      -6.3      2.162      6.659
REMARK  Name = 
REMARK  7 active torsions:
REMARK  status: ('A' for Active; 'I' for Inactive)
REMARK    1  A    between atoms: C_1  and  C_2
REMARK    2  A    between atoms: C_5  and  N_6
REMARK    3  A    between atoms: N_6  and  C_14
REMARK    4  A    between atoms: C_7  and  C_9
REMARK    5  A    between atoms: C_14  and  C_15
REMARK    6  A    between atoms: C_14  and  C_23
REMARK    7  A    between atoms: N_17  and  C_18
REMARK                            x       y       z     vdW  Elec       q    Type
REMARK                         _______ _______ _______ _____ _____    ______ ____
ROOT
ATOM      1  C   UNL     1      -0.543  10.531  19.833  0.00  0.00    +0.000 C 
ENDROOT
BRANCH   1   2
ATOM      2  C   UNL     1      -1.691  10.805  18.832  0.00  0.00    +0.000 A 
ATOM      3  C   UNL     1      -2.773  11.657  19.093  0.00  0.00    +0.000 A 
ATOM      4  C   UNL     1      -3.830  11.717  18.190  0.00  0.00    +0.000 A 
ATOM      5  N   UNL     1      -3.867  11.045  17.023  0.00  0.00    +0.000 NA
ATOM      6  C   UNL     1      -2.787  10.294  16.737  0.00  0.00    +0.000 A 
ATOM      7  C   UNL     1      -1.694  10.166  17.580  0.00  0.00    +0.000 A 
ENDBRANCH   1   2
BRANCH   1   8
ATOM      8  C   UNL     1      -0.742  11.236  21.247  0.00  0.00    +0.000 C 
ATOM      9  O   UNL     1      -0.068  10.922  22.233  0.00  0.00    +0.000 OA
ATOM     10  N   UNL     1      -1.644  12.282  21.337  0.00  0.00    +0.000 N 
ATOM     11  H   UNL     1      -2.316  12.391  20.591  0.00  0.00    +0.000 HD
BRANCH  10  12
ATOM     12  C   UNL     1      -1.932  12.915  22.617  0.00  0.00    +0.000 C 
ATOM     13  C   UNL     1      -2.353  14.370  22.469  0.00  0.00    +0.000 C 
ATOM     14  C   UNL     1      -2.964  14.703  23.823  0.00  0.00    +0.000 C 
ATOM     15  C   UNL     1      -3.617  13.409  24.304  0.00  0.00    +0.000 C 
ATOM     16  C   UNL     1      -3.116  12.301  23.373  0.00  0.00    +0.000 C 
ENDBRANCH  10  12
ENDBRANCH   1   8
BRANCH   1  17
ATOM     17  N   UNL     1       0.853  10.598  19.277  0.00  0.00    +0.000 N 
ATOM     18  C   UNL     1       1.520  11.790  18.869  0.00  0.00    +0.000 C 
ATOM     19  O   UNL     1       2.596  11.741  18.267  0.00  0.00    +0.000 OA
BRANCH  17  24
ATOM     20  C   UNL     1       3.429   5.517  18.178  0.00  0.00    +0.000 C 
ATOM     21  C   UNL     1       2.766   6.832  18.473  0.00  0.00    +0.000 A 
ATOM     22  C   UNL     1       2.649   7.808  17.482  0.00  0.00    +0.000 A 
ATOM     23  C   UNL     1       2.027   9.033  17.755  0.00  0.00    +0.000 A 
ATOM     24  C   UNL     1       1.521   9.333  19.030  0.00  0.00    +0.000 A 
ATOM     25  C   UNL     1       1.672   8.360  20.030  0.00  0.00    +0.000 A 
ATOM     26  C   UNL     1       2.284   7.123  19.753  0.00  0.00    +0.000 A 
ENDBRANCH  17  24
BRANCH  18  27
ATOM     27  C   UNL     1       0.941  13.104  19.115  0.00  0.00    +0.000 A 
ATOM     28  C   UNL     1       1.217  14.012  20.127  0.00  0.00    +0.000 A 
ATOM     29  C   UNL     1       0.396  15.146  19.902  0.00  0.00    +0.000 A 
ATOM     30  C   UNL     1      -0.329  14.869  18.774  0.00  0.00    +0.000 A 
ATOM     31  O   UNL     1      -0.018  13.636  18.307  0.00  0.00    +0.000 OA
ENDBRANCH  18  27
ENDBRANCH   1  17
TORSDOF 6
ENDMDL
MODEL 9
REMARK VINA RESULT:      -6.3      3.090      6.403
REMARK  Name = 
REMARK  7 active torsions:
REMARK  status: ('A' for Active; 'I' for Inactive)
REMARK    1  A    between atoms: C_1  and  C_2
REMARK    2  A    between atoms: C_5  and  N_6
REMARK    3  A    between atoms: N_6  and  C_14
REMARK    4  A    between atoms: C_7  and  C_9
REMARK    5  A    between atoms: C_14  and  C_15
REMARK    6  A    between atoms: C_14  and  C_23
REMARK    7  A    between atoms: N_17  and  C_18
REMARK                            x       y       z     vdW  Elec       q    Type
REMARK                         _______ _______ _______ _____ _____    ______ ____
ROOT
ATOM      1  C   UNL     1       0.404  10.233  19.432  0.00  0.00    +0.000 C 
ENDROOT
BRANCH   1   2
ATOM      2  C   UNL     1       0.451  10.042  20.967  0.00  0.00    +0.000 A 
ATOM      3  C   UNL     1       1.515   9.437  21.651  0.00  0.00    +0.000 A 
ATOM      4  C   UNL     1       1.393   9.178  23.012  0.00  0.00    +0.000 A 
ATOM      5  N   UNL     1       0.325   9.524  23.757  0.00  0.00    +0.000 NA
ATOM      6  C   UNL     1      -0.657  10.182  23.113  0.00  0.00    +0.000 A 
ATOM      7  C   UNL     1      -0.627  10.475  21.757  0.00  0.00    +0.000 A 
ENDBRANCH   1   2
BRANCH   1   8
ATOM      8  C   UNL     1       1.431   9.310  18.639  0.00  0.00    +0.000 C 
ATOM      9  O   UNL     1       1.995   9.695  17.609  0.00  0.00    +0.000 OA
ATOM     10  N   UNL     1       1.751   8.074  19.174  0.00  0.00    +0.000 N 
ATOM     11  H   UNL     1       1.146   7.699  19.890  0.00  0.00    +0.000 HD
BRANCH  10  12
ATOM     12  C   UNL     1       2.620   7.150  18.459  0.00  0.00    +0.000 C 
ATOM     13  C   UNL     1       3.662   6.507  19.363  0.00  0.00    +0.000 C 
ATOM     14  C   UNL     1       4.175   5.335  18.537  0.00  0.00    +0.000 C 
ATOM     15  C   UNL     1       2.977   4.856  17.720  0.00  0.00    +0.000 C 
ATOM     16  C   UNL     1       1.898   5.934  17.865  0.00  0.00    +0.000 C 
ENDBRANCH  10  12
ENDBRANCH   1   8
BRANCH   1  17
ATOM     17  N   UNL     1       0.308  11.651  18.940  0.00  0.00    +0.000 N 
ATOM     18  C   UNL     1      -0.737  12.168  18.119  0.00  0.00    +0.000 C 
ATOM     19  O   UNL     1      -0.653  13.293  17.620  0.00  0.00    +0.000 OA
BRANCH  17  24
ATOM     20  C   UNL     1       4.706  15.238  20.145  0.00  0.00    +0.000 C 
ATOM     21  C   UNL     1       3.574  14.304  19.826  0.00  0.00    +0.000 A 
ATOM     22  C   UNL     1       2.650  13.943  20.808  0.00  0.00    +0.000 A 
ATOM     23  C   UNL     1       1.592  13.075  20.510  0.00  0.00    +0.000 A 
ATOM     24  C   UNL     1       1.432  12.523  19.230  0.00  0.00    +0.000 A 
ATOM     25  C   UNL     1       2.384  12.864  18.257  0.00  0.00    +0.000 A 
ATOM     26  C   UNL     1       3.440  13.746  18.551  0.00  0.00    +0.000 A 
ENDBRANCH  17  24
BRANCH  18  27
ATOM     27  C   UNL     1      -1.920  11.376  17.811  0.00  0.00    +0.000 A 
ATOM     28  C   UNL     1      -2.047  10.270  16.984  0.00  0.00    +0.000 A 
ATOM     29  C   UNL     1      -3.403   9.859  17.046  0.00  0.00    +0.000 A 
ATOM     30  C   UNL     1      -4.022  10.730  17.902  0.00  0.00    +0.000 A 
ATOM     31  O   UNL     1      -3.138  11.653  18.351  0.00  0.00    +0.000 OA
ENDBRANCH  18  27
ENDBRANCH   1  17
TORSDOF 6
ENDMDL
