MODEL 1
REMARK VINA RESULT:      -7.9      0.000      0.000
REMARK  Name = 
REMARK  4 active torsions:
REMARK  status: ('A' for Active; 'I' for Inactive)
REMARK    1  A    between atoms: C_2  and  C_3
REMARK    2  A    between atoms: C_8  and  C_9
REMARK    3  A    between atoms: C_14  and  N_15
REMARK    4  A    between atoms: C_25  and  N_26
REMARK                            x       y       z     vdW  Elec       q    Type
REMARK                         _______ _______ _______ _____ _____    ______ ____
ROOT
ATOM      1  C   UNL     1       2.480   5.297  19.486  0.00  0.00    +0.000 A 
ATOM      2  C   UNL     1       1.221   4.700  19.717  0.00  0.00    +0.000 A 
ATOM      3  C   UNL     1       1.044   3.451  20.302  0.00  0.00    +0.000 A 
ATOM      4  C   UNL     1       2.151   2.660  20.511  0.00  0.00    +0.000 A 
ATOM      5  C   UNL     1       3.403   3.134  20.119  0.00  0.00    +0.000 A 
ATOM      6  C   UNL     1       3.619   4.460  19.669  0.00  0.00    +0.000 A 
ENDROOT
BRANCH   1   8
ATOM      7  O   UNL     1       2.619   6.936  17.754  0.00  0.00    +0.000 OA
ATOM      8  C   UNL     1       2.434   6.731  18.950  0.00  0.00    +0.000 C 
ATOM      9  N   UNL     1       2.101   7.824  19.790  0.00  0.00    +0.000 N 
ATOM     10  C   UNL     1       1.954   7.852  21.243  0.00  0.00    +0.000 C 
ATOM     11  C   UNL     1       0.487   8.110  21.607  0.00  0.00    +0.000 C 
ATOM     12  C   UNL     1      -0.080   9.397  20.989  0.00  0.00    +0.000 C 
ATOM     13  C   UNL     1       0.348   9.544  19.506  0.00  0.00    +0.000 C 
ATOM     14  C   UNL     1       1.787   9.127  19.184  0.00  0.00    +0.000 C 
BRANCH  12  15
ATOM     15  N   UNL     1       0.039  10.624  21.800  0.00  0.00    +0.000 NA
ATOM     16  C   UNL     1      -0.942  10.863  22.855  0.00  0.00    +0.000 C 
ATOM     17  C   UNL     1      -2.013  11.756  22.251  0.00  0.00    +0.000 C 
ATOM     18  C   UNL     1      -1.276  12.570  21.205  0.00  0.00    +0.000 C 
ATOM     19  C   UNL     1       0.047  11.848  20.978  0.00  0.00    +0.000 C 
ENDBRANCH  12  15
ENDBRANCH   1   8
BRANCH   6  20
ATOM     20  C   UNL     1       5.015   4.781  19.211  0.00  0.00    +0.000 C 
ATOM     21  O   UNL     1       5.841   5.052  20.080  0.00  0.00    +0.000 OA
ATOM     22  N   UNL     1       5.374   4.934  17.842  0.00  0.00    +0.000 N 
ATOM     23  C   UNL     1       6.791   5.214  17.582  0.00  0.00    +0.000 C 
ATOM     24  C   UNL     1       7.009   6.137  16.381  0.00  0.00    +0.000 C 
ATOM     25  C   UNL     1       6.330   5.638  15.086  0.00  0.00    +0.000 C 
ATOM     26  C   UNL     1       4.842   5.399  15.466  0.00  0.00    +0.000 C 
ATOM     27  C   UNL     1       4.659   4.446  16.657  0.00  0.00    +0.000 C 
BRANCH  25  28
ATOM     28  N   UNL     1       6.993   4.457  14.471  0.00  0.00    +0.000 NA
ATOM     29  C   UNL     1       7.977   4.800  13.419  0.00  0.00    +0.000 C 
ATOM     30  C   UNL     1       7.198   4.839  12.119  0.00  0.00    +0.000 C 
ATOM     31  C   UNL     1       6.224   3.697  12.279  0.00  0.00    +0.000 C 
ATOM     32  C   UNL     1       6.052   3.538  13.789  0.00  0.00    +0.000 C 
ENDBRANCH  25  28
ENDBRANCH   6  20
TORSDOF 4
ENDMDL
MODEL 2
REMARK VINA RESULT:      -7.6      4.167      8.943
REMARK  Name = 
REMARK  4 active torsions:
REMARK  status: ('A' for Active; 'I' for Inactive)
REMARK    1  A    between atoms: C_2  and  C_3
REMARK    2  A    between atoms: C_8  and  C_9
REMARK    3  A    between atoms: C_14  and  N_15
REMARK    4  A    between atoms: C_25  and  N_26
REMARK                            x       y       z     vdW  Elec       q    Type
REMARK                         _______ _______ _______ _____ _____    ______ ____
ROOT
ATOM      1  C   UNL     1      -0.361  10.384  19.452  0.00  0.00    +0.000 A 
ATOM      2  C   UNL     1      -1.467   9.903  18.718  0.00  0.00    +0.000 A 
ATOM      3  C   UNL     1      -2.164  10.650  17.775  0.00  0.00    +0.000 A 
ATOM      4  C   UNL     1      -1.885  11.993  17.665  0.00  0.00    +0.000 A 
ATOM      5  C   UNL     1      -0.928  12.556  18.508  0.00  0.00    +0.000 A 
ATOM      6  C   UNL     1      -0.102  11.782  19.361  0.00  0.00    +0.000 A 
ENDROOT
BRANCH   1   8
ATOM      7  O   UNL     1      -0.167   9.045  21.421  0.00  0.00    +0.000 OA
ATOM      8  C   UNL     1       0.333   9.348  20.342  0.00  0.00    +0.000 C 
ATOM      9  N   UNL     1       1.502   8.668  19.913  0.00  0.00    +0.000 N 
ATOM     10  C   UNL     1       2.337   8.930  18.743  0.00  0.00    +0.000 C 
ATOM     11  C   UNL     1       2.216   7.765  17.754  0.00  0.00    +0.000 C 
ATOM     12  C   UNL     1       2.569   6.401  18.367  0.00  0.00    +0.000 C 
ATOM     13  C   UNL     1       1.942   6.239  19.776  0.00  0.00    +0.000 C 
ATOM     14  C   UNL     1       1.963   7.490  20.662  0.00  0.00    +0.000 C 
BRANCH  12  15
ATOM     15  N   UNL     1       3.978   5.975  18.256  0.00  0.00    +0.000 NA
ATOM     16  C   UNL     1       4.440   5.411  16.991  0.00  0.00    +0.000 C 
ATOM     17  C   UNL     1       4.333   3.902  17.129  0.00  0.00    +0.000 C 
ATOM     18  C   UNL     1       4.542   3.645  18.609  0.00  0.00    +0.000 C 
ATOM     19  C   UNL     1       4.356   4.996  19.291  0.00  0.00    +0.000 C 
ENDBRANCH  12  15
ENDBRANCH   1   8
BRANCH   6  20
ATOM     20  C   UNL     1       0.822  12.556  20.261  0.00  0.00    +0.000 C 
ATOM     21  O   UNL     1       0.527  12.611  21.452  0.00  0.00    +0.000 OA
ATOM     22  N   UNL     1       1.910  13.338  19.780  0.00  0.00    +0.000 N 
ATOM     23  C   UNL     1       2.724  13.998  20.808  0.00  0.00    +0.000 C 
ATOM     24  C   UNL     1       3.262  15.359  20.364  0.00  0.00    +0.000 C 
ATOM     25  C   UNL     1       4.042  15.313  19.031  0.00  0.00    +0.000 C 
ATOM     26  C   UNL     1       3.087  14.623  18.017  0.00  0.00    +0.000 C 
ATOM     27  C   UNL     1       2.589  13.247  18.482  0.00  0.00    +0.000 C 
BRANCH  25  28
ATOM     28  N   UNL     1       5.378  14.667  19.135  0.00  0.00    +0.000 NA
ATOM     29  C   UNL     1       6.243  15.241  20.190  0.00  0.00    +0.000 C 
ATOM     30  C   UNL     1       7.015  16.367  19.529  0.00  0.00    +0.000 C 
ATOM     31  C   UNL     1       7.305  15.809  18.156  0.00  0.00    +0.000 C 
ATOM     32  C   UNL     1       6.193  14.792  17.904  0.00  0.00    +0.000 C 
ENDBRANCH  25  28
ENDBRANCH   6  20
TORSDOF 4
ENDMDL
MODEL 3
REMARK VINA RESULT:      -7.2      3.242     11.262
REMARK  Name = 
REMARK  4 active torsions:
REMARK  status: ('A' for Active; 'I' for Inactive)
REMARK    1  A    between atoms: C_2  and  C_3
REMARK    2  A    between atoms: C_8  and  C_9
REMARK    3  A    between atoms: C_14  and  N_15
REMARK    4  A    between atoms: C_25  and  N_26
REMARK                            x       y       z     vdW  Elec       q    Type
REMARK                         _______ _______ _______ _____ _____    ______ ____
ROOT
ATOM      1  C   UNL     1      -0.665  10.295  19.107  0.00  0.00    +0.000 A 
ATOM      2  C   UNL     1      -1.411   9.561  18.158  0.00  0.00    +0.000 A 
ATOM      3  C   UNL     1      -2.066  10.129  17.071  0.00  0.00    +0.000 A 
ATOM      4  C   UNL     1      -2.151  11.501  16.999  0.00  0.00    +0.000 A 
ATOM      5  C   UNL     1      -1.591  12.268  18.020  0.00  0.00    +0.000 A 
ATOM      6  C   UNL     1      -0.789  11.713  19.048  0.00  0.00    +0.000 A 
ENDROOT
BRANCH   1   8
ATOM      7  O   UNL     1      -0.428   9.263  21.249  0.00  0.00    +0.000 OA
ATOM      8  C   UNL     1       0.079   9.451  20.147  0.00  0.00    +0.000 C 
ATOM      9  N   UNL     1       1.307   8.811  19.839  0.00  0.00    +0.000 N 
ATOM     10  C   UNL     1       2.154   8.973  18.660  0.00  0.00    +0.000 C 
ATOM     11  C   UNL     1       2.149   7.675  17.843  0.00  0.00    +0.000 C 
ATOM     12  C   UNL     1       2.586   6.442  18.649  0.00  0.00    +0.000 C 
ATOM     13  C   UNL     1       1.932   6.430  20.055  0.00  0.00    +0.000 C 
ATOM     14  C   UNL     1       1.834   7.789  20.755  0.00  0.00    +0.000 C 
BRANCH  12  15
ATOM     15  N   UNL     1       4.025   6.116  18.625  0.00  0.00    +0.000 NA
ATOM     16  C   UNL     1       4.795   6.434  17.425  0.00  0.00    +0.000 C 
ATOM     17  C   UNL     1       4.825   5.168  16.587  0.00  0.00    +0.000 C 
ATOM     18  C   UNL     1       4.754   4.044  17.602  0.00  0.00    +0.000 C 
ATOM     19  C   UNL     1       4.288   4.692  18.901  0.00  0.00    +0.000 C 
ENDBRANCH  12  15
ENDBRANCH   1   8
BRANCH   6  20
ATOM     20  C   UNL     1      -0.330  12.670  20.114  0.00  0.00    +0.000 C 
ATOM     21  O   UNL     1       0.877  12.881  20.196  0.00  0.00    +0.000 OA
ATOM     22  N   UNL     1      -1.196  13.209  21.107  0.00  0.00    +0.000 N 
ATOM     23  C   UNL     1      -0.579  14.154  22.046  0.00  0.00    +0.000 C 
ATOM     24  C   UNL     1      -1.169  14.069  23.456  0.00  0.00    +0.000 C 
ATOM     25  C   UNL     1      -2.706  14.222  23.495  0.00  0.00    +0.000 C 
ATOM     26  C   UNL     1      -3.252  13.168  22.492  0.00  0.00    +0.000 C 
ATOM     27  C   UNL     1      -2.661  13.301  21.081  0.00  0.00    +0.000 C 
BRANCH  25  28
ATOM     28  N   UNL     1      -3.182  15.607  23.234  0.00  0.00    +0.000 NA
ATOM     29  C   UNL     1      -2.384  16.655  23.910  0.00  0.00    +0.000 C 
ATOM     30  C   UNL     1      -3.031  16.858  25.267  0.00  0.00    +0.000 C 
ATOM     31  C   UNL     1      -4.503  16.730  24.956  0.00  0.00    +0.000 C 
ATOM     32  C   UNL     1      -4.564  15.856  23.704  0.00  0.00    +0.000 C 
ENDBRANCH  25  28
ENDBRANCH   6  20
TORSDOF 4
ENDMDL
MODEL 4
REMARK VINA RESULT:      -7.2      3.197     10.859
REMARK  Name = 
REMARK  4 active torsions:
REMARK  status: ('A' for Active; 'I' for Inactive)
REMARK    1  A    between atoms: C_2  and  C_3
REMARK    2  A    between atoms: C_8  and  C_9
REMARK    3  A    between atoms: C_14  and  N_15
REMARK    4  A    between atoms: C_25  and  N_26
REMARK                            x       y       z     vdW  Elec       q    Type
REMARK                         _______ _______ _______ _____ _____    ______ ____
ROOT
ATOM      1  C   UNL     1      -0.973  10.379  18.707  0.00  0.00    +0.000 A 
ATOM      2  C   UNL     1      -1.894   9.484  18.119  0.00  0.00    +0.000 A 
ATOM      3  C   UNL     1      -2.696   9.794  17.027  0.00  0.00    +0.000 A 
ATOM      4  C   UNL     1      -2.738  11.100  16.592  0.00  0.00    +0.000 A 
ATOM      5  C   UNL     1      -1.987  12.061  17.268  0.00  0.00    +0.000 A 
ATOM      6  C   UNL     1      -1.048  11.736  18.278  0.00  0.00    +0.000 A 
ENDROOT
BRANCH   1   8
ATOM      7  O   UNL     1      -0.521   9.763  20.971  0.00  0.00    +0.000 OA
ATOM      8  C   UNL     1      -0.101   9.783  19.817  0.00  0.00    +0.000 C 
ATOM      9  N   UNL     1       1.150   9.179  19.532  0.00  0.00    +0.000 N 
ATOM     10  C   UNL     1       1.904   9.180  18.281  0.00  0.00    +0.000 C 
ATOM     11  C   UNL     1       1.946   7.760  17.705  0.00  0.00    +0.000 C 
ATOM     12  C   UNL     1       2.527   6.721  18.676  0.00  0.00    +0.000 C 
ATOM     13  C   UNL     1       1.967   6.918  20.109  0.00  0.00    +0.000 C 
ATOM     14  C   UNL     1       1.811   8.372  20.569  0.00  0.00    +0.000 C 
BRANCH  12  15
ATOM     15  N   UNL     1       3.982   6.488  18.599  0.00  0.00    +0.000 NA
ATOM     16  C   UNL     1       4.633   6.554  17.293  0.00  0.00    +0.000 C 
ATOM     17  C   UNL     1       4.705   5.127  16.778  0.00  0.00    +0.000 C 
ATOM     18  C   UNL     1       4.801   4.279  18.033  0.00  0.00    +0.000 C 
ATOM     19  C   UNL     1       4.380   5.193  19.178  0.00  0.00    +0.000 C 
ENDBRANCH  12  15
ENDBRANCH   1   8
BRANCH   6  20
ATOM     20  C   UNL     1      -0.382  12.900  18.957  0.00  0.00    +0.000 C 
ATOM     21  O   UNL     1       0.581  13.406  18.386  0.00  0.00    +0.000 OA
ATOM     22  N   UNL     1      -0.712  13.331  20.273  0.00  0.00    +0.000 N 
ATOM     23  C   UNL     1       0.020  14.507  20.761  0.00  0.00    +0.000 C 
ATOM     24  C   UNL     1       0.301  14.457  22.264  0.00  0.00    +0.000 C 
ATOM     25  C   UNL     1      -0.964  14.236  23.124  0.00  0.00    +0.000 C 
ATOM     26  C   UNL     1      -1.642  12.964  22.542  0.00  0.00    +0.000 C 
ATOM     27  C   UNL     1      -1.936  13.060  21.037  0.00  0.00    +0.000 C 
BRANCH  25  28
ATOM     28  N   UNL     1      -1.862  15.420  23.194  0.00  0.00    +0.000 NA
ATOM     29  C   UNL     1      -1.354  16.509  24.059  0.00  0.00    +0.000 C 
ATOM     30  C   UNL     1      -1.890  16.220  25.448  0.00  0.00    +0.000 C 
ATOM     31  C   UNL     1      -3.277  15.696  25.167  0.00  0.00    +0.000 C 
ATOM     32  C   UNL     1      -3.199  15.116  23.756  0.00  0.00    +0.000 C 
ENDBRANCH  25  28
ENDBRANCH   6  20
TORSDOF 4
ENDMDL
MODEL 5
REMARK VINA RESULT:      -7.1      3.273      6.351
REMARK  Name = 
REMARK  4 active torsions:
REMARK  status: ('A' for Active; 'I' for Inactive)
REMARK    1  A    between atoms: C_2  and  C_3
REMARK    2  A    between atoms: C_8  and  C_9
REMARK    3  A    between atoms: C_14  and  N_15
REMARK    4  A    between atoms: C_25  and  N_26
REMARK                            x       y       z     vdW  Elec       q    Type
REMARK                         _______ _______ _______ _____ _____    ______ ____
ROOT
ATOM      1  C   UNL     1       0.041  10.817  20.768  0.00  0.00    +0.000 A 
ATOM      2  C   UNL     1      -0.755  11.126  21.892  0.00  0.00    +0.000 A 
ATOM      3  C   UNL     1      -0.661  10.476  23.118  0.00  0.00    +0.000 A 
ATOM      4  C   UNL     1       0.122   9.348  23.205  0.00  0.00    +0.000 A 
ATOM      5  C   UNL     1       0.780   8.892  22.063  0.00  0.00    +0.000 A 
ATOM      6  C   UNL     1       0.821   9.628  20.852  0.00  0.00    +0.000 A 
ENDROOT
BRANCH   1   8
ATOM      7  O   UNL     1      -1.107  11.592  18.821  0.00  0.00    +0.000 OA
ATOM      8  C   UNL     1      -0.142  11.747  19.563  0.00  0.00    +0.000 C 
ATOM      9  N   UNL     1       0.736  12.836  19.329  0.00  0.00    +0.000 N 
ATOM     10  C   UNL     1       2.000  13.152  19.990  0.00  0.00    +0.000 C 
ATOM     11  C   UNL     1       1.844  14.441  20.807  0.00  0.00    +0.000 C 
ATOM     12  C   UNL     1       1.362  15.639  19.974  0.00  0.00    +0.000 C 
ATOM     13  C   UNL     1       0.214  15.231  19.015  0.00  0.00    +0.000 C 
ATOM     14  C   UNL     1       0.362  13.862  18.344  0.00  0.00    +0.000 C 
BRANCH  12  15
ATOM     15  N   UNL     1       2.410  16.486  19.373  0.00  0.00    +0.000 NA
ATOM     16  C   UNL     1       2.489  16.574  17.917  0.00  0.00    +0.000 C 
ATOM     17  C   UNL     1       3.522  15.550  17.481  0.00  0.00    +0.000 C 
ATOM     18  C   UNL     1       4.487  15.469  18.649  0.00  0.00    +0.000 C 
ATOM     19  C   UNL     1       3.764  16.119  19.824  0.00  0.00    +0.000 C 
ENDBRANCH  12  15
ENDBRANCH   1   8
BRANCH   6  20
ATOM     20  C   UNL     1       1.507   8.954  19.696  0.00  0.00    +0.000 C 
ATOM     21  O   UNL     1       1.746   9.643  18.708  0.00  0.00    +0.000 OA
ATOM     22  N   UNL     1       1.744   7.551  19.636  0.00  0.00    +0.000 N 
ATOM     23  C   UNL     1       2.457   7.076  18.444  0.00  0.00    +0.000 C 
ATOM     24  C   UNL     1       2.001   5.689  17.987  0.00  0.00    +0.000 C 
ATOM     25  C   UNL     1       2.068   4.617  19.098  0.00  0.00    +0.000 C 
ATOM     26  C   UNL     1       1.269   5.208  20.292  0.00  0.00    +0.000 C 
ATOM     27  C   UNL     1       1.772   6.588  20.743  0.00  0.00    +0.000 C 
BRANCH  25  28
ATOM     28  N   UNL     1       3.452   4.195  19.447  0.00  0.00    +0.000 NA
ATOM     29  C   UNL     1       4.315   3.933  18.274  0.00  0.00    +0.000 C 
ATOM     30  C   UNL     1       4.124   2.467  17.937  0.00  0.00    +0.000 C 
ATOM     31  C   UNL     1       4.021   1.823  19.298  0.00  0.00    +0.000 C 
ATOM     32  C   UNL     1       3.508   2.931  20.217  0.00  0.00    +0.000 C 
ENDBRANCH  25  28
ENDBRANCH   6  20
TORSDOF 4
ENDMDL
MODEL 6
REMARK VINA RESULT:      -7.1      7.236     11.819
REMARK  Name = 
REMARK  4 active torsions:
REMARK  status: ('A' for Active; 'I' for Inactive)
REMARK    1  A    between atoms: C_2  and  C_3
REMARK    2  A    between atoms: C_8  and  C_9
REMARK    3  A    between atoms: C_14  and  N_15
REMARK    4  A    between atoms: C_25  and  N_26
REMARK                            x       y       z     vdW  Elec       q    Type
REMARK                         _______ _______ _______ _____ _____    ______ ____
ROOT
ATOM      1  C   UNL     1      -0.696  11.167  20.857  0.00  0.00    +0.000 A 
ATOM      2  C   UNL     1      -0.153   9.903  20.538  0.00  0.00    +0.000 A 
ATOM      3  C   UNL     1      -0.107   8.828  21.418  0.00  0.00    +0.000 A 
ATOM      4  C   UNL     1      -0.443   9.042  22.736  0.00  0.00    +0.000 A 
ATOM      5  C   UNL     1      -0.805  10.327  23.140  0.00  0.00    +0.000 A 
ATOM      6  C   UNL     1      -1.007  11.393  22.229  0.00  0.00    +0.000 A 
ENDROOT
BRANCH   1   8
ATOM      7  O   UNL     1      -1.766  12.209  18.992  0.00  0.00    +0.000 OA
ATOM      8  C   UNL     1      -0.760  12.163  19.694  0.00  0.00    +0.000 C 
ATOM      9  N   UNL     1       0.285  13.091  19.457  0.00  0.00    +0.000 N 
ATOM     10  C   UNL     1       1.610  13.155  20.070  0.00  0.00    +0.000 C 
ATOM     11  C   UNL     1       1.715  14.416  20.935  0.00  0.00    +0.000 C 
ATOM     12  C   UNL     1       1.419  15.714  20.167  0.00  0.00    +0.000 C 
ATOM     13  C   UNL     1       0.180  15.552  19.248  0.00  0.00    +0.000 C 
ATOM     14  C   UNL     1       0.059  14.206  18.526  0.00  0.00    +0.000 C 
BRANCH  12  15
ATOM     15  N   UNL     1       2.575  16.389  19.547  0.00  0.00    +0.000 NA
ATOM     16  C   UNL     1       2.611  16.522  18.093  0.00  0.00    +0.000 C 
ATOM     17  C   UNL     1       3.430  15.352  17.576  0.00  0.00    +0.000 C 
ATOM     18  C   UNL     1       4.410  15.057  18.695  0.00  0.00    +0.000 C 
ATOM     19  C   UNL     1       3.860  15.773  19.923  0.00  0.00    +0.000 C 
ENDBRANCH  12  15
ENDBRANCH   1   8
BRANCH   6  20
ATOM     20  C   UNL     1      -1.316  12.732  22.841  0.00  0.00    +0.000 C 
ATOM     21  O   UNL     1      -0.407  13.295  23.445  0.00  0.00    +0.000 OA
ATOM     22  N   UNL     1      -2.626  13.288  22.886  0.00  0.00    +0.000 N 
ATOM     23  C   UNL     1      -2.732  14.621  23.493  0.00  0.00    +0.000 C 
ATOM     24  C   UNL     1      -4.042  14.829  24.257  0.00  0.00    +0.000 C 
ATOM     25  C   UNL     1      -5.304  14.537  23.414  0.00  0.00    +0.000 C 
ATOM     26  C   UNL     1      -5.098  13.106  22.843  0.00  0.00    +0.000 C 
ATOM     27  C   UNL     1      -3.788  12.941  22.059  0.00  0.00    +0.000 C 
BRANCH  25  28
ATOM     28  N   UNL     1      -5.588  15.565  22.377  0.00  0.00    +0.000 NA
ATOM     29  C   UNL     1      -5.863  16.912  22.925  0.00  0.00    +0.000 C 
ATOM     30  C   UNL     1      -7.360  16.966  23.162  0.00  0.00    +0.000 C 
ATOM     31  C   UNL     1      -7.912  16.208  21.979  0.00  0.00    +0.000 C 
ATOM     32  C   UNL     1      -6.786  15.264  21.559  0.00  0.00    +0.000 C 
ENDBRANCH  25  28
ENDBRANCH   6  20
TORSDOF 4
ENDMDL
MODEL 7
REMARK VINA RESULT:      -7.0      3.461      6.510
REMARK  Name = 
REMARK  4 active torsions:
REMARK  status: ('A' for Active; 'I' for Inactive)
REMARK    1  A    between atoms: C_2  and  C_3
REMARK    2  A    between atoms: C_8  and  C_9
REMARK    3  A    between atoms: C_14  and  N_15
REMARK    4  A    between atoms: C_25  and  N_26
REMARK                            x       y       z     vdW  Elec       q    Type
REMARK                         _______ _______ _______ _____ _____    ______ ____
ROOT
ATOM      1  C   UNL     1      -0.459  11.480  20.938  0.00  0.00    +0.000 A 
ATOM      2  C   UNL     1      -1.176  11.623  22.146  0.00  0.00    +0.000 A 
ATOM      3  C   UNL     1      -1.148  10.701  23.186  0.00  0.00    +0.000 A 
ATOM      4  C   UNL     1      -0.533   9.488  22.971  0.00  0.00    +0.000 A 
ATOM      5  C   UNL     1       0.026   9.226  21.721  0.00  0.00    +0.000 A 
ATOM      6  C   UNL     1       0.143  10.209  20.708  0.00  0.00    +0.000 A 
ENDROOT
BRANCH   1   8
ATOM      7  O   UNL     1      -1.626  13.043  19.559  0.00  0.00    +0.000 OA
ATOM      8  C   UNL     1      -0.535  12.679  19.987  0.00  0.00    +0.000 C 
ATOM      9  N   UNL     1       0.619  13.432  19.652  0.00  0.00    +0.000 N 
ATOM     10  C   UNL     1       2.021  13.134  19.936  0.00  0.00    +0.000 C 
ATOM     11  C   UNL     1       2.572  14.162  20.933  0.00  0.00    +0.000 C 
ATOM     12  C   UNL     1       2.420  15.616  20.461  0.00  0.00    +0.000 C 
ATOM     13  C   UNL     1       1.018  15.863  19.848  0.00  0.00    +0.000 C 
ATOM     14  C   UNL     1       0.461  14.730  18.980  0.00  0.00    +0.000 C 
BRANCH  12  15
ATOM     15  N   UNL     1       3.548  16.180  19.694  0.00  0.00    +0.000 NA
ATOM     16  C   UNL     1       3.309  16.626  18.324  0.00  0.00    +0.000 C 
ATOM     17  C   UNL     1       3.699  15.467  17.422  0.00  0.00    +0.000 C 
ATOM     18  C   UNL     1       4.792  14.747  18.188  0.00  0.00    +0.000 C 
ATOM     19  C   UNL     1       4.699  15.262  19.620  0.00  0.00    +0.000 C 
ENDBRANCH  12  15
ENDBRANCH   1   8
BRANCH   6  20
ATOM     20  C   UNL     1       0.698   9.736  19.392  0.00  0.00    +0.000 C 
ATOM     21  O   UNL     1       0.345  10.343  18.384  0.00  0.00    +0.000 OA
ATOM     22  N   UNL     1       1.470   8.548  19.250  0.00  0.00    +0.000 N 
ATOM     23  C   UNL     1       1.955   8.262  17.895  0.00  0.00    +0.000 C 
ATOM     24  C   UNL     1       2.010   6.765  17.582  0.00  0.00    +0.000 C 
ATOM     25  C   UNL     1       2.822   5.946  18.611  0.00  0.00    +0.000 C 
ATOM     26  C   UNL     1       2.214   6.304  19.995  0.00  0.00    +0.000 C 
ATOM     27  C   UNL     1       2.201   7.812  20.289  0.00  0.00    +0.000 C 
BRANCH  25  28
ATOM     28  N   UNL     1       4.292   6.156  18.525  0.00  0.00    +0.000 NA
ATOM     29  C   UNL     1       4.814   6.201  17.140  0.00  0.00    +0.000 C 
ATOM     30  C   UNL     1       5.157   4.768  16.779  0.00  0.00    +0.000 C 
ATOM     31  C   UNL     1       5.721   4.226  18.070  0.00  0.00    +0.000 C 
ATOM     32  C   UNL     1       5.082   5.078  19.165  0.00  0.00    +0.000 C 
ENDBRANCH  25  28
ENDBRANCH   6  20
TORSDOF 4
ENDMDL
MODEL 8
REMARK VINA RESULT:      -6.8      3.295      6.215
REMARK  Name = 
REMARK  4 active torsions:
REMARK  status: ('A' for Active; 'I' for Inactive)
REMARK    1  A    between atoms: C_2  and  C_3
REMARK    2  A    between atoms: C_8  and  C_9
REMARK    3  A    between atoms: C_14  and  N_15
REMARK    4  A    between atoms: C_25  and  N_26
REMARK                            x       y       z     vdW  Elec       q    Type
REMARK                         _______ _______ _______ _____ _____    ______ ____
ROOT
ATOM      1  C   UNL     1       0.004  10.511  20.791  0.00  0.00    +0.000 A 
ATOM      2  C   UNL     1      -0.751  10.803  21.949  0.00  0.00    +0.000 A 
ATOM      3  C   UNL     1      -0.521  10.231  23.195  0.00  0.00    +0.000 A 
ATOM      4  C   UNL     1       0.371   9.187  23.284  0.00  0.00    +0.000 A 
ATOM      5  C   UNL     1       1.001   8.736  22.125  0.00  0.00    +0.000 A 
ATOM      6  C   UNL     1       0.898   9.406  20.881  0.00  0.00    +0.000 A 
ENDROOT
BRANCH   1   8
ATOM      7  O   UNL     1      -1.303  11.045  18.863  0.00  0.00    +0.000 OA
ATOM      8  C   UNL     1      -0.340  11.354  19.558  0.00  0.00    +0.000 C 
ATOM      9  N   UNL     1       0.381  12.534  19.244  0.00  0.00    +0.000 N 
ATOM     10  C   UNL     1       1.616  13.038  19.839  0.00  0.00    +0.000 C 
ATOM     11  C   UNL     1       1.325  14.333  20.609  0.00  0.00    +0.000 C 
ATOM     12  C   UNL     1       0.664  15.421  19.749  0.00  0.00    +0.000 C 
ATOM     13  C   UNL     1      -0.456  14.827  18.855  0.00  0.00    +0.000 C 
ATOM     14  C   UNL     1      -0.157  13.458  18.235  0.00  0.00    +0.000 C 
BRANCH  12  15
ATOM     15  N   UNL     1       1.572  16.366  19.071  0.00  0.00    +0.000 NA
ATOM     16  C   UNL     1       2.364  17.283  19.886  0.00  0.00    +0.000 C 
ATOM     17  C   UNL     1       1.583  18.584  19.949  0.00  0.00    +0.000 C 
ATOM     18  C   UNL     1       0.821  18.629  18.639  0.00  0.00    +0.000 C 
ATOM     19  C   UNL     1       0.876  17.210  18.083  0.00  0.00    +0.000 C 
ENDBRANCH  12  15
ENDBRANCH   1   8
BRANCH   6  20
ATOM     20  C   UNL     1       1.576   8.739  19.716  0.00  0.00    +0.000 C 
ATOM     21  O   UNL     1       1.830   9.440  18.740  0.00  0.00    +0.000 OA
ATOM     22  N   UNL     1       1.789   7.334  19.634  0.00  0.00    +0.000 N 
ATOM     23  C   UNL     1       2.497   6.866  18.437  0.00  0.00    +0.000 C 
ATOM     24  C   UNL     1       2.019   5.494  17.956  0.00  0.00    +0.000 C 
ATOM     25  C   UNL     1       2.064   4.403  19.049  0.00  0.00    +0.000 C 
ATOM     26  C   UNL     1       1.272   4.989  20.251  0.00  0.00    +0.000 C 
ATOM     27  C   UNL     1       1.797   6.352  20.725  0.00  0.00    +0.000 C 
BRANCH  25  28
ATOM     28  N   UNL     1       3.439   3.952  19.396  0.00  0.00    +0.000 NA
ATOM     29  C   UNL     1       4.293   3.670  18.220  0.00  0.00    +0.000 C 
ATOM     30  C   UNL     1       4.070   2.208  17.885  0.00  0.00    +0.000 C 
ATOM     31  C   UNL     1       3.956   1.568  19.247  0.00  0.00    +0.000 C 
ATOM     32  C   UNL     1       3.470   2.687  20.167  0.00  0.00    +0.000 C 
ENDBRANCH  25  28
ENDBRANCH   6  20
TORSDOF 4
ENDMDL
MODEL 9
REMARK VINA RESULT:      -6.8      0.948      9.250
REMARK  Name = 
REMARK  4 active torsions:
REMARK  status: ('A' for Active; 'I' for Inactive)
REMARK    1  A    between atoms: C_2  and  C_3
REMARK    2  A    between atoms: C_8  and  C_9
REMARK    3  A    between atoms: C_14  and  N_15
REMARK    4  A    between atoms: C_25  and  N_26
REMARK                            x       y       z     vdW  Elec       q    Type
REMARK                         _______ _______ _______ _____ _____    ______ ____
ROOT
ATOM      1  C   UNL     1       3.864   4.813  19.581  0.00  0.00    +0.000 A 
ATOM      2  C   UNL     1       4.057   3.641  20.345  0.00  0.00    +0.000 A 
ATOM      3  C   UNL     1       3.029   2.917  20.938  0.00  0.00    +0.000 A 
ATOM      4  C   UNL     1       1.762   3.456  20.940  0.00  0.00    +0.000 A 
ATOM      5  C   UNL     1       1.560   4.709  20.362  0.00  0.00    +0.000 A 
ATOM      6  C   UNL     1       2.560   5.385  19.619  0.00  0.00    +0.000 A 
ENDROOT
BRANCH   1   8
ATOM      7  O   UNL     1       6.074   5.720  19.612  0.00  0.00    +0.000 OA
ATOM      8  C   UNL     1       5.126   5.373  18.915  0.00  0.00    +0.000 C 
ATOM      9  N   UNL     1       5.256   5.425  17.504  0.00  0.00    +0.000 N 
ATOM     10  C   UNL     1       4.242   5.183  16.481  0.00  0.00    +0.000 C 
ATOM     11  C   UNL     1       4.590   3.908  15.704  0.00  0.00    +0.000 C 
ATOM     12  C   UNL     1       5.989   3.939  15.071  0.00  0.00    +0.000 C 
ATOM     13  C   UNL     1       7.040   4.509  16.059  0.00  0.00    +0.000 C 
ATOM     14  C   UNL     1       6.576   5.693  16.913  0.00  0.00    +0.000 C 
BRANCH  12  15
ATOM     15  N   UNL     1       6.077   4.460  13.693  0.00  0.00    +0.000 NA
ATOM     16  C   UNL     1       5.100   4.003  12.708  0.00  0.00    +0.000 C 
ATOM     17  C   UNL     1       5.748   2.847  11.966  0.00  0.00    +0.000 C 
ATOM     18  C   UNL     1       7.232   3.160  12.005  0.00  0.00    +0.000 C 
ATOM     19  C   UNL     1       7.398   4.226  13.082  0.00  0.00    +0.000 C 
ENDBRANCH  12  15
ENDBRANCH   1   8
BRANCH   6  20
ATOM     20  C   UNL     1       2.200   6.761  19.132  0.00  0.00    +0.000 C 
ATOM     21  O   UNL     1       2.475   7.033  17.966  0.00  0.00    +0.000 OA
ATOM     22  N   UNL     1       1.710   7.790  19.985  0.00  0.00    +0.000 N 
ATOM     23  C   UNL     1       1.380   9.060  19.328  0.00  0.00    +0.000 C 
ATOM     24  C   UNL     1       1.665  10.281  20.205  0.00  0.00    +0.000 C 
ATOM     25  C   UNL     1       0.987  10.220  21.592  0.00  0.00    +0.000 C 
ATOM     26  C   UNL     1       1.419   8.859  22.204  0.00  0.00    +0.000 C 
ATOM     27  C   UNL     1       1.092   7.653  21.310  0.00  0.00    +0.000 C 
BRANCH  25  28
ATOM     28  N   UNL     1      -0.486  10.424  21.553  0.00  0.00    +0.000 NA
ATOM     29  C   UNL     1      -0.906  11.639  20.820  0.00  0.00    +0.000 C 
ATOM     30  C   UNL     1      -0.940  12.754  21.848  0.00  0.00    +0.000 C 
ATOM     31  C   UNL     1      -1.478  12.059  23.075  0.00  0.00    +0.000 C 
ATOM     32  C   UNL     1      -1.096  10.591  22.893  0.00  0.00    +0.000 C 
ENDBRANCH  25  28
ENDBRANCH   6  20
TORSDOF 4
ENDMDL
