MODEL 1
REMARK VINA RESULT:      -7.5      0.000      0.000
REMARK  Name = 
REMARK  2 active torsions:
REMARK  status: ('A' for Active; 'I' for Inactive)
REMARK    1  A    between atoms: O_1  and  C_2
REMARK    2  A    between atoms: C_5  and  C_6
REMARK                            x       y       z     vdW  Elec       q    Type
REMARK                         _______ _______ _______ _____ _____    ______ ____
ROOT
ATOM      1  C   UNL     1       5.676   4.746  17.171  0.00  0.00    +0.000 A 
ATOM      2  C   UNL     1       4.638   5.519  17.649  0.00  0.00    +0.000 A 
ATOM      3  C   UNL     1       4.124   4.888  18.803  0.00  0.00    +0.000 A 
ATOM      4  C   UNL     1       3.000   5.141  19.604  0.00  0.00    +0.000 A 
ATOM      5  C   UNL     1       2.422   4.022  20.193  0.00  0.00    +0.000 A 
ATOM      6 CL   UNL     1       0.725   4.048  20.499  0.00  0.00    +0.000 Cl
ATOM      7  C   UNL     1       3.149   2.850  20.388  0.00  0.00    +0.000 A 
ATOM      8  C   UNL     1       4.460   2.734  19.908  0.00  0.00    +0.000 A 
ATOM      9  C   UNL     1       4.859   3.718  18.997  0.00  0.00    +0.000 A 
ATOM     10  N   UNL     1       5.925   3.776  18.113  0.00  0.00    +0.000 N 
ATOM     11  H   UNL     1       6.657   3.076  18.047  0.00  0.00    +0.000 HD
ENDROOT
BRANCH   1  15
ATOM     12  C   UNL     1       6.812   4.538  13.884  0.00  0.00    +0.000 A 
ATOM     13  N   UNL     1       7.709   5.391  14.314  0.00  0.00    +0.000 NA
ATOM     14  N   UNL     1       7.401   5.600  15.634  0.00  0.00    +0.000 NA
ATOM     15  C   UNL     1       6.321   4.867  15.907  0.00  0.00    +0.000 A 
ATOM     16  O   UNL     1       5.903   4.177  14.823  0.00  0.00    +0.000 OA
BRANCH  12  17
ATOM     17  O   UNL     1       6.707   3.978  12.704  0.00  0.00    +0.000 OA
ATOM     18  H   UNL     1       6.711   4.756  12.115  0.00  0.00    +0.000 HD
ENDBRANCH  12  17
ENDBRANCH   1  15
TORSDOF 2
ENDMDL
MODEL 2
REMARK VINA RESULT:      -7.4      4.080      5.810
REMARK  Name = 
REMARK  2 active torsions:
REMARK  status: ('A' for Active; 'I' for Inactive)
REMARK    1  A    between atoms: O_1  and  C_2
REMARK    2  A    between atoms: C_5  and  C_6
REMARK                            x       y       z     vdW  Elec       q    Type
REMARK                         _______ _______ _______ _____ _____    ______ ____
ROOT
ATOM      1  C   UNL     1       4.216   4.286  18.012  0.00  0.00    +0.000 A 
ATOM      2  C   UNL     1       4.498   5.330  17.156  0.00  0.00    +0.000 A 
ATOM      3  C   UNL     1       5.834   5.728  17.384  0.00  0.00    +0.000 A 
ATOM      4  C   UNL     1       6.598   6.807  16.914  0.00  0.00    +0.000 A 
ATOM      5  C   UNL     1       7.566   7.281  17.792  0.00  0.00    +0.000 A 
ATOM      6 CL   UNL     1       7.987   8.952  17.716  0.00  0.00    +0.000 Cl
ATOM      7  C   UNL     1       8.074   6.478  18.811  0.00  0.00    +0.000 A 
ATOM      8  C   UNL     1       7.551   5.198  19.041  0.00  0.00    +0.000 A 
ATOM      9  C   UNL     1       6.339   4.917  18.402  0.00  0.00    +0.000 A 
ATOM     10  N   UNL     1       5.400   3.920  18.608  0.00  0.00    +0.000 N 
ATOM     11  H   UNL     1       5.505   3.156  19.268  0.00  0.00    +0.000 HD
ENDROOT
BRANCH   1  15
ATOM     12  C   UNL     1       1.211   3.151  19.361  0.00  0.00    +0.000 A 
ATOM     13  N   UNL     1       1.047   2.659  18.158  0.00  0.00    +0.000 NA
ATOM     14  N   UNL     1       2.170   3.027  17.464  0.00  0.00    +0.000 NA
ATOM     15  C   UNL     1       2.933   3.736  18.296  0.00  0.00    +0.000 A 
ATOM     16  O   UNL     1       2.363   3.849  19.516  0.00  0.00    +0.000 OA
BRANCH  12  17
ATOM     17  O   UNL     1       0.441   3.026  20.414  0.00  0.00    +0.000 OA
ATOM     18  H   UNL     1       0.709   2.151  20.752  0.00  0.00    +0.000 HD
ENDBRANCH  12  17
ENDBRANCH   1  15
TORSDOF 2
ENDMDL
MODEL 3
REMARK VINA RESULT:      -7.3      1.482      1.970
REMARK  Name = 
REMARK  2 active torsions:
REMARK  status: ('A' for Active; 'I' for Inactive)
REMARK    1  A    between atoms: O_1  and  C_2
REMARK    2  A    between atoms: C_5  and  C_6
REMARK                            x       y       z     vdW  Elec       q    Type
REMARK                         _______ _______ _______ _____ _____    ______ ____
ROOT
ATOM      1  C   UNL     1       4.251   4.888  16.861  0.00  0.00    +0.000 A 
ATOM      2  C   UNL     1       3.522   3.769  17.202  0.00  0.00    +0.000 A 
ATOM      3  C   UNL     1       2.664   4.118  18.268  0.00  0.00    +0.000 A 
ATOM      4  C   UNL     1       1.817   3.364  19.094  0.00  0.00    +0.000 A 
ATOM      5  C   UNL     1       1.661   3.846  20.389  0.00  0.00    +0.000 A 
ATOM      6 CL   UNL     1       1.352   2.709  21.649  0.00  0.00    +0.000 Cl
ATOM      7  C   UNL     1       1.901   5.182  20.698  0.00  0.00    +0.000 A 
ATOM      8  C   UNL     1       2.401   6.062  19.727  0.00  0.00    +0.000 A 
ATOM      9  C   UNL     1       2.905   5.460  18.569  0.00  0.00    +0.000 A 
ATOM     10  N   UNL     1       3.719   5.947  17.559  0.00  0.00    +0.000 N 
ATOM     11  H   UNL     1       4.036   6.908  17.487  0.00  0.00    +0.000 HD
ENDROOT
BRANCH   1  15
ATOM     12  C   UNL     1       6.634   4.682  14.328  0.00  0.00    +0.000 A 
ATOM     13  N   UNL     1       7.418   5.185  15.249  0.00  0.00    +0.000 NA
ATOM     14  N   UNL     1       6.618   5.344  16.352  0.00  0.00    +0.000 NA
ATOM     15  C   UNL     1       5.394   4.939  16.013  0.00  0.00    +0.000 A 
ATOM     16  O   UNL     1       5.351   4.513  14.731  0.00  0.00    +0.000 OA
BRANCH  12  17
ATOM     17  O   UNL     1       6.935   4.298  13.111  0.00  0.00    +0.000 OA
ATOM     18  H   UNL     1       7.812   4.707  12.987  0.00  0.00    +0.000 HD
ENDBRANCH  12  17
ENDBRANCH   1  15
TORSDOF 2
ENDMDL
MODEL 4
REMARK VINA RESULT:      -7.1      1.205      1.205
REMARK  Name = 
REMARK  2 active torsions:
REMARK  status: ('A' for Active; 'I' for Inactive)
REMARK    1  A    between atoms: O_1  and  C_2
REMARK    2  A    between atoms: C_5  and  C_6
REMARK                            x       y       z     vdW  Elec       q    Type
REMARK                         _______ _______ _______ _____ _____    ______ ____
ROOT
ATOM      1  C   UNL     1       5.573   4.624  16.718  0.00  0.00    +0.000 A 
ATOM      2  C   UNL     1       4.470   5.362  17.094  0.00  0.00    +0.000 A 
ATOM      3  C   UNL     1       4.014   4.859  18.332  0.00  0.00    +0.000 A 
ATOM      4  C   UNL     1       2.871   5.123  19.103  0.00  0.00    +0.000 A 
ATOM      5  C   UNL     1       2.395   4.051  19.851  0.00  0.00    +0.000 A 
ATOM      6 CL   UNL     1       0.702   3.970  20.171  0.00  0.00    +0.000 Cl
ATOM      7  C   UNL     1       3.224   2.988  20.201  0.00  0.00    +0.000 A 
ATOM      8  C   UNL     1       4.541   2.922  19.726  0.00  0.00    +0.000 A 
ATOM      9  C   UNL     1       4.851   3.798  18.681  0.00  0.00    +0.000 A 
ATOM     10  N   UNL     1       5.907   3.823  17.785  0.00  0.00    +0.000 N 
ATOM     11  H   UNL     1       6.699   3.189  17.809  0.00  0.00    +0.000 HD
ENDROOT
BRANCH   1  15
ATOM     12  C   UNL     1       7.502   5.140  13.863  0.00  0.00    +0.000 A 
ATOM     13  N   UNL     1       6.690   4.246  13.353  0.00  0.00    +0.000 NA
ATOM     14  N   UNL     1       5.837   3.914  14.374  0.00  0.00    +0.000 NA
ATOM     15  C   UNL     1       6.206   4.621  15.442  0.00  0.00    +0.000 A 
ATOM     16  O   UNL     1       7.266   5.413  15.169  0.00  0.00    +0.000 OA
BRANCH  12  17
ATOM     17  O   UNL     1       8.462   5.810  13.274  0.00  0.00    +0.000 OA
ATOM     18  H   UNL     1       9.043   5.090  12.963  0.00  0.00    +0.000 HD
ENDBRANCH  12  17
ENDBRANCH   1  15
TORSDOF 2
ENDMDL
MODEL 5
REMARK VINA RESULT:      -7.1      4.320      6.233
REMARK  Name = 
REMARK  2 active torsions:
REMARK  status: ('A' for Active; 'I' for Inactive)
REMARK    1  A    between atoms: O_1  and  C_2
REMARK    2  A    between atoms: C_5  and  C_6
REMARK                            x       y       z     vdW  Elec       q    Type
REMARK                         _______ _______ _______ _____ _____    ______ ____
ROOT
ATOM      1  C   UNL     1       4.086   4.601  18.990  0.00  0.00    +0.000 A 
ATOM      2  C   UNL     1       4.169   5.623  18.068  0.00  0.00    +0.000 A 
ATOM      3  C   UNL     1       5.533   5.957  17.914  0.00  0.00    +0.000 A 
ATOM      4  C   UNL     1       6.187   6.994  17.230  0.00  0.00    +0.000 A 
ATOM      5  C   UNL     1       7.379   7.426  17.800  0.00  0.00    +0.000 A 
ATOM      6 CL   UNL     1       7.837   9.073  17.577  0.00  0.00    +0.000 Cl
ATOM      7  C   UNL     1       8.110   6.607  18.657  0.00  0.00    +0.000 A 
ATOM      8  C   UNL     1       7.613   5.356  19.048  0.00  0.00    +0.000 A 
ATOM      9  C   UNL     1       6.261   5.130  18.771  0.00  0.00    +0.000 A 
ATOM     10  N   UNL     1       5.370   4.181  19.247  0.00  0.00    +0.000 N 
ATOM     11  H   UNL     1       5.618   3.419  19.869  0.00  0.00    +0.000 HD
ENDROOT
BRANCH   1  15
ATOM     12  C   UNL     1       1.646   3.174  21.028  0.00  0.00    +0.000 A 
ATOM     13  N   UNL     1       0.853   3.531  20.048  0.00  0.00    +0.000 NA
ATOM     14  N   UNL     1       1.671   4.135  19.127  0.00  0.00    +0.000 NA
ATOM     15  C   UNL     1       2.907   4.117  19.626  0.00  0.00    +0.000 A 
ATOM     16  O   UNL     1       2.943   3.521  20.839  0.00  0.00    +0.000 OA
BRANCH  12  17
ATOM     17  O   UNL     1       1.358   2.511  22.121  0.00  0.00    +0.000 OA
ATOM     18  H   UNL     1       1.012   1.674  21.758  0.00  0.00    +0.000 HD
ENDBRANCH  12  17
ENDBRANCH   1  15
TORSDOF 2
ENDMDL
MODEL 6
REMARK VINA RESULT:      -7.1      2.649      3.218
REMARK  Name = 
REMARK  2 active torsions:
REMARK  status: ('A' for Active; 'I' for Inactive)
REMARK    1  A    between atoms: O_1  and  C_2
REMARK    2  A    between atoms: C_5  and  C_6
REMARK                            x       y       z     vdW  Elec       q    Type
REMARK                         _______ _______ _______ _____ _____    ______ ____
ROOT
ATOM      1  C   UNL     1       5.168   4.934  17.965  0.00  0.00    +0.000 A 
ATOM      2  C   UNL     1       5.140   3.943  18.923  0.00  0.00    +0.000 A 
ATOM      3  C   UNL     1       3.809   3.485  19.035  0.00  0.00    +0.000 A 
ATOM      4  C   UNL     1       3.177   2.606  19.929  0.00  0.00    +0.000 A 
ATOM      5  C   UNL     1       1.841   2.883  20.193  0.00  0.00    +0.000 A 
ATOM      6 CL   UNL     1       1.210   2.450  21.739  0.00  0.00    +0.000 Cl
ATOM      7  C   UNL     1       1.066   3.628  19.307  0.00  0.00    +0.000 A 
ATOM      8  C   UNL     1       1.641   4.203  18.165  0.00  0.00    +0.000 A 
ATOM      9  C   UNL     1       3.039   4.230  18.141  0.00  0.00    +0.000 A 
ATOM     10  N   UNL     1       3.932   4.949  17.362  0.00  0.00    +0.000 N 
ATOM     11  H   UNL     1       3.667   5.560  16.597  0.00  0.00    +0.000 HD
ENDROOT
BRANCH   1  15
ATOM     12  C   UNL     1       7.819   7.194  18.005  0.00  0.00    +0.000 A 
ATOM     13  N   UNL     1       7.649   7.164  16.706  0.00  0.00    +0.000 NA
ATOM     14  N   UNL     1       6.613   6.289  16.501  0.00  0.00    +0.000 NA
ATOM     15  C   UNL     1       6.238   5.835  17.697  0.00  0.00    +0.000 A 
ATOM     16  O   UNL     1       6.980   6.377  18.688  0.00  0.00    +0.000 OA
BRANCH  12  17
ATOM     17  O   UNL     1       8.651   7.922  18.709  0.00  0.00    +0.000 OA
ATOM     18  H   UNL     1       8.650   8.761  18.211  0.00  0.00    +0.000 HD
ENDBRANCH  12  17
ENDBRANCH   1  15
TORSDOF 2
ENDMDL
MODEL 7
REMARK VINA RESULT:      -7.1      3.891      5.751
REMARK  Name = 
REMARK  2 active torsions:
REMARK  status: ('A' for Active; 'I' for Inactive)
REMARK    1  A    between atoms: O_1  and  C_2
REMARK    2  A    between atoms: C_5  and  C_6
REMARK                            x       y       z     vdW  Elec       q    Type
REMARK                         _______ _______ _______ _____ _____    ______ ____
ROOT
ATOM      1  C   UNL     1       4.454   4.121  18.492  0.00  0.00    +0.000 A 
ATOM      2  C   UNL     1       4.519   5.162  17.590  0.00  0.00    +0.000 A 
ATOM      3  C   UNL     1       5.830   5.686  17.628  0.00  0.00    +0.000 A 
ATOM      4  C   UNL     1       6.420   6.817  17.042  0.00  0.00    +0.000 A 
ATOM      5  C   UNL     1       7.448   7.400  17.773  0.00  0.00    +0.000 A 
ATOM      6 CL   UNL     1       7.696   9.100  17.616  0.00  0.00    +0.000 Cl
ATOM      7  C   UNL     1       8.161   6.676  18.725  0.00  0.00    +0.000 A 
ATOM      8  C   UNL     1       7.797   5.360  19.043  0.00  0.00    +0.000 A 
ATOM      9  C   UNL     1       6.541   4.953  18.579  0.00  0.00    +0.000 A 
ATOM     10  N   UNL     1       5.736   3.880  18.927  0.00  0.00    +0.000 N 
ATOM     11  H   UNL     1       6.000   3.148  19.578  0.00  0.00    +0.000 HD
ENDROOT
BRANCH   1  15
ATOM     12  C   UNL     1       1.368   2.572  18.964  0.00  0.00    +0.000 A 
ATOM     13  N   UNL     1       1.735   2.594  20.222  0.00  0.00    +0.000 NA
ATOM     14  N   UNL     1       2.973   3.185  20.224  0.00  0.00    +0.000 NA
ATOM     15  C   UNL     1       3.278   3.464  18.957  0.00  0.00    +0.000 A 
ATOM     16  O   UNL     1       2.290   3.088  18.115  0.00  0.00    +0.000 OA
BRANCH  12  17
ATOM     17  O   UNL     1       0.239   2.160  18.444  0.00  0.00    +0.000 OA
ATOM     18  H   UNL     1       0.512   1.326  18.015  0.00  0.00    +0.000 HD
ENDBRANCH  12  17
ENDBRANCH   1  15
TORSDOF 2
ENDMDL
MODEL 8
REMARK VINA RESULT:      -7.1      1.132      1.148
REMARK  Name = 
REMARK  2 active torsions:
REMARK  status: ('A' for Active; 'I' for Inactive)
REMARK    1  A    between atoms: O_1  and  C_2
REMARK    2  A    between atoms: C_5  and  C_6
REMARK                            x       y       z     vdW  Elec       q    Type
REMARK                         _______ _______ _______ _____ _____    ______ ____
ROOT
ATOM      1  C   UNL     1       5.535   4.069  16.640  0.00  0.00    +0.000 A 
ATOM      2  C   UNL     1       5.234   4.813  17.761  0.00  0.00    +0.000 A 
ATOM      3  C   UNL     1       4.266   4.104  18.506  0.00  0.00    +0.000 A 
ATOM      4  C   UNL     1       3.504   4.436  19.637  0.00  0.00    +0.000 A 
ATOM      5  C   UNL     1       2.245   3.851  19.701  0.00  0.00    +0.000 A 
ATOM      6 CL   UNL     1       0.989   4.710  20.512  0.00  0.00    +0.000 Cl
ATOM      7  C   UNL     1       1.953   2.683  19.001  0.00  0.00    +0.000 A 
ATOM      8  C   UNL     1       2.895   2.115  18.132  0.00  0.00    +0.000 A 
ATOM      9  C   UNL     1       3.981   2.932  17.802  0.00  0.00    +0.000 A 
ATOM     10  N   UNL     1       4.922   2.847  16.789  0.00  0.00    +0.000 N 
ATOM     11  H   UNL     1       4.991   2.079  16.129  0.00  0.00    +0.000 HD
ENDROOT
BRANCH   1  15
ATOM     12  C   UNL     1       7.001   4.602  13.525  0.00  0.00    +0.000 A 
ATOM     13  N   UNL     1       7.701   5.489  14.189  0.00  0.00    +0.000 NA
ATOM     14  N   UNL     1       7.237   5.419  15.477  0.00  0.00    +0.000 NA
ATOM     15  C   UNL     1       6.271   4.500  15.499  0.00  0.00    +0.000 A 
ATOM     16  O   UNL     1       6.078   3.955  14.278  0.00  0.00    +0.000 OA
BRANCH  12  17
ATOM     17  O   UNL     1       7.104   4.246  12.268  0.00  0.00    +0.000 OA
ATOM     18  H   UNL     1       6.168   4.131  12.018  0.00  0.00    +0.000 HD
ENDBRANCH  12  17
ENDBRANCH   1  15
TORSDOF 2
ENDMDL
MODEL 9
REMARK VINA RESULT:      -7.0      4.124      6.146
REMARK  Name = 
REMARK  2 active torsions:
REMARK  status: ('A' for Active; 'I' for Inactive)
REMARK    1  A    between atoms: O_1  and  C_2
REMARK    2  A    between atoms: C_5  and  C_6
REMARK                            x       y       z     vdW  Elec       q    Type
REMARK                         _______ _______ _______ _____ _____    ______ ____
ROOT
ATOM      1  C   UNL     1       3.135   4.361  17.849  0.00  0.00    +0.000 A 
ATOM      2  C   UNL     1       3.404   5.713  17.855  0.00  0.00    +0.000 A 
ATOM      3  C   UNL     1       4.646   5.912  17.212  0.00  0.00    +0.000 A 
ATOM      4  C   UNL     1       5.467   7.039  17.056  0.00  0.00    +0.000 A 
ATOM      5  C   UNL     1       6.832   6.780  16.997  0.00  0.00    +0.000 A 
ATOM      6 CL   UNL     1       7.916   7.988  17.581  0.00  0.00    +0.000 Cl
ATOM      7  C   UNL     1       7.316   5.528  16.627  0.00  0.00    +0.000 A 
ATOM      8  C   UNL     1       6.436   4.461  16.396  0.00  0.00    +0.000 A 
ATOM      9  C   UNL     1       5.123   4.654  16.839  0.00  0.00    +0.000 A 
ATOM     10  N   UNL     1       4.084   3.763  17.053  0.00  0.00    +0.000 N 
ATOM     11  H   UNL     1       4.122   2.772  16.839  0.00  0.00    +0.000 HD
ENDROOT
BRANCH   1  15
ATOM     12  C   UNL     1       1.032   2.909  20.217  0.00  0.00    +0.000 A 
ATOM     13  N   UNL     1       0.422   2.450  19.152  0.00  0.00    +0.000 NA
ATOM     14  N   UNL     1       1.134   2.944  18.090  0.00  0.00    +0.000 NA
ATOM     15  C   UNL     1       2.122   3.687  18.590  0.00  0.00    +0.000 A 
ATOM     16  O   UNL     1       2.096   3.702  19.941  0.00  0.00    +0.000 OA
BRANCH  12  17
ATOM     17  O   UNL     1       0.771   2.675  21.479  0.00  0.00    +0.000 OA
ATOM     18  H   UNL     1       0.838   1.702  21.518  0.00  0.00    +0.000 HD
ENDBRANCH  12  17
ENDBRANCH   1  15
TORSDOF 2
ENDMDL
