MODEL 1
REMARK VINA RESULT:      -6.2      0.000      0.000
REMARK  Name = 
REMARK  5 active torsions:
REMARK  status: ('A' for Active; 'I' for Inactive)
REMARK    1  A    between atoms: C_1  and  C_2
REMARK    2  A    between atoms: C_2  and  N_3
REMARK    3  A    between atoms: C_4  and  S_5
REMARK    4  A    between atoms: N_6  and  C_7
REMARK    5  A    between atoms: C_12  and  N_13
REMARK                            x       y       z     vdW  Elec       q    Type
REMARK                         _______ _______ _______ _____ _____    ______ ____
ROOT
ATOM      1  C   UNL     1       4.167   4.887  17.794  0.00  0.00    +0.000 A 
ATOM      2  C   UNL     1       4.033   6.186  17.282  0.00  0.00    +0.000 A 
ATOM      3  C   UNL     1       5.129   7.047  17.154  0.00  0.00    +0.000 A 
ATOM      4  C   UNL     1       6.399   6.626  17.538  0.00  0.00    +0.000 A 
ATOM      5 CL   UNL     1       7.719   7.700  17.257  0.00  0.00    +0.000 Cl
ATOM      6  C   UNL     1       6.535   5.348  18.077  0.00  0.00    +0.000 A 
ATOM      7  C   UNL     1       5.439   4.477  18.207  0.00  0.00    +0.000 A 
ENDROOT
BRANCH   1  10
ATOM      8  N   UNL     1       2.389   4.166  20.039  0.00  0.00    +0.000 NA
ATOM      9  C   UNL     1       2.303   3.643  18.872  0.00  0.00    +0.000 C 
ATOM     10  N   UNL     1       3.105   3.969  17.806  0.00  0.00    +0.000 N 
ATOM     11  H   UNL     1       2.809   3.600  16.913  0.00  0.00    +0.000 HD
BRANCH   8  13
ATOM     12  C   UNL     1       2.158   2.635  21.878  0.00  0.00    +0.000 C 
ATOM     13  C   UNL     1       1.538   3.823  21.164  0.00  0.00    +0.000 C 
ENDBRANCH   8  13
BRANCH   9  14
ATOM     14  S   UNL     1       1.109   2.436  18.410  0.00  0.00    +0.000 S 
ATOM     15  H   UNL     1       1.946   1.529  17.901  0.00  0.00    +0.000 HD
ENDBRANCH   9  14
ENDBRANCH   1  10
BRANCH   6  16
ATOM     16  N   UNL     1       7.831   4.867  18.500  0.00  0.00    +0.000 N 
ATOM     17  O   UNL     1       8.221   5.193  19.628  0.00  0.00    +0.000 OA
ATOM     18  O   UNL     1       8.423   4.104  17.723  0.00  0.00    +0.000 OA
ENDBRANCH   6  16
TORSDOF 4
ENDMDL
MODEL 2
REMARK VINA RESULT:      -6.0      3.817      5.489
REMARK  Name = 
REMARK  5 active torsions:
REMARK  status: ('A' for Active; 'I' for Inactive)
REMARK    1  A    between atoms: C_1  and  C_2
REMARK    2  A    between atoms: C_2  and  N_3
REMARK    3  A    between atoms: C_4  and  S_5
REMARK    4  A    between atoms: N_6  and  C_7
REMARK    5  A    between atoms: C_12  and  N_13
REMARK                            x       y       z     vdW  Elec       q    Type
REMARK                         _______ _______ _______ _____ _____    ______ ____
ROOT
ATOM      1  C   UNL     1       3.990   3.407  17.434  0.00  0.00    +0.000 A 
ATOM      2  C   UNL     1       2.638   3.691  17.186  0.00  0.00    +0.000 A 
ATOM      3  C   UNL     1       1.660   3.553  18.178  0.00  0.00    +0.000 A 
ATOM      4  C   UNL     1       2.012   3.125  19.455  0.00  0.00    +0.000 A 
ATOM      5 CL   UNL     1       0.774   3.078  20.655  0.00  0.00    +0.000 Cl
ATOM      6  C   UNL     1       3.348   2.810  19.699  0.00  0.00    +0.000 A 
ATOM      7  C   UNL     1       4.336   2.948  18.709  0.00  0.00    +0.000 A 
ENDROOT
BRANCH   1  10
ATOM      8  N   UNL     1       5.836   5.707  17.308  0.00  0.00    +0.000 NA
ATOM      9  C   UNL     1       5.834   4.754  16.450  0.00  0.00    +0.000 C 
ATOM     10  N   UNL     1       4.997   3.665  16.493  0.00  0.00    +0.000 N 
ATOM     11  H   UNL     1       5.227   2.919  15.850  0.00  0.00    +0.000 HD
BRANCH   8  13
ATOM     12  C   UNL     1       7.768   6.683  18.354  0.00  0.00    +0.000 C 
ATOM     13  C   UNL     1       6.723   6.855  17.265  0.00  0.00    +0.000 C 
ENDBRANCH   8  13
BRANCH   9  14
ATOM     14  S   UNL     1       6.933   4.646  15.082  0.00  0.00    +0.000 S 
ATOM     15  H   UNL     1       8.041   4.324  15.755  0.00  0.00    +0.000 HD
ENDBRANCH   9  14
ENDBRANCH   1  10
BRANCH   6  16
ATOM     16  N   UNL     1       3.764   2.352  21.006  0.00  0.00    +0.000 N 
ATOM     17  O   UNL     1       2.949   2.452  21.931  0.00  0.00    +0.000 OA
ATOM     18  O   UNL     1       4.885   1.831  21.083  0.00  0.00    +0.000 OA
ENDBRANCH   6  16
TORSDOF 4
ENDMDL
MODEL 3
REMARK VINA RESULT:      -6.0      2.029      2.389
REMARK  Name = 
REMARK  5 active torsions:
REMARK  status: ('A' for Active; 'I' for Inactive)
REMARK    1  A    between atoms: C_1  and  C_2
REMARK    2  A    between atoms: C_2  and  N_3
REMARK    3  A    between atoms: C_4  and  S_5
REMARK    4  A    between atoms: N_6  and  C_7
REMARK    5  A    between atoms: C_12  and  N_13
REMARK                            x       y       z     vdW  Elec       q    Type
REMARK                         _______ _______ _______ _____ _____    ______ ____
ROOT
ATOM      1  C   UNL     1       4.157   3.841  18.349  0.00  0.00    +0.000 A 
ATOM      2  C   UNL     1       3.797   3.794  16.994  0.00  0.00    +0.000 A 
ATOM      3  C   UNL     1       4.705   4.110  15.976  0.00  0.00    +0.000 A 
ATOM      4  C   UNL     1       6.008   4.482  16.292  0.00  0.00    +0.000 A 
ATOM      5 CL   UNL     1       7.102   4.757  14.987  0.00  0.00    +0.000 Cl
ATOM      6  C   UNL     1       6.364   4.563  17.637  0.00  0.00    +0.000 A 
ATOM      7  C   UNL     1       5.459   4.245  18.665  0.00  0.00    +0.000 A 
ENDROOT
BRANCH   1  10
ATOM      8  N   UNL     1       2.361   5.449  20.055  0.00  0.00    +0.000 NA
ATOM      9  C   UNL     1       2.486   4.177  20.160  0.00  0.00    +0.000 C 
ATOM     10  N   UNL     1       3.301   3.403  19.371  0.00  0.00    +0.000 N 
ATOM     11  H   UNL     1       3.166   2.405  19.459  0.00  0.00    +0.000 HD
BRANCH   8  13
ATOM     12  C   UNL     1       1.696   7.718  20.489  0.00  0.00    +0.000 C 
ATOM     13  C   UNL     1       1.495   6.266  20.886  0.00  0.00    +0.000 C 
ENDBRANCH   8  13
BRANCH   9  14
ATOM     14  S   UNL     1       1.601   3.184  21.311  0.00  0.00    +0.000 S 
ATOM     15  H   UNL     1       2.438   3.302  22.344  0.00  0.00    +0.000 HD
ENDBRANCH   9  14
ENDBRANCH   1  10
BRANCH   6  16
ATOM     16  N   UNL     1       7.703   4.954  18.017  0.00  0.00    +0.000 N 
ATOM     17  O   UNL     1       7.856   6.094  18.473  0.00  0.00    +0.000 OA
ATOM     18  O   UNL     1       8.585   4.090  17.920  0.00  0.00    +0.000 OA
ENDBRANCH   6  16
TORSDOF 4
ENDMDL
MODEL 4
REMARK VINA RESULT:      -6.0      0.653      1.005
REMARK  Name = 
REMARK  5 active torsions:
REMARK  status: ('A' for Active; 'I' for Inactive)
REMARK    1  A    between atoms: C_1  and  C_2
REMARK    2  A    between atoms: C_2  and  N_3
REMARK    3  A    between atoms: C_4  and  S_5
REMARK    4  A    between atoms: N_6  and  C_7
REMARK    5  A    between atoms: C_12  and  N_13
REMARK                            x       y       z     vdW  Elec       q    Type
REMARK                         _______ _______ _______ _____ _____    ______ ____
ROOT
ATOM      1  C   UNL     1       3.810   4.811  17.770  0.00  0.00    +0.000 A 
ATOM      2  C   UNL     1       3.635   6.200  17.670  0.00  0.00    +0.000 A 
ATOM      3  C   UNL     1       4.717   7.070  17.489  0.00  0.00    +0.000 A 
ATOM      4  C   UNL     1       6.013   6.567  17.401  0.00  0.00    +0.000 A 
ATOM      5 CL   UNL     1       7.285   7.685  17.076  0.00  0.00    +0.000 Cl
ATOM      6  C   UNL     1       6.197   5.192  17.532  0.00  0.00    +0.000 A 
ATOM      7  C   UNL     1       5.116   4.312  17.711  0.00  0.00    +0.000 A 
ENDROOT
BRANCH   1  10
ATOM      8  N   UNL     1       2.206   3.999  20.112  0.00  0.00    +0.000 NA
ATOM      9  C   UNL     1       2.008   3.547  18.928  0.00  0.00    +0.000 C 
ATOM     10  N   UNL     1       2.728   3.919  17.818  0.00  0.00    +0.000 N 
ATOM     11  H   UNL     1       2.349   3.609  16.934  0.00  0.00    +0.000 HD
BRANCH   8  13
ATOM     12  C   UNL     1       2.144   2.429  21.931  0.00  0.00    +0.000 C 
ATOM     13  C   UNL     1       1.442   3.610  21.283  0.00  0.00    +0.000 C 
ENDBRANCH   8  13
BRANCH   9  14
ATOM     14  S   UNL     1       0.748   2.398  18.500  0.00  0.00    +0.000 S 
ATOM     15  H   UNL     1      -0.260   2.965  19.169  0.00  0.00    +0.000 HD
ENDBRANCH   9  14
ENDBRANCH   1  10
BRANCH   6  16
ATOM     16  N   UNL     1       7.523   4.622  17.458  0.00  0.00    +0.000 N 
ATOM     17  O   UNL     1       7.982   4.388  16.333  0.00  0.00    +0.000 OA
ATOM     18  O   UNL     1       8.127   4.473  18.529  0.00  0.00    +0.000 OA
ENDBRANCH   6  16
TORSDOF 4
ENDMDL
MODEL 5
REMARK VINA RESULT:      -6.0      4.201      5.935
REMARK  Name = 
REMARK  5 active torsions:
REMARK  status: ('A' for Active; 'I' for Inactive)
REMARK    1  A    between atoms: C_1  and  C_2
REMARK    2  A    between atoms: C_2  and  N_3
REMARK    3  A    between atoms: C_4  and  S_5
REMARK    4  A    between atoms: N_6  and  C_7
REMARK    5  A    between atoms: C_12  and  N_13
REMARK                            x       y       z     vdW  Elec       q    Type
REMARK                         _______ _______ _______ _____ _____    ______ ____
ROOT
ATOM      1  C   UNL     1       4.118   5.027  18.512  0.00  0.00    +0.000 A 
ATOM      2  C   UNL     1       3.032   4.906  17.632  0.00  0.00    +0.000 A 
ATOM      3  C   UNL     1       1.904   4.139  17.949  0.00  0.00    +0.000 A 
ATOM      4  C   UNL     1       1.834   3.468  19.167  0.00  0.00    +0.000 A 
ATOM      5 CL   UNL     1       0.374   2.627  19.535  0.00  0.00    +0.000 Cl
ATOM      6  C   UNL     1       2.922   3.557  20.033  0.00  0.00    +0.000 A 
ATOM      7  C   UNL     1       4.057   4.327  19.722  0.00  0.00    +0.000 A 
ENDROOT
BRANCH   1  10
ATOM      8  N   UNL     1       6.135   4.885  16.361  0.00  0.00    +0.000 NA
ATOM      9  C   UNL     1       6.127   5.795  17.264  0.00  0.00    +0.000 C 
ATOM     10  N   UNL     1       5.193   5.894  18.267  0.00  0.00    +0.000 N 
ATOM     11  H   UNL     1       5.218   6.754  18.797  0.00  0.00    +0.000 HD
BRANCH   8  13
ATOM     12  C   UNL     1       6.423   4.243  14.062  0.00  0.00    +0.000 C 
ATOM     13  C   UNL     1       7.120   4.783  15.300  0.00  0.00    +0.000 C 
ENDBRANCH   8  13
BRANCH   9  14
ATOM     14  S   UNL     1       7.290   7.111  17.360  0.00  0.00    +0.000 S 
ATOM     15  H   UNL     1       6.456   8.069  17.773  0.00  0.00    +0.000 HD
ENDBRANCH   9  14
ENDBRANCH   1  10
BRANCH   6  16
ATOM     16  N   UNL     1       2.902   2.871  21.305  0.00  0.00    +0.000 N 
ATOM     17  O   UNL     1       3.737   1.976  21.484  0.00  0.00    +0.000 OA
ATOM     18  O   UNL     1       2.091   3.281  22.147  0.00  0.00    +0.000 OA
ENDBRANCH   6  16
TORSDOF 4
ENDMDL
MODEL 6
REMARK VINA RESULT:      -5.9      4.358      5.788
REMARK  Name = 
REMARK  5 active torsions:
REMARK  status: ('A' for Active; 'I' for Inactive)
REMARK    1  A    between atoms: C_1  and  C_2
REMARK    2  A    between atoms: C_2  and  N_3
REMARK    3  A    between atoms: C_4  and  S_5
REMARK    4  A    between atoms: N_6  and  C_7
REMARK    5  A    between atoms: C_12  and  N_13
REMARK                            x       y       z     vdW  Elec       q    Type
REMARK                         _______ _______ _______ _____ _____    ______ ____
ROOT
ATOM      1  C   UNL     1       5.601   5.487  16.091  0.00  0.00    +0.000 A 
ATOM      2  C   UNL     1       4.843   6.613  16.447  0.00  0.00    +0.000 A 
ATOM      3  C   UNL     1       3.945   6.590  17.521  0.00  0.00    +0.000 A 
ATOM      4  C   UNL     1       3.783   5.430  18.274  0.00  0.00    +0.000 A 
ATOM      5 CL   UNL     1       2.739   5.504  19.645  0.00  0.00    +0.000 Cl
ATOM      6  C   UNL     1       4.509   4.299  17.906  0.00  0.00    +0.000 A 
ATOM      7  C   UNL     1       5.413   4.314  16.830  0.00  0.00    +0.000 A 
ENDROOT
BRANCH   1  10
ATOM      8  N   UNL     1       5.749   3.968  13.563  0.00  0.00    +0.000 NA
ATOM      9  C   UNL     1       6.648   4.801  13.942  0.00  0.00    +0.000 C 
ATOM     10  N   UNL     1       6.597   5.533  15.104  0.00  0.00    +0.000 N 
ATOM     11  H   UNL     1       7.287   6.266  15.183  0.00  0.00    +0.000 HD
BRANCH   8  13
ATOM     12  C   UNL     1       4.452   3.321  11.645  0.00  0.00    +0.000 C 
ATOM     13  C   UNL     1       5.802   3.200  12.333  0.00  0.00    +0.000 C 
ENDBRANCH   8  13
BRANCH   9  14
ATOM     14  S   UNL     1       8.093   5.193  13.019  0.00  0.00    +0.000 S 
ATOM     15  H   UNL     1       8.027   6.523  13.120  0.00  0.00    +0.000 HD
ENDBRANCH   9  14
ENDBRANCH   1  10
BRANCH   6  16
ATOM     16  N   UNL     1       4.369   3.067  18.649  0.00  0.00    +0.000 N 
ATOM     17  O   UNL     1       3.643   2.189  18.167  0.00  0.00    +0.000 OA
ATOM     18  O   UNL     1       5.044   2.959  19.683  0.00  0.00    +0.000 OA
ENDBRANCH   6  16
TORSDOF 4
ENDMDL
MODEL 7
REMARK VINA RESULT:      -5.8      4.932      5.698
REMARK  Name = 
REMARK  5 active torsions:
REMARK  status: ('A' for Active; 'I' for Inactive)
REMARK    1  A    between atoms: C_1  and  C_2
REMARK    2  A    between atoms: C_2  and  N_3
REMARK    3  A    between atoms: C_4  and  S_5
REMARK    4  A    between atoms: N_6  and  C_7
REMARK    5  A    between atoms: C_12  and  N_13
REMARK                            x       y       z     vdW  Elec       q    Type
REMARK                         _______ _______ _______ _____ _____    ______ ____
ROOT
ATOM      1  C   UNL     1       2.489   7.121  19.162  0.00  0.00    +0.000 A 
ATOM      2  C   UNL     1       2.273   7.942  18.045  0.00  0.00    +0.000 A 
ATOM      3  C   UNL     1       1.543   9.133  18.133  0.00  0.00    +0.000 A 
ATOM      4  C   UNL     1       1.007   9.538  19.352  0.00  0.00    +0.000 A 
ATOM      5 CL   UNL     1       0.209  11.065  19.410  0.00  0.00    +0.000 Cl
ATOM      6  C   UNL     1       1.191   8.711  20.460  0.00  0.00    +0.000 A 
ATOM      7  C   UNL     1       1.924   7.515  20.380  0.00  0.00    +0.000 A 
ENDROOT
BRANCH   1  10
ATOM      8  N   UNL     1       1.794   4.296  19.667  0.00  0.00    +0.000 NA
ATOM      9  C   UNL     1       2.978   4.692  19.373  0.00  0.00    +0.000 C 
ATOM     10  N   UNL     1       3.327   5.996  19.119  0.00  0.00    +0.000 N 
ATOM     11  H   UNL     1       4.253   6.129  18.738  0.00  0.00    +0.000 HD
BRANCH   8  13
ATOM     12  C   UNL     1       1.396   2.719  21.437  0.00  0.00    +0.000 C 
ATOM     13  C   UNL     1       1.426   2.917  19.931  0.00  0.00    +0.000 C 
ENDBRANCH   8  13
BRANCH   9  14
ATOM     14  S   UNL     1       4.368   3.627  19.201  0.00  0.00    +0.000 S 
ATOM     15  H   UNL     1       4.473   3.668  17.871  0.00  0.00    +0.000 HD
ENDBRANCH   9  14
ENDBRANCH   1  10
BRANCH   6  16
ATOM     16  N   UNL     1       0.646   9.082  21.747  0.00  0.00    +0.000 N 
ATOM     17  O   UNL     1       1.357   9.768  22.491  0.00  0.00    +0.000 OA
ATOM     18  O   UNL     1      -0.522   8.739  21.977  0.00  0.00    +0.000 OA
ENDBRANCH   6  16
TORSDOF 4
ENDMDL
MODEL 8
REMARK VINA RESULT:      -5.8      3.880      5.167
REMARK  Name = 
REMARK  5 active torsions:
REMARK  status: ('A' for Active; 'I' for Inactive)
REMARK    1  A    between atoms: C_1  and  C_2
REMARK    2  A    between atoms: C_2  and  N_3
REMARK    3  A    between atoms: C_4  and  S_5
REMARK    4  A    between atoms: N_6  and  C_7
REMARK    5  A    between atoms: C_12  and  N_13
REMARK                            x       y       z     vdW  Elec       q    Type
REMARK                         _______ _______ _______ _____ _____    ______ ____
ROOT
ATOM      1  C   UNL     1       2.057   5.611  20.409  0.00  0.00    +0.000 A 
ATOM      2  C   UNL     1       1.204   4.498  20.363  0.00  0.00    +0.000 A 
ATOM      3  C   UNL     1       1.556   3.324  19.686  0.00  0.00    +0.000 A 
ATOM      4  C   UNL     1       2.781   3.234  19.032  0.00  0.00    +0.000 A 
ATOM      5 CL   UNL     1       3.193   1.724  18.306  0.00  0.00    +0.000 Cl
ATOM      6  C   UNL     1       3.620   4.347  19.046  0.00  0.00    +0.000 A 
ATOM      7  C   UNL     1       3.275   5.528  19.726  0.00  0.00    +0.000 A 
ENDROOT
BRANCH   1  10
ATOM      8  N   UNL     1       1.401   8.346  19.511  0.00  0.00    +0.000 NA
ATOM      9  C   UNL     1       1.489   8.009  20.745  0.00  0.00    +0.000 C 
ATOM     10  N   UNL     1       1.777   6.741  21.192  0.00  0.00    +0.000 N 
ATOM     11  H   UNL     1       1.646   6.592  22.182  0.00  0.00    +0.000 HD
BRANCH   8  13
ATOM     12  C   UNL     1       2.010   9.996  17.872  0.00  0.00    +0.000 C 
ATOM     13  C   UNL     1       1.091   9.684  19.041  0.00  0.00    +0.000 C 
ENDBRANCH   8  13
BRANCH   9  14
ATOM     14  S   UNL     1       1.215   9.101  22.097  0.00  0.00    +0.000 S 
ATOM     15  H   UNL     1       2.029   8.516  22.979  0.00  0.00    +0.000 HD
ENDBRANCH   9  14
ENDBRANCH   1  10
BRANCH   6  16
ATOM     16  N   UNL     1       4.899   4.306  18.374  0.00  0.00    +0.000 N 
ATOM     17  O   UNL     1       5.888   3.990  19.047  0.00  0.00    +0.000 OA
ATOM     18  O   UNL     1       4.896   4.527  17.155  0.00  0.00    +0.000 OA
ENDBRANCH   6  16
TORSDOF 4
ENDMDL
MODEL 9
REMARK VINA RESULT:      -5.7      4.574      5.490
REMARK  Name = 
REMARK  5 active torsions:
REMARK  status: ('A' for Active; 'I' for Inactive)
REMARK    1  A    between atoms: C_1  and  C_2
REMARK    2  A    between atoms: C_2  and  N_3
REMARK    3  A    between atoms: C_4  and  S_5
REMARK    4  A    between atoms: N_6  and  C_7
REMARK    5  A    between atoms: C_12  and  N_13
REMARK                            x       y       z     vdW  Elec       q    Type
REMARK                         _______ _______ _______ _____ _____    ______ ____
ROOT
ATOM      1  C   UNL     1       2.754   5.830  18.219  0.00  0.00    +0.000 A 
ATOM      2  C   UNL     1       3.960   5.276  17.763  0.00  0.00    +0.000 A 
ATOM      3  C   UNL     1       4.228   3.906  17.860  0.00  0.00    +0.000 A 
ATOM      4  C   UNL     1       3.288   3.047  18.421  0.00  0.00    +0.000 A 
ATOM      5 CL   UNL     1       3.641   1.358  18.416  0.00  0.00    +0.000 Cl
ATOM      6  C   UNL     1       2.101   3.593  18.906  0.00  0.00    +0.000 A 
ATOM      7  C   UNL     1       1.823   4.968  18.810  0.00  0.00    +0.000 A 
ENDROOT
BRANCH   1  10
ATOM      8  N   UNL     1       1.839   7.822  20.197  0.00  0.00    +0.000 NA
ATOM      9  C   UNL     1       1.978   8.077  18.949  0.00  0.00    +0.000 C 
ATOM     10  N   UNL     1       2.416   7.175  18.009  0.00  0.00    +0.000 N 
ATOM     11  H   UNL     1       2.636   7.567  17.104  0.00  0.00    +0.000 HD
BRANCH   8  13
ATOM     12  C   UNL     1      -0.087   8.497  21.469  0.00  0.00    +0.000 C 
ATOM     13  C   UNL     1       1.380   8.777  21.190  0.00  0.00    +0.000 C 
ENDBRANCH   8  13
BRANCH   9  14
ATOM     14  S   UNL     1       1.673   9.646  18.215  0.00  0.00    +0.000 S 
ATOM     15  H   UNL     1       2.814   9.760  17.531  0.00  0.00    +0.000 HD
ENDBRANCH   9  14
ENDBRANCH   1  10
BRANCH   6  16
ATOM     16  N   UNL     1       1.096   2.745  19.506  0.00  0.00    +0.000 N 
ATOM     17  O   UNL     1       0.292   2.189  18.748  0.00  0.00    +0.000 OA
ATOM     18  O   UNL     1       1.162   2.585  20.733  0.00  0.00    +0.000 OA
ENDBRANCH   6  16
TORSDOF 4
ENDMDL
