MODEL 1
REMARK VINA RESULT:      -8.7      0.000      0.000
REMARK  Name = 
REMARK  7 active torsions:
REMARK  status: ('A' for Active; 'I' for Inactive)
REMARK    1  A    between atoms: C_1  and  C_2
REMARK    2  A    between atoms: C_2  and  C_3
REMARK    3  A    between atoms: C_5  and  C_6
REMARK    4  A    between atoms: C_7  and  C_8
REMARK    5  A    between atoms: C_14  and  C_15
REMARK    6  A    between atoms: C_15  and  C_16
REMARK    7  A    between atoms: C_18  and  C_19
REMARK                            x       y       z     vdW  Elec       q    Type
REMARK                         _______ _______ _______ _____ _____    ______ ____
ROOT
ATOM      1  C   UNL     1       3.248   4.509  18.881  0.00  0.00    +0.000 C 
ATOM      2  C   UNL     1       2.598   5.844  18.575  0.00  0.00    +0.000 C 
ATOM      3  C   UNL     1       3.255   6.688  17.758  0.00  0.00    +0.000 C 
ATOM      4  C   UNL     1       4.615   6.073  17.366  0.00  0.00    +0.000 C 
ATOM      5  C   UNL     1       4.676   5.465  18.781  0.00  0.00    +0.000 C 
ATOM      6  C   UNL     1       4.689   4.713  16.435  0.00  0.00    +0.000 C 
ATOM      7  C   UNL     1       5.026   3.427  17.261  0.00  0.00    +0.000 C 
ATOM      8  C   UNL     1       4.249   3.348  18.574  0.00  0.00    +0.000 C 
ATOM      9  O   UNL     1       4.413   2.425  19.366  0.00  0.00    +0.000 OA
ENDROOT
BRANCH   6  10
ATOM     10  C   UNL     1       5.515   4.589  15.148  0.00  0.00    +0.000 A 
ATOM     11  C   UNL     1       6.871   4.931  15.051  0.00  0.00    +0.000 A 
ATOM     12  C   UNL     1       7.571   4.747  13.855  0.00  0.00    +0.000 A 
ATOM     13  C   UNL     1       6.950   4.152  12.761  0.00  0.00    +0.000 A 
ATOM     14  C   UNL     1       5.629   3.733  12.862  0.00  0.00    +0.000 A 
ATOM     15  C   UNL     1       4.918   3.955  14.040  0.00  0.00    +0.000 A 
ENDBRANCH   6  10
BRANCH   1  17
ATOM     16  C   UNL     1       1.063   2.893  18.451  0.00  0.00    +0.000 C 
ATOM     17  C   UNL     1       2.168   3.776  17.849  0.00  0.00    +0.000 C 
ENDBRANCH   1  17
BRANCH   3  18
ATOM     18  C   UNL     1       2.981   8.117  17.984  0.00  0.00    +0.000 C 
ATOM     19  C   UNL     1       1.706   8.602  17.991  0.00  0.00    +0.000 C 
BRANCH  19  20
ATOM     20  C   UNL     1       1.226   9.984  18.193  0.00  0.00    +0.000 A 
ATOM     21  C   UNL     1      -0.146  10.183  18.426  0.00  0.00    +0.000 A 
ATOM     22  C   UNL     1      -0.663  11.459  18.660  0.00  0.00    +0.000 A 
ATOM     23  C   UNL     1       0.192  12.560  18.700  0.00  0.00    +0.000 A 
ATOM     24  C   UNL     1       1.559  12.374  18.508  0.00  0.00    +0.000 A 
ATOM     25  C   UNL     1       2.075  11.094  18.259  0.00  0.00    +0.000 A 
ENDBRANCH  19  20
ENDBRANCH   3  18
BRANCH   4  26
ATOM     26  C   UNL     1       5.659   7.062  16.805  0.00  0.00    +0.000 C 
ATOM     27  C   UNL     1       6.969   7.454  17.460  0.00  0.00    +0.000 C 
ENDBRANCH   4  26
TORSDOF 5
ENDMDL
MODEL 2
REMARK VINA RESULT:      -8.7      2.774      6.203
REMARK  Name = 
REMARK  7 active torsions:
REMARK  status: ('A' for Active; 'I' for Inactive)
REMARK    1  A    between atoms: C_1  and  C_2
REMARK    2  A    between atoms: C_2  and  C_3
REMARK    3  A    between atoms: C_5  and  C_6
REMARK    4  A    between atoms: C_7  and  C_8
REMARK    5  A    between atoms: C_14  and  C_15
REMARK    6  A    between atoms: C_15  and  C_16
REMARK    7  A    between atoms: C_18  and  C_19
REMARK                            x       y       z     vdW  Elec       q    Type
REMARK                         _______ _______ _______ _____ _____    ______ ____
ROOT
ATOM      1  C   UNL     1       6.488   5.446  15.644  0.00  0.00    +0.000 C 
ATOM      2  C   UNL     1       7.134   6.478  16.547  0.00  0.00    +0.000 C 
ATOM      3  C   UNL     1       6.355   7.086  17.462  0.00  0.00    +0.000 C 
ATOM      4  C   UNL     1       4.900   6.595  17.309  0.00  0.00    +0.000 C 
ATOM      5  C   UNL     1       5.152   6.522  15.790  0.00  0.00    +0.000 C 
ATOM      6  C   UNL     1       4.500   5.029  17.638  0.00  0.00    +0.000 C 
ATOM      7  C   UNL     1       4.289   4.170  16.346  0.00  0.00    +0.000 C 
ATOM      8  C   UNL     1       5.362   4.422  15.288  0.00  0.00    +0.000 C 
ATOM      9  O   UNL     1       5.336   3.861  14.197  0.00  0.00    +0.000 OA
ENDROOT
BRANCH   6  10
ATOM     10  C   UNL     1       3.372   4.605  18.587  0.00  0.00    +0.000 A 
ATOM     11  C   UNL     1       3.351   4.896  19.958  0.00  0.00    +0.000 A 
ATOM     12  C   UNL     1       2.265   4.516  20.753  0.00  0.00    +0.000 A 
ATOM     13  C   UNL     1       1.152   3.908  20.180  0.00  0.00    +0.000 A 
ATOM     14  C   UNL     1       1.120   3.682  18.809  0.00  0.00    +0.000 A 
ATOM     15  C   UNL     1       2.220   4.022  18.023  0.00  0.00    +0.000 A 
ENDBRANCH   6  10
BRANCH   1  17
ATOM     16  C   UNL     1       7.912   4.631  17.852  0.00  0.00    +0.000 C 
ATOM     17  C   UNL     1       7.221   4.247  16.534  0.00  0.00    +0.000 C 
ENDBRANCH   1  17
BRANCH   3  18
ATOM     18  C   UNL     1       6.778   8.445  17.838  0.00  0.00    +0.000 C 
ATOM     19  C   UNL     1       8.096   8.760  17.994  0.00  0.00    +0.000 C 
BRANCH  19  20
ATOM     20  C   UNL     1       8.720  10.046  18.367  0.00  0.00    +0.000 A 
ATOM     21  C   UNL     1       9.510  10.088  19.528  0.00  0.00    +0.000 A 
ATOM     22  C   UNL     1      10.158  11.262  19.920  0.00  0.00    +0.000 A 
ATOM     23  C   UNL     1      10.055  12.410  19.136  0.00  0.00    +0.000 A 
ATOM     24  C   UNL     1       9.305  12.373  17.963  0.00  0.00    +0.000 A 
ATOM     25  C   UNL     1       8.644  11.199  17.578  0.00  0.00    +0.000 A 
ENDBRANCH  19  20
ENDBRANCH   3  18
BRANCH   4  26
ATOM     26  C   UNL     1       3.823   7.484  17.965  0.00  0.00    +0.000 C 
ATOM     27  C   UNL     1       2.503   7.902  17.345  0.00  0.00    +0.000 C 
ENDBRANCH   4  26
TORSDOF 5
ENDMDL
MODEL 3
REMARK VINA RESULT:      -8.6      2.739      6.196
REMARK  Name = 
REMARK  7 active torsions:
REMARK  status: ('A' for Active; 'I' for Inactive)
REMARK    1  A    between atoms: C_1  and  C_2
REMARK    2  A    between atoms: C_2  and  C_3
REMARK    3  A    between atoms: C_5  and  C_6
REMARK    4  A    between atoms: C_7  and  C_8
REMARK    5  A    between atoms: C_14  and  C_15
REMARK    6  A    between atoms: C_15  and  C_16
REMARK    7  A    between atoms: C_18  and  C_19
REMARK                            x       y       z     vdW  Elec       q    Type
REMARK                         _______ _______ _______ _____ _____    ______ ____
ROOT
ATOM      1  C   UNL     1       6.459   5.438  15.604  0.00  0.00    +0.000 C 
ATOM      2  C   UNL     1       7.106   6.428  16.552  0.00  0.00    +0.000 C 
ATOM      3  C   UNL     1       6.323   7.016  17.476  0.00  0.00    +0.000 C 
ATOM      4  C   UNL     1       4.863   6.553  17.284  0.00  0.00    +0.000 C 
ATOM      5  C   UNL     1       5.137   6.529  15.767  0.00  0.00    +0.000 C 
ATOM      6  C   UNL     1       4.433   4.983  17.551  0.00  0.00    +0.000 C 
ATOM      7  C   UNL     1       4.230   4.173  16.228  0.00  0.00    +0.000 C 
ATOM      8  C   UNL     1       5.323   4.445  15.195  0.00  0.00    +0.000 C 
ATOM      9  O   UNL     1       5.305   3.922  14.085  0.00  0.00    +0.000 OA
ENDROOT
BRANCH   6  10
ATOM     10  C   UNL     1       3.284   4.544  18.468  0.00  0.00    +0.000 A 
ATOM     11  C   UNL     1       2.024   4.141  18.007  0.00  0.00    +0.000 A 
ATOM     12  C   UNL     1       1.039   3.710  18.902  0.00  0.00    +0.000 A 
ATOM     13  C   UNL     1       1.321   3.605  20.260  0.00  0.00    +0.000 A 
ATOM     14  C   UNL     1       2.590   3.925  20.728  0.00  0.00    +0.000 A 
ATOM     15  C   UNL     1       3.558   4.395  19.842  0.00  0.00    +0.000 A 
ENDBRANCH   6  10
BRANCH   1  17
ATOM     16  C   UNL     1       7.923   4.537  17.751  0.00  0.00    +0.000 C 
ATOM     17  C   UNL     1       7.159   4.197  16.462  0.00  0.00    +0.000 C 
ENDBRANCH   1  17
BRANCH   3  18
ATOM     18  C   UNL     1       6.760   8.354  17.906  0.00  0.00    +0.000 C 
ATOM     19  C   UNL     1       8.082   8.689  17.945  0.00  0.00    +0.000 C 
BRANCH  19  20
ATOM     20  C   UNL     1       8.720   9.960  18.346  0.00  0.00    +0.000 A 
ATOM     21  C   UNL     1       8.451  11.108  17.582  0.00  0.00    +0.000 A 
ATOM     22  C   UNL     1       8.991  12.349  17.926  0.00  0.00    +0.000 A 
ATOM     23  C   UNL     1       9.787  12.471  19.064  0.00  0.00    +0.000 A 
ATOM     24  C   UNL     1      10.032  11.349  19.852  0.00  0.00    +0.000 A 
ATOM     25  C   UNL     1       9.500  10.101  19.499  0.00  0.00    +0.000 A 
ENDBRANCH  19  20
ENDBRANCH   3  18
BRANCH   4  26
ATOM     26  C   UNL     1       3.789   7.436  17.954  0.00  0.00    +0.000 C 
ATOM     27  C   UNL     1       2.505   7.929  17.315  0.00  0.00    +0.000 C 
ENDBRANCH   4  26
TORSDOF 5
ENDMDL
MODEL 4
REMARK VINA RESULT:      -8.4      0.181      1.318
REMARK  Name = 
REMARK  7 active torsions:
REMARK  status: ('A' for Active; 'I' for Inactive)
REMARK    1  A    between atoms: C_1  and  C_2
REMARK    2  A    between atoms: C_2  and  C_3
REMARK    3  A    between atoms: C_5  and  C_6
REMARK    4  A    between atoms: C_7  and  C_8
REMARK    5  A    between atoms: C_14  and  C_15
REMARK    6  A    between atoms: C_15  and  C_16
REMARK    7  A    between atoms: C_18  and  C_19
REMARK                            x       y       z     vdW  Elec       q    Type
REMARK                         _______ _______ _______ _____ _____    ______ ____
ROOT
ATOM      1  C   UNL     1       3.162   4.518  18.967  0.00  0.00    +0.000 C 
ATOM      2  C   UNL     1       2.530   5.846  18.599  0.00  0.00    +0.000 C 
ATOM      3  C   UNL     1       3.199   6.642  17.743  0.00  0.00    +0.000 C 
ATOM      4  C   UNL     1       4.549   5.989  17.379  0.00  0.00    +0.000 C 
ATOM      5  C   UNL     1       4.603   5.448  18.821  0.00  0.00    +0.000 C 
ATOM      6  C   UNL     1       4.601   4.586  16.513  0.00  0.00    +0.000 C 
ATOM      7  C   UNL     1       4.922   3.335  17.398  0.00  0.00    +0.000 C 
ATOM      8  C   UNL     1       4.146   3.330  18.714  0.00  0.00    +0.000 C 
ATOM      9  O   UNL     1       4.298   2.442  19.548  0.00  0.00    +0.000 OA
ENDROOT
BRANCH   6  10
ATOM     10  C   UNL     1       5.423   4.390  15.232  0.00  0.00    +0.000 A 
ATOM     11  C   UNL     1       4.891   3.920  14.024  0.00  0.00    +0.000 A 
ATOM     12  C   UNL     1       5.694   3.811  12.884  0.00  0.00    +0.000 A 
ATOM     13  C   UNL     1       7.018   4.237  12.912  0.00  0.00    +0.000 A 
ATOM     14  C   UNL     1       7.543   4.779  14.079  0.00  0.00    +0.000 A 
ATOM     15  C   UNL     1       6.755   4.849  15.227  0.00  0.00    +0.000 A 
ENDBRANCH   6  10
BRANCH   1  17
ATOM     16  C   UNL     1       0.996   2.859  18.614  0.00  0.00    +0.000 C 
ATOM     17  C   UNL     1       2.070   3.752  17.973  0.00  0.00    +0.000 C 
ENDBRANCH   1  17
BRANCH   3  18
ATOM     18  C   UNL     1       2.945   8.083  17.902  0.00  0.00    +0.000 C 
ATOM     19  C   UNL     1       1.697   8.557  18.184  0.00  0.00    +0.000 C 
BRANCH  19  20
ATOM     20  C   UNL     1       1.239   9.948  18.375  0.00  0.00    +0.000 A 
ATOM     21  C   UNL     1       2.182  10.982  18.244  0.00  0.00    +0.000 A 
ATOM     22  C   UNL     1       1.810  12.322  18.376  0.00  0.00    +0.000 A 
ATOM     23  C   UNL     1       0.476  12.654  18.608  0.00  0.00    +0.000 A 
ATOM     24  C   UNL     1      -0.476  11.643  18.703  0.00  0.00    +0.000 A 
ATOM     25  C   UNL     1      -0.099  10.297  18.585  0.00  0.00    +0.000 A 
ENDBRANCH  19  20
ENDBRANCH   3  18
BRANCH   4  26
ATOM     26  C   UNL     1       5.605   6.936  16.770  0.00  0.00    +0.000 C 
ATOM     27  C   UNL     1       6.884   7.403  17.438  0.00  0.00    +0.000 C 
ENDBRANCH   4  26
TORSDOF 5
ENDMDL
MODEL 5
REMARK VINA RESULT:      -8.4      0.919      1.104
REMARK  Name = 
REMARK  7 active torsions:
REMARK  status: ('A' for Active; 'I' for Inactive)
REMARK    1  A    between atoms: C_1  and  C_2
REMARK    2  A    between atoms: C_2  and  C_3
REMARK    3  A    between atoms: C_5  and  C_6
REMARK    4  A    between atoms: C_7  and  C_8
REMARK    5  A    between atoms: C_14  and  C_15
REMARK    6  A    between atoms: C_15  and  C_16
REMARK    7  A    between atoms: C_18  and  C_19
REMARK                            x       y       z     vdW  Elec       q    Type
REMARK                         _______ _______ _______ _____ _____    ______ ____
ROOT
ATOM      1  C   UNL     1       3.293   4.341  19.188  0.00  0.00    +0.000 C 
ATOM      2  C   UNL     1       2.469   5.566  18.845  0.00  0.00    +0.000 C 
ATOM      3  C   UNL     1       3.001   6.460  17.990  0.00  0.00    +0.000 C 
ATOM      4  C   UNL     1       4.427   6.016  17.601  0.00  0.00    +0.000 C 
ATOM      5  C   UNL     1       4.580   5.473  19.035  0.00  0.00    +0.000 C 
ATOM      6  C   UNL     1       4.671   4.645  16.716  0.00  0.00    +0.000 C 
ATOM      7  C   UNL     1       5.183   3.445  17.581  0.00  0.00    +0.000 C 
ATOM      8  C   UNL     1       4.435   3.312  18.907  0.00  0.00    +0.000 C 
ATOM      9  O   UNL     1       4.728   2.447  19.728  0.00  0.00    +0.000 OA
ENDROOT
BRANCH   6  10
ATOM     10  C   UNL     1       5.495   4.585  15.423  0.00  0.00    +0.000 A 
ATOM     11  C   UNL     1       6.862   4.882  15.350  0.00  0.00    +0.000 A 
ATOM     12  C   UNL     1       7.557   4.760  14.143  0.00  0.00    +0.000 A 
ATOM     13  C   UNL     1       6.917   4.270  13.009  0.00  0.00    +0.000 A 
ATOM     14  C   UNL     1       5.581   3.894  13.080  0.00  0.00    +0.000 A 
ATOM     15  C   UNL     1       4.877   4.055  14.273  0.00  0.00    +0.000 A 
ENDBRANCH   6  10
BRANCH   1  17
ATOM     16  C   UNL     1       1.135   2.672  18.830  0.00  0.00    +0.000 C 
ATOM     17  C   UNL     1       2.310   3.435  18.197  0.00  0.00    +0.000 C 
ENDBRANCH   1  17
BRANCH   3  18
ATOM     18  C   UNL     1       2.542   7.847  18.171  0.00  0.00    +0.000 C 
ATOM     19  C   UNL     1       1.743   8.199  19.219  0.00  0.00    +0.000 C 
BRANCH  19  20
ATOM     20  C   UNL     1       1.178   9.517  19.571  0.00  0.00    +0.000 A 
ATOM     21  C   UNL     1       1.117  10.503  18.571  0.00  0.00    +0.000 A 
ATOM     22  C   UNL     1       0.562  11.759  18.826  0.00  0.00    +0.000 A 
ATOM     23  C   UNL     1       0.025  12.041  20.080  0.00  0.00    +0.000 A 
ATOM     24  C   UNL     1       0.044  11.062  21.071  0.00  0.00    +0.000 A 
ATOM     25  C   UNL     1       0.614   9.806  20.819  0.00  0.00    +0.000 A 
ENDBRANCH  19  20
ENDBRANCH   3  18
BRANCH   4  26
ATOM     26  C   UNL     1       5.325   7.113  16.991  0.00  0.00    +0.000 C 
ATOM     27  C   UNL     1       6.711   7.506  17.466  0.00  0.00    +0.000 C 
ENDBRANCH   4  26
TORSDOF 5
ENDMDL
MODEL 6
REMARK VINA RESULT:      -8.0      1.069      1.433
REMARK  Name = 
REMARK  7 active torsions:
REMARK  status: ('A' for Active; 'I' for Inactive)
REMARK    1  A    between atoms: C_1  and  C_2
REMARK    2  A    between atoms: C_2  and  C_3
REMARK    3  A    between atoms: C_5  and  C_6
REMARK    4  A    between atoms: C_7  and  C_8
REMARK    5  A    between atoms: C_14  and  C_15
REMARK    6  A    between atoms: C_15  and  C_16
REMARK    7  A    between atoms: C_18  and  C_19
REMARK                            x       y       z     vdW  Elec       q    Type
REMARK                         _______ _______ _______ _____ _____    ______ ____
ROOT
ATOM      1  C   UNL     1       3.410   4.319  19.471  0.00  0.00    +0.000 C 
ATOM      2  C   UNL     1       2.485   5.445  19.054  0.00  0.00    +0.000 C 
ATOM      3  C   UNL     1       2.917   6.290  18.100  0.00  0.00    +0.000 C 
ATOM      4  C   UNL     1       4.357   5.914  17.690  0.00  0.00    +0.000 C 
ATOM      5  C   UNL     1       4.603   5.520  19.160  0.00  0.00    +0.000 C 
ATOM      6  C   UNL     1       4.670   4.487  16.925  0.00  0.00    +0.000 C 
ATOM      7  C   UNL     1       5.302   3.413  17.872  0.00  0.00    +0.000 C 
ATOM      8  C   UNL     1       4.616   3.352  19.235  0.00  0.00    +0.000 C 
ATOM      9  O   UNL     1       5.002   2.591  20.118  0.00  0.00    +0.000 OA
ENDROOT
BRANCH   6  10
ATOM     10  C   UNL     1       5.448   4.364  15.607  0.00  0.00    +0.000 A 
ATOM     11  C   UNL     1       4.860   4.040  14.378  0.00  0.00    +0.000 A 
ATOM     12  C   UNL     1       5.626   3.992  13.209  0.00  0.00    +0.000 A 
ATOM     13  C   UNL     1       6.974   4.338  13.237  0.00  0.00    +0.000 A 
ATOM     14  C   UNL     1       7.558   4.738  14.432  0.00  0.00    +0.000 A 
ATOM     15  C   UNL     1       6.804   4.746  15.605  0.00  0.00    +0.000 A 
ENDBRANCH   6  10
BRANCH   1  17
ATOM     16  C   UNL     1       0.977   3.598  18.408  0.00  0.00    +0.000 C 
ATOM     17  C   UNL     1       2.462   3.256  18.611  0.00  0.00    +0.000 C 
ENDBRANCH   1  17
BRANCH   3  18
ATOM     18  C   UNL     1       2.363   7.653  18.173  0.00  0.00    +0.000 C 
ATOM     19  C   UNL     1       1.775   8.118  19.313  0.00  0.00    +0.000 C 
BRANCH  19  20
ATOM     20  C   UNL     1       1.162   9.433  19.586  0.00  0.00    +0.000 A 
ATOM     21  C   UNL     1       0.683   9.686  20.883  0.00  0.00    +0.000 A 
ATOM     22  C   UNL     1       0.125  10.922  21.220  0.00  0.00    +0.000 A 
ATOM     23  C   UNL     1       0.066  11.942  20.272  0.00  0.00    +0.000 A 
ATOM     24  C   UNL     1       0.571  11.718  18.993  0.00  0.00    +0.000 A 
ATOM     25  C   UNL     1       1.118  10.474  18.651  0.00  0.00    +0.000 A 
ENDBRANCH  19  20
ENDBRANCH   3  18
BRANCH   4  26
ATOM     26  C   UNL     1       5.148   7.010  16.945  0.00  0.00    +0.000 C 
ATOM     27  C   UNL     1       6.503   7.565  17.339  0.00  0.00    +0.000 C 
ENDBRANCH   4  26
TORSDOF 5
ENDMDL
MODEL 7
REMARK VINA RESULT:      -7.8      1.776      2.317
REMARK  Name = 
REMARK  7 active torsions:
REMARK  status: ('A' for Active; 'I' for Inactive)
REMARK    1  A    between atoms: C_1  and  C_2
REMARK    2  A    between atoms: C_2  and  C_3
REMARK    3  A    between atoms: C_5  and  C_6
REMARK    4  A    between atoms: C_7  and  C_8
REMARK    5  A    between atoms: C_14  and  C_15
REMARK    6  A    between atoms: C_15  and  C_16
REMARK    7  A    between atoms: C_18  and  C_19
REMARK                            x       y       z     vdW  Elec       q    Type
REMARK                         _______ _______ _______ _____ _____    ______ ____
ROOT
ATOM      1  C   UNL     1       3.069   3.554  20.041  0.00  0.00    +0.000 C 
ATOM      2  C   UNL     1       2.074   4.653  19.721  0.00  0.00    +0.000 C 
ATOM      3  C   UNL     1       2.478   5.644  18.904  0.00  0.00    +0.000 C 
ATOM      4  C   UNL     1       3.960   5.432  18.528  0.00  0.00    +0.000 C 
ATOM      5  C   UNL     1       4.173   4.871  19.947  0.00  0.00    +0.000 C 
ATOM      6  C   UNL     1       4.420   4.143  17.607  0.00  0.00    +0.000 C 
ATOM      7  C   UNL     1       5.094   3.006  18.444  0.00  0.00    +0.000 C 
ATOM      8  C   UNL     1       4.357   2.718  19.751  0.00  0.00    +0.000 C 
ATOM      9  O   UNL     1       4.764   1.880  20.550  0.00  0.00    +0.000 OA
ENDROOT
BRANCH   6  10
ATOM     10  C   UNL     1       5.261   4.250  16.328  0.00  0.00    +0.000 A 
ATOM     11  C   UNL     1       4.728   4.195  15.033  0.00  0.00    +0.000 A 
ATOM     12  C   UNL     1       5.553   4.346  13.914  0.00  0.00    +0.000 A 
ATOM     13  C   UNL     1       6.906   4.627  14.070  0.00  0.00    +0.000 A 
ATOM     14  C   UNL     1       7.439   4.763  15.346  0.00  0.00    +0.000 A 
ATOM     15  C   UNL     1       6.626   4.571  16.462  0.00  0.00    +0.000 A 
ENDBRANCH   6  10
BRANCH   1  17
ATOM     16  C   UNL     1       0.710   2.570  19.022  0.00  0.00    +0.000 C 
ATOM     17  C   UNL     1       2.247   2.544  19.005  0.00  0.00    +0.000 C 
ENDBRANCH   1  17
BRANCH   3  18
ATOM     18  C   UNL     1       1.813   6.941  19.119  0.00  0.00    +0.000 C 
ATOM     19  C   UNL     1       1.686   7.473  20.368  0.00  0.00    +0.000 C 
BRANCH  19  20
ATOM     20  C   UNL     1       1.057   8.741  20.790  0.00  0.00    +0.000 A 
ATOM     21  C   UNL     1       0.858   9.739  19.822  0.00  0.00    +0.000 A 
ATOM     22  C   UNL     1       0.236  10.948  20.145  0.00  0.00    +0.000 A 
ATOM     23  C   UNL     1      -0.230  11.167  21.440  0.00  0.00    +0.000 A 
ATOM     24  C   UNL     1      -0.073  10.172  22.402  0.00  0.00    +0.000 A 
ATOM     25  C   UNL     1       0.563   8.965  22.081  0.00  0.00    +0.000 A 
ENDBRANCH  19  20
ENDBRANCH   3  18
BRANCH   4  26
ATOM     26  C   UNL     1       4.691   6.671  17.969  0.00  0.00    +0.000 C 
ATOM     27  C   UNL     1       4.290   7.478  16.750  0.00  0.00    +0.000 C 
ENDBRANCH   4  26
TORSDOF 5
ENDMDL
MODEL 8
REMARK VINA RESULT:      -7.5      8.048     10.875
REMARK  Name = 
REMARK  7 active torsions:
REMARK  status: ('A' for Active; 'I' for Inactive)
REMARK    1  A    between atoms: C_1  and  C_2
REMARK    2  A    between atoms: C_2  and  C_3
REMARK    3  A    between atoms: C_5  and  C_6
REMARK    4  A    between atoms: C_7  and  C_8
REMARK    5  A    between atoms: C_14  and  C_15
REMARK    6  A    between atoms: C_15  and  C_16
REMARK    7  A    between atoms: C_18  and  C_19
REMARK                            x       y       z     vdW  Elec       q    Type
REMARK                         _______ _______ _______ _____ _____    ______ ____
ROOT
ATOM      1  C   UNL     1      10.323  11.186  19.571  0.00  0.00    +0.000 C 
ATOM      2  C   UNL     1       9.390  11.163  20.766  0.00  0.00    +0.000 C 
ATOM      3  C   UNL     1       9.142  12.330  21.390  0.00  0.00    +0.000 C 
ATOM      4  C   UNL     1       9.969  13.453  20.730  0.00  0.00    +0.000 C 
ATOM      5  C   UNL     1      11.084  12.414  20.506  0.00  0.00    +0.000 C 
ATOM      6  C   UNL     1       9.662  13.927  19.180  0.00  0.00    +0.000 C 
ATOM      7  C   UNL     1      10.712  13.378  18.157  0.00  0.00    +0.000 C 
ATOM      8  C   UNL     1      11.058  11.909  18.397  0.00  0.00    +0.000 C 
ATOM      9  O   UNL     1      11.890  11.323  17.711  0.00  0.00    +0.000 OA
ENDROOT
BRANCH   6  10
ATOM     10  C   UNL     1       9.409  15.378  18.752  0.00  0.00    +0.000 A 
ATOM     11  C   UNL     1       8.170  16.022  18.861  0.00  0.00    +0.000 A 
ATOM     12  C   UNL     1       8.026  17.364  18.493  0.00  0.00    +0.000 A 
ATOM     13  C   UNL     1       9.131  18.102  18.081  0.00  0.00    +0.000 A 
ATOM     14  C   UNL     1      10.384  17.504  18.041  0.00  0.00    +0.000 A 
ATOM     15  C   UNL     1      10.520  16.155  18.368  0.00  0.00    +0.000 A 
ENDBRANCH   6  10
BRANCH   1  17
ATOM     16  C   UNL     1       8.518   9.607  18.222  0.00  0.00    +0.000 C 
ATOM     17  C   UNL     1       9.003  11.024  18.570  0.00  0.00    +0.000 C 
ENDBRANCH   1  17
BRANCH   3  18
ATOM     18  C   UNL     1       8.817  12.216  22.821  0.00  0.00    +0.000 C 
ATOM     19  C   UNL     1       7.563  11.883  23.239  0.00  0.00    +0.000 C 
BRANCH  19  20
ATOM     20  C   UNL     1       7.038  11.723  24.611  0.00  0.00    +0.000 A 
ATOM     21  C   UNL     1       7.754  12.311  25.668  0.00  0.00    +0.000 A 
ATOM     22  C   UNL     1       7.296  12.230  26.986  0.00  0.00    +0.000 A 
ATOM     23  C   UNL     1       6.092  11.587  27.266  0.00  0.00    +0.000 A 
ATOM     24  C   UNL     1       5.352  11.032  26.224  0.00  0.00    +0.000 A 
ATOM     25  C   UNL     1       5.819  11.102  24.904  0.00  0.00    +0.000 A 
ENDBRANCH  19  20
ENDBRANCH   3  18
BRANCH   4  26
ATOM     26  C   UNL     1      10.139  14.738  21.569  0.00  0.00    +0.000 C 
ATOM     27  C   UNL     1       9.059  15.438  22.369  0.00  0.00    +0.000 C 
ENDBRANCH   4  26
TORSDOF 5
ENDMDL
MODEL 9
REMARK VINA RESULT:      -7.4      4.726      8.990
REMARK  Name = 
REMARK  7 active torsions:
REMARK  status: ('A' for Active; 'I' for Inactive)
REMARK    1  A    between atoms: C_1  and  C_2
REMARK    2  A    between atoms: C_2  and  C_3
REMARK    3  A    between atoms: C_5  and  C_6
REMARK    4  A    between atoms: C_7  and  C_8
REMARK    5  A    between atoms: C_14  and  C_15
REMARK    6  A    between atoms: C_15  and  C_16
REMARK    7  A    between atoms: C_18  and  C_19
REMARK                            x       y       z     vdW  Elec       q    Type
REMARK                         _______ _______ _______ _____ _____    ______ ____
ROOT
ATOM      1  C   UNL     1       0.146  13.984  19.380  0.00  0.00    +0.000 C 
ATOM      2  C   UNL     1      -1.117  13.695  20.169  0.00  0.00    +0.000 C 
ATOM      3  C   UNL     1      -1.667  12.472  20.045  0.00  0.00    +0.000 C 
ATOM      4  C   UNL     1      -0.859  11.644  19.022  0.00  0.00    +0.000 C 
ATOM      5  C   UNL     1      -0.630  12.953  18.241  0.00  0.00    +0.000 C 
ATOM      6  C   UNL     1       0.694  11.191  19.342  0.00  0.00    +0.000 C 
ATOM      7  C   UNL     1       1.751  12.053  18.573  0.00  0.00    +0.000 C 
ATOM      8  C   UNL     1       1.426  13.546  18.598  0.00  0.00    +0.000 C 
ATOM      9  O   UNL     1       2.127  14.368  18.016  0.00  0.00    +0.000 OA
ENDROOT
BRANCH   6  10
ATOM     10  C   UNL     1       1.211   9.750  19.250  0.00  0.00    +0.000 A 
ATOM     11  C   UNL     1       1.827   9.209  18.113  0.00  0.00    +0.000 A 
ATOM     12  C   UNL     1       2.316   7.899  18.119  0.00  0.00    +0.000 A 
ATOM     13  C   UNL     1       2.264   7.134  19.281  0.00  0.00    +0.000 A 
ATOM     14  C   UNL     1       1.728   7.679  20.441  0.00  0.00    +0.000 A 
ATOM     15  C   UNL     1       1.203   8.971  20.424  0.00  0.00    +0.000 A 
ENDBRANCH   6  10
BRANCH   1  17
ATOM     16  C   UNL     1       0.598  14.682  22.002  0.00  0.00    +0.000 C 
ATOM     17  C   UNL     1       1.024  13.844  20.786  0.00  0.00    +0.000 C 
ENDBRANCH   1  17
BRANCH   3  18
ATOM     18  C   UNL     1      -3.124  12.418  20.249  0.00  0.00    +0.000 C 
ATOM     19  C   UNL     1      -3.680  12.703  21.462  0.00  0.00    +0.000 C 
BRANCH  19  20
ATOM     20  C   UNL     1      -5.100  12.702  21.870  0.00  0.00    +0.000 A 
ATOM     21  C   UNL     1      -5.425  13.197  23.144  0.00  0.00    +0.000 A 
ATOM     22  C   UNL     1      -6.751  13.259  23.579  0.00  0.00    +0.000 A 
ATOM     23  C   UNL     1      -7.782  12.857  22.732  0.00  0.00    +0.000 A 
ATOM     24  C   UNL     1      -7.478  12.398  21.452  0.00  0.00    +0.000 A 
ATOM     25  C   UNL     1      -6.146  12.323  21.021  0.00  0.00    +0.000 A 
ENDBRANCH  19  20
ENDBRANCH   3  18
BRANCH   4  26
ATOM     26  C   UNL     1      -1.581  10.408  18.445  0.00  0.00    +0.000 C 
ATOM     27  C   UNL     1      -1.919  10.164  16.987  0.00  0.00    +0.000 C 
ENDBRANCH   4  26
TORSDOF 5
ENDMDL
