MODEL 1
REMARK VINA RESULT:      -6.9      0.000      0.000
REMARK  Name = 
REMARK  15 active torsions:
REMARK  status: ('A' for Active; 'I' for Inactive)
REMARK    1  A    between atoms: C_1  and  C_2
REMARK    2  A    between atoms: C_2  and  C_3
REMARK    3  A    between atoms: C_3  and  C_4
REMARK    4  A    between atoms: C_4  and  C_5
REMARK    5  A    between atoms: C_5  and  C_6
REMARK    6  A    between atoms: C_6  and  C_7
REMARK    7  A    between atoms: C_7  and  C_8
REMARK    8  A    between atoms: C_10  and  O_11
REMARK    9  A    between atoms: C_10  and  C_12
REMARK   10  A    between atoms: C_12  and  C_14
REMARK   11  A    between atoms: C_14  and  C_15
REMARK   12  A    between atoms: C_15  and  C_16
REMARK   13  A    between atoms: C_16  and  C_17
REMARK   14  A    between atoms: C_17  and  C_18
REMARK   15  A    between atoms: C_18  and  C_19
REMARK                            x       y       z     vdW  Elec       q    Type
REMARK                         _______ _______ _______ _____ _____    ______ ____
ROOT
ATOM      1  C   UNL     1       4.397   3.946  17.912  0.00  0.00    +0.000 C 
ATOM      2  C   UNL     1       4.492   4.854  16.941  0.00  0.00    +0.000 C 
ATOM      3  C   UNL     1       5.478   5.890  17.298  0.00  0.00    +0.000 C 
ATOM      4  O   UNL     1       5.826   5.597  18.646  0.00  0.00    +0.000 OA
ATOM      5  C   UNL     1       5.301   4.390  18.979  0.00  0.00    +0.000 C 
ATOM      6  O   UNL     1       5.522   3.789  20.015  0.00  0.00    +0.000 OA
ENDROOT
BRANCH   3   7
ATOM      7  O   UNL     1       4.851   7.150  17.202  0.00  0.00    +0.000 OA
ATOM      8  H   UNL     1       4.912   7.574  18.073  0.00  0.00    +0.000 HD
ENDBRANCH   3   7
BRANCH   3   9
ATOM      9  C   UNL     1       6.767   5.739  16.442  0.00  0.00    +0.000 C 
ATOM     10  O   UNL     1       7.681   6.568  16.454  0.00  0.00    +0.000 OA
BRANCH   9  11
ATOM     11  C   UNL     1       6.871   4.499  15.582  0.00  0.00    +0.000 C 
BRANCH  11  12
ATOM     12  C   UNL     1       6.591   4.816  14.121  0.00  0.00    +0.000 C 
BRANCH  12  13
ATOM     13  C   UNL     1       5.650   3.795  13.496  0.00  0.00    +0.000 C 
BRANCH  13  14
ATOM     14  C   UNL     1       6.304   3.166  12.265  0.00  0.00    +0.000 C 
BRANCH  14  15
ATOM     15  C   UNL     1       5.295   2.402  11.422  0.00  0.00    +0.000 C 
ATOM     16  C   UNL     1       4.067   3.251  11.145  0.00  0.00    +0.000 C 
ENDBRANCH  14  15
ENDBRANCH  13  14
ENDBRANCH  12  13
ENDBRANCH  11  12
ENDBRANCH   9  11
ENDBRANCH   3   9
BRANCH   1  17
ATOM     17  C   UNL     1       3.596   2.702  17.957  0.00  0.00    +0.000 C 
BRANCH  17  18
ATOM     18  C   UNL     1       2.237   2.881  17.291  0.00  0.00    +0.000 C 
BRANCH  18  19
ATOM     19  C   UNL     1       1.353   3.828  18.096  0.00  0.00    +0.000 C 
BRANCH  19  20
ATOM     20  C   UNL     1       1.034   3.225  19.461  0.00  0.00    +0.000 C 
BRANCH  20  21
ATOM     21  C   UNL     1       1.137   4.275  20.561  0.00  0.00    +0.000 C 
BRANCH  21  23
ATOM     22  C   UNL     1       2.607   2.506  21.570  0.00  0.00    +0.000 C 
ATOM     23  C   UNL     1       2.329   3.995  21.474  0.00  0.00    +0.000 C 
ENDBRANCH  21  23
ENDBRANCH  20  21
ENDBRANCH  19  20
ENDBRANCH  18  19
ENDBRANCH  17  18
ENDBRANCH   1  17
TORSDOF 13
ENDMDL
MODEL 2
REMARK VINA RESULT:      -6.9      1.048      1.357
REMARK  Name = 
REMARK  15 active torsions:
REMARK  status: ('A' for Active; 'I' for Inactive)
REMARK    1  A    between atoms: C_1  and  C_2
REMARK    2  A    between atoms: C_2  and  C_3
REMARK    3  A    between atoms: C_3  and  C_4
REMARK    4  A    between atoms: C_4  and  C_5
REMARK    5  A    between atoms: C_5  and  C_6
REMARK    6  A    between atoms: C_6  and  C_7
REMARK    7  A    between atoms: C_7  and  C_8
REMARK    8  A    between atoms: C_10  and  O_11
REMARK    9  A    between atoms: C_10  and  C_12
REMARK   10  A    between atoms: C_12  and  C_14
REMARK   11  A    between atoms: C_14  and  C_15
REMARK   12  A    between atoms: C_15  and  C_16
REMARK   13  A    between atoms: C_16  and  C_17
REMARK   14  A    between atoms: C_17  and  C_18
REMARK   15  A    between atoms: C_18  and  C_19
REMARK                            x       y       z     vdW  Elec       q    Type
REMARK                         _______ _______ _______ _____ _____    ______ ____
ROOT
ATOM      1  C   UNL     1       3.962   3.590  17.815  0.00  0.00    +0.000 C 
ATOM      2  C   UNL     1       4.271   4.603  17.005  0.00  0.00    +0.000 C 
ATOM      3  C   UNL     1       5.454   5.323  17.509  0.00  0.00    +0.000 C 
ATOM      4  O   UNL     1       5.705   4.744  18.784  0.00  0.00    +0.000 OA
ATOM      5  C   UNL     1       4.923   3.643  18.923  0.00  0.00    +0.000 C 
ATOM      6  O   UNL     1       4.988   2.846  19.842  0.00  0.00    +0.000 OA
ENDROOT
BRANCH   3   7
ATOM      7  O   UNL     1       5.120   6.689  17.633  0.00  0.00    +0.000 OA
ATOM      8  H   UNL     1       4.167   6.741  17.811  0.00  0.00    +0.000 HD
ENDBRANCH   3   7
BRANCH   3   9
ATOM      9  C   UNL     1       6.693   5.037  16.615  0.00  0.00    +0.000 C 
ATOM     10  O   UNL     1       7.688   4.430  17.022  0.00  0.00    +0.000 OA
BRANCH   9  11
ATOM     11  C   UNL     1       6.629   5.527  15.186  0.00  0.00    +0.000 C 
BRANCH  11  12
ATOM     12  C   UNL     1       6.915   4.402  14.203  0.00  0.00    +0.000 C 
BRANCH  12  13
ATOM     13  C   UNL     1       5.639   3.678  13.792  0.00  0.00    +0.000 C 
BRANCH  13  14
ATOM     14  C   UNL     1       5.711   3.292  12.314  0.00  0.00    +0.000 C 
BRANCH  14  15
ATOM     15  C   UNL     1       4.588   3.931  11.512  0.00  0.00    +0.000 C 
ATOM     16  C   UNL     1       3.647   2.875  10.962  0.00  0.00    +0.000 C 
ENDBRANCH  14  15
ENDBRANCH  13  14
ENDBRANCH  12  13
ENDBRANCH  11  12
ENDBRANCH   9  11
ENDBRANCH   3   9
BRANCH   1  17
ATOM     17  C   UNL     1       2.907   2.562  17.671  0.00  0.00    +0.000 C 
BRANCH  17  18
ATOM     18  C   UNL     1       1.518   3.139  17.925  0.00  0.00    +0.000 C 
BRANCH  18  19
ATOM     19  C   UNL     1       0.805   2.379  19.038  0.00  0.00    +0.000 C 
BRANCH  19  20
ATOM     20  C   UNL     1       1.222   2.920  20.402  0.00  0.00    +0.000 C 
BRANCH  20  21
ATOM     21  C   UNL     1       0.945   4.415  20.505  0.00  0.00    +0.000 C 
BRANCH  21  23
ATOM     22  C   UNL     1       2.368   6.365  19.810  0.00  0.00    +0.000 C 
ATOM     23  C   UNL     1       2.232   5.194  20.766  0.00  0.00    +0.000 C 
ENDBRANCH  21  23
ENDBRANCH  20  21
ENDBRANCH  19  20
ENDBRANCH  18  19
ENDBRANCH  17  18
ENDBRANCH   1  17
TORSDOF 13
ENDMDL
MODEL 3
REMARK VINA RESULT:      -6.8      3.383      5.539
REMARK  Name = 
REMARK  15 active torsions:
REMARK  status: ('A' for Active; 'I' for Inactive)
REMARK    1  A    between atoms: C_1  and  C_2
REMARK    2  A    between atoms: C_2  and  C_3
REMARK    3  A    between atoms: C_3  and  C_4
REMARK    4  A    between atoms: C_4  and  C_5
REMARK    5  A    between atoms: C_5  and  C_6
REMARK    6  A    between atoms: C_6  and  C_7
REMARK    7  A    between atoms: C_7  and  C_8
REMARK    8  A    between atoms: C_10  and  O_11
REMARK    9  A    between atoms: C_10  and  C_12
REMARK   10  A    between atoms: C_12  and  C_14
REMARK   11  A    between atoms: C_14  and  C_15
REMARK   12  A    between atoms: C_15  and  C_16
REMARK   13  A    between atoms: C_16  and  C_17
REMARK   14  A    between atoms: C_17  and  C_18
REMARK   15  A    between atoms: C_18  and  C_19
REMARK                            x       y       z     vdW  Elec       q    Type
REMARK                         _______ _______ _______ _____ _____    ______ ____
ROOT
ATOM      1  C   UNL     1       5.402   4.156  16.775  0.00  0.00    +0.000 C 
ATOM      2  C   UNL     1       5.854   4.765  17.872  0.00  0.00    +0.000 C 
ATOM      3  C   UNL     1       7.227   5.258  17.659  0.00  0.00    +0.000 C 
ATOM      4  O   UNL     1       7.601   4.729  16.392  0.00  0.00    +0.000 OA
ATOM      5  C   UNL     1       6.503   4.190  15.804  0.00  0.00    +0.000 C 
ATOM      6  O   UNL     1       6.451   3.771  14.662  0.00  0.00    +0.000 OA
ENDROOT
BRANCH   3   7
ATOM      7  O   UNL     1       8.046   4.740  18.684  0.00  0.00    +0.000 OA
ATOM      8  H   UNL     1       8.826   5.315  18.753  0.00  0.00    +0.000 HD
ENDBRANCH   3   7
BRANCH   3   9
ATOM      9  C   UNL     1       7.241   6.808  17.538  0.00  0.00    +0.000 C 
ATOM     10  O   UNL     1       6.468   7.431  16.804  0.00  0.00    +0.000 OA
BRANCH   9  11
ATOM     11  C   UNL     1       8.253   7.547  18.386  0.00  0.00    +0.000 C 
BRANCH  11  12
ATOM     12  C   UNL     1       8.324   9.017  18.003  0.00  0.00    +0.000 C 
BRANCH  12  13
ATOM     13  C   UNL     1       8.993   9.849  19.090  0.00  0.00    +0.000 C 
BRANCH  13  14
ATOM     14  C   UNL     1       9.215  11.278  18.592  0.00  0.00    +0.000 C 
BRANCH  14  15
ATOM     15  C   UNL     1      10.460  11.383  17.726  0.00  0.00    +0.000 C 
ATOM     16  C   UNL     1      10.977  12.810  17.690  0.00  0.00    +0.000 C 
ENDBRANCH  14  15
ENDBRANCH  13  14
ENDBRANCH  12  13
ENDBRANCH  11  12
ENDBRANCH   9  11
ENDBRANCH   3   9
BRANCH   1  17
ATOM     17  C   UNL     1       4.067   3.577  16.506  0.00  0.00    +0.000 C 
BRANCH  17  18
ATOM     18  C   UNL     1       3.346   3.199  17.795  0.00  0.00    +0.000 C 
BRANCH  18  19
ATOM     19  C   UNL     1       2.017   3.936  17.915  0.00  0.00    +0.000 C 
BRANCH  19  20
ATOM     20  C   UNL     1       2.172   5.172  18.796  0.00  0.00    +0.000 C 
BRANCH  20  21
ATOM     21  C   UNL     1       2.095   4.804  20.273  0.00  0.00    +0.000 C 
BRANCH  21  23
ATOM     22  C   UNL     1       1.474   2.725  21.538  0.00  0.00    +0.000 C 
ATOM     23  C   UNL     1       1.015   3.753  20.519  0.00  0.00    +0.000 C 
ENDBRANCH  21  23
ENDBRANCH  20  21
ENDBRANCH  19  20
ENDBRANCH  18  19
ENDBRANCH  17  18
ENDBRANCH   1  17
TORSDOF 13
ENDMDL
MODEL 4
REMARK VINA RESULT:      -6.8      1.153      1.774
REMARK  Name = 
REMARK  15 active torsions:
REMARK  status: ('A' for Active; 'I' for Inactive)
REMARK    1  A    between atoms: C_1  and  C_2
REMARK    2  A    between atoms: C_2  and  C_3
REMARK    3  A    between atoms: C_3  and  C_4
REMARK    4  A    between atoms: C_4  and  C_5
REMARK    5  A    between atoms: C_5  and  C_6
REMARK    6  A    between atoms: C_6  and  C_7
REMARK    7  A    between atoms: C_7  and  C_8
REMARK    8  A    between atoms: C_10  and  O_11
REMARK    9  A    between atoms: C_10  and  C_12
REMARK   10  A    between atoms: C_12  and  C_14
REMARK   11  A    between atoms: C_14  and  C_15
REMARK   12  A    between atoms: C_15  and  C_16
REMARK   13  A    between atoms: C_16  and  C_17
REMARK   14  A    between atoms: C_17  and  C_18
REMARK   15  A    between atoms: C_18  and  C_19
REMARK                            x       y       z     vdW  Elec       q    Type
REMARK                         _______ _______ _______ _____ _____    ______ ____
ROOT
ATOM      1  C   UNL     1       5.231   4.621  18.291  0.00  0.00    +0.000 C 
ATOM      2  C   UNL     1       5.006   4.867  17.001  0.00  0.00    +0.000 C 
ATOM      3  C   UNL     1       6.039   5.767  16.459  0.00  0.00    +0.000 C 
ATOM      4  O   UNL     1       6.794   6.164  17.598  0.00  0.00    +0.000 OA
ATOM      5  C   UNL     1       6.417   5.404  18.658  0.00  0.00    +0.000 C 
ATOM      6  O   UNL     1       6.958   5.401  19.748  0.00  0.00    +0.000 OA
ENDROOT
BRANCH   3   7
ATOM      7  O   UNL     1       5.396   6.876  15.870  0.00  0.00    +0.000 OA
ATOM      8  H   UNL     1       4.468   6.860  16.154  0.00  0.00    +0.000 HD
ENDBRANCH   3   7
BRANCH   3   9
ATOM      9  C   UNL     1       6.999   4.994  15.512  0.00  0.00    +0.000 C 
ATOM     10  O   UNL     1       7.988   4.376  15.916  0.00  0.00    +0.000 OA
BRANCH   9  11
ATOM     11  C   UNL     1       6.662   5.015  14.037  0.00  0.00    +0.000 C 
BRANCH  11  12
ATOM     12  C   UNL     1       6.027   3.704  13.598  0.00  0.00    +0.000 C 
BRANCH  12  13
ATOM     13  C   UNL     1       6.347   3.385  12.143  0.00  0.00    +0.000 C 
BRANCH  13  14
ATOM     14  C   UNL     1       5.204   2.583  11.521  0.00  0.00    +0.000 C 
BRANCH  14  15
ATOM     15  C   UNL     1       3.908   3.378  11.500  0.00  0.00    +0.000 C 
ATOM     16  C   UNL     1       3.568   3.824  10.090  0.00  0.00    +0.000 C 
ENDBRANCH  14  15
ENDBRANCH  13  14
ENDBRANCH  12  13
ENDBRANCH  11  12
ENDBRANCH   9  11
ENDBRANCH   3   9
BRANCH   1  17
ATOM     17  C   UNL     1       4.502   3.725  19.216  0.00  0.00    +0.000 C 
BRANCH  17  18
ATOM     18  C   UNL     1       3.537   2.809  18.472  0.00  0.00    +0.000 C 
BRANCH  18  19
ATOM     19  C   UNL     1       2.732   1.956  19.445  0.00  0.00    +0.000 C 
BRANCH  19  20
ATOM     20  C   UNL     1       2.747   2.580  20.837  0.00  0.00    +0.000 C 
BRANCH  20  21
ATOM     21  C   UNL     1       1.356   3.055  21.239  0.00  0.00    +0.000 C 
BRANCH  21  23
ATOM     22  C   UNL     1       1.739   5.470  20.663  0.00  0.00    +0.000 C 
ATOM     23  C   UNL     1       0.909   4.232  20.374  0.00  0.00    +0.000 C 
ENDBRANCH  21  23
ENDBRANCH  20  21
ENDBRANCH  19  20
ENDBRANCH  18  19
ENDBRANCH  17  18
ENDBRANCH   1  17
TORSDOF 13
ENDMDL
MODEL 5
REMARK VINA RESULT:      -6.8      3.776      7.632
REMARK  Name = 
REMARK  15 active torsions:
REMARK  status: ('A' for Active; 'I' for Inactive)
REMARK    1  A    between atoms: C_1  and  C_2
REMARK    2  A    between atoms: C_2  and  C_3
REMARK    3  A    between atoms: C_3  and  C_4
REMARK    4  A    between atoms: C_4  and  C_5
REMARK    5  A    between atoms: C_5  and  C_6
REMARK    6  A    between atoms: C_6  and  C_7
REMARK    7  A    between atoms: C_7  and  C_8
REMARK    8  A    between atoms: C_10  and  O_11
REMARK    9  A    between atoms: C_10  and  C_12
REMARK   10  A    between atoms: C_12  and  C_14
REMARK   11  A    between atoms: C_14  and  C_15
REMARK   12  A    between atoms: C_15  and  C_16
REMARK   13  A    between atoms: C_16  and  C_17
REMARK   14  A    between atoms: C_17  and  C_18
REMARK   15  A    between atoms: C_18  and  C_19
REMARK                            x       y       z     vdW  Elec       q    Type
REMARK                         _______ _______ _______ _____ _____    ______ ____
ROOT
ATOM      1  C   UNL     1       7.647   6.539  18.260  0.00  0.00    +0.000 C 
ATOM      2  C   UNL     1       7.055   6.167  17.125  0.00  0.00    +0.000 C 
ATOM      3  C   UNL     1       6.316   4.906  17.318  0.00  0.00    +0.000 C 
ATOM      4  O   UNL     1       6.673   4.484  18.629  0.00  0.00    +0.000 OA
ATOM      5  C   UNL     1       7.348   5.490  19.242  0.00  0.00    +0.000 C 
ATOM      6  O   UNL     1       7.680   5.502  20.414  0.00  0.00    +0.000 OA
ENDROOT
BRANCH   3   7
ATOM      7  O   UNL     1       6.761   3.980  16.352  0.00  0.00    +0.000 OA
ATOM      8  H   UNL     1       6.472   4.303  15.483  0.00  0.00    +0.000 HD
ENDBRANCH   3   7
BRANCH   3   9
ATOM      9  C   UNL     1       4.783   5.163  17.314  0.00  0.00    +0.000 C 
ATOM     10  O   UNL     1       4.266   6.132  16.751  0.00  0.00    +0.000 OA
BRANCH   9  11
ATOM     11  C   UNL     1       3.921   4.146  18.031  0.00  0.00    +0.000 C 
BRANCH  11  12
ATOM     12  C   UNL     1       2.567   4.733  18.398  0.00  0.00    +0.000 C 
BRANCH  12  13
ATOM     13  C   UNL     1       2.633   5.529  19.695  0.00  0.00    +0.000 C 
BRANCH  13  14
ATOM     14  C   UNL     1       1.561   5.034  20.667  0.00  0.00    +0.000 C 
BRANCH  14  15
ATOM     15  C   UNL     1       1.090   3.632  20.315  0.00  0.00    +0.000 C 
ATOM     16  C   UNL     1       1.422   2.654  21.427  0.00  0.00    +0.000 C 
ENDBRANCH  14  15
ENDBRANCH  13  14
ENDBRANCH  12  13
ENDBRANCH  11  12
ENDBRANCH   9  11
ENDBRANCH   3   9
BRANCH   1  17
ATOM     17  C   UNL     1       8.427   7.762  18.554  0.00  0.00    +0.000 C 
BRANCH  17  18
ATOM     18  C   UNL     1       7.929   8.956  17.748  0.00  0.00    +0.000 C 
BRANCH  18  19
ATOM     19  C   UNL     1       8.805  10.181  17.987  0.00  0.00    +0.000 C 
BRANCH  19  20
ATOM     20  C   UNL     1       9.344  10.178  19.414  0.00  0.00    +0.000 C 
BRANCH  20  21
ATOM     21  C   UNL     1      10.053  11.489  19.734  0.00  0.00    +0.000 C 
BRANCH  21  23
ATOM     22  C   UNL     1      11.686  12.268  17.992  0.00  0.00    +0.000 C 
ATOM     23  C   UNL     1      11.505  11.456  19.261  0.00  0.00    +0.000 C 
ENDBRANCH  21  23
ENDBRANCH  20  21
ENDBRANCH  19  20
ENDBRANCH  18  19
ENDBRANCH  17  18
ENDBRANCH   1  17
TORSDOF 13
ENDMDL
MODEL 6
REMARK VINA RESULT:      -6.8      0.688      1.114
REMARK  Name = 
REMARK  15 active torsions:
REMARK  status: ('A' for Active; 'I' for Inactive)
REMARK    1  A    between atoms: C_1  and  C_2
REMARK    2  A    between atoms: C_2  and  C_3
REMARK    3  A    between atoms: C_3  and  C_4
REMARK    4  A    between atoms: C_4  and  C_5
REMARK    5  A    between atoms: C_5  and  C_6
REMARK    6  A    between atoms: C_6  and  C_7
REMARK    7  A    between atoms: C_7  and  C_8
REMARK    8  A    between atoms: C_10  and  O_11
REMARK    9  A    between atoms: C_10  and  C_12
REMARK   10  A    between atoms: C_12  and  C_14
REMARK   11  A    between atoms: C_14  and  C_15
REMARK   12  A    between atoms: C_15  and  C_16
REMARK   13  A    between atoms: C_16  and  C_17
REMARK   14  A    between atoms: C_17  and  C_18
REMARK   15  A    between atoms: C_18  and  C_19
REMARK                            x       y       z     vdW  Elec       q    Type
REMARK                         _______ _______ _______ _____ _____    ______ ____
ROOT
ATOM      1  C   UNL     1       4.291   3.675  17.778  0.00  0.00    +0.000 C 
ATOM      2  C   UNL     1       4.384   4.660  16.885  0.00  0.00    +0.000 C 
ATOM      3  C   UNL     1       5.346   5.680  17.340  0.00  0.00    +0.000 C 
ATOM      4  O   UNL     1       5.679   5.285  18.666  0.00  0.00    +0.000 OA
ATOM      5  C   UNL     1       5.171   4.046  18.892  0.00  0.00    +0.000 C 
ATOM      6  O   UNL     1       5.388   3.368  19.880  0.00  0.00    +0.000 OA
ENDROOT
BRANCH   3   7
ATOM      7  O   UNL     1       4.699   6.933  17.335  0.00  0.00    +0.000 OA
ATOM      8  H   UNL     1       5.137   7.485  16.667  0.00  0.00    +0.000 HD
ENDBRANCH   3   7
BRANCH   3   9
ATOM      9  C   UNL     1       6.650   5.620  16.495  0.00  0.00    +0.000 C 
ATOM     10  O   UNL     1       7.558   6.449  16.602  0.00  0.00    +0.000 OA
BRANCH   9  11
ATOM     11  C   UNL     1       6.778   4.468  15.522  0.00  0.00    +0.000 C 
BRANCH  11  12
ATOM     12  C   UNL     1       6.462   4.909  14.101  0.00  0.00    +0.000 C 
BRANCH  12  13
ATOM     13  C   UNL     1       6.292   3.717  13.168  0.00  0.00    +0.000 C 
BRANCH  13  14
ATOM     14  C   UNL     1       4.888   3.724  12.563  0.00  0.00    +0.000 C 
BRANCH  14  15
ATOM     15  C   UNL     1       4.784   2.776  11.378  0.00  0.00    +0.000 C 
ATOM     16  C   UNL     1       5.886   1.733  11.420  0.00  0.00    +0.000 C 
ENDBRANCH  14  15
ENDBRANCH  13  14
ENDBRANCH  12  13
ENDBRANCH  11  12
ENDBRANCH   9  11
ENDBRANCH   3   9
BRANCH   1  17
ATOM     17  C   UNL     1       3.512   2.419  17.711  0.00  0.00    +0.000 C 
BRANCH  17  18
ATOM     18  C   UNL     1       2.011   2.687  17.668  0.00  0.00    +0.000 C 
BRANCH  18  19
ATOM     19  C   UNL     1       1.315   2.095  18.888  0.00  0.00    +0.000 C 
BRANCH  19  20
ATOM     20  C   UNL     1       0.710   3.203  19.744  0.00  0.00    +0.000 C 
BRANCH  20  21
ATOM     21  C   UNL     1       1.384   3.269  21.110  0.00  0.00    +0.000 C 
BRANCH  21  23
ATOM     22  C   UNL     1       1.970   5.507  20.131  0.00  0.00    +0.000 C 
ATOM     23  C   UNL     1       2.291   4.493  21.214  0.00  0.00    +0.000 C 
ENDBRANCH  21  23
ENDBRANCH  20  21
ENDBRANCH  19  20
ENDBRANCH  18  19
ENDBRANCH  17  18
ENDBRANCH   1  17
TORSDOF 13
ENDMDL
MODEL 7
REMARK VINA RESULT:      -6.7      3.661      5.708
REMARK  Name = 
REMARK  15 active torsions:
REMARK  status: ('A' for Active; 'I' for Inactive)
REMARK    1  A    between atoms: C_1  and  C_2
REMARK    2  A    between atoms: C_2  and  C_3
REMARK    3  A    between atoms: C_3  and  C_4
REMARK    4  A    between atoms: C_4  and  C_5
REMARK    5  A    between atoms: C_5  and  C_6
REMARK    6  A    between atoms: C_6  and  C_7
REMARK    7  A    between atoms: C_7  and  C_8
REMARK    8  A    between atoms: C_10  and  O_11
REMARK    9  A    between atoms: C_10  and  C_12
REMARK   10  A    between atoms: C_12  and  C_14
REMARK   11  A    between atoms: C_14  and  C_15
REMARK   12  A    between atoms: C_15  and  C_16
REMARK   13  A    between atoms: C_16  and  C_17
REMARK   14  A    between atoms: C_17  and  C_18
REMARK   15  A    between atoms: C_18  and  C_19
REMARK                            x       y       z     vdW  Elec       q    Type
REMARK                         _______ _______ _______ _____ _____    ______ ____
ROOT
ATOM      1  C   UNL     1       5.454   4.847  17.975  0.00  0.00    +0.000 C 
ATOM      2  C   UNL     1       6.106   5.634  18.829  0.00  0.00    +0.000 C 
ATOM      3  C   UNL     1       7.508   5.806  18.405  0.00  0.00    +0.000 C 
ATOM      4  O   UNL     1       7.660   4.905  17.314  0.00  0.00    +0.000 OA
ATOM      5  C   UNL     1       6.436   4.431  16.967  0.00  0.00    +0.000 C 
ATOM      6  O   UNL     1       6.201   3.741  15.991  0.00  0.00    +0.000 OA
ENDROOT
BRANCH   3   7
ATOM      7  O   UNL     1       8.344   5.442  19.481  0.00  0.00    +0.000 OA
ATOM      8  H   UNL     1       7.772   5.166  20.215  0.00  0.00    +0.000 HD
ENDBRANCH   3   7
BRANCH   3   9
ATOM      9  C   UNL     1       7.743   7.242  17.857  0.00  0.00    +0.000 C 
ATOM     10  O   UNL     1       7.312   7.623  16.765  0.00  0.00    +0.000 OA
BRANCH   9  11
ATOM     11  C   UNL     1       8.528   8.187  18.741  0.00  0.00    +0.000 C 
BRANCH  11  12
ATOM     12  C   UNL     1       8.454   9.615  18.224  0.00  0.00    +0.000 C 
BRANCH  12  13
ATOM     13  C   UNL     1       9.428  10.529  18.957  0.00  0.00    +0.000 C 
BRANCH  13  14
ATOM     14  C   UNL     1       9.731  11.761  18.104  0.00  0.00    +0.000 C 
BRANCH  14  15
ATOM     15  C   UNL     1      11.205  11.844  17.743  0.00  0.00    +0.000 C 
ATOM     16  C   UNL     1      11.506  13.122  16.981  0.00  0.00    +0.000 C 
ENDBRANCH  14  15
ENDBRANCH  13  14
ENDBRANCH  12  13
ENDBRANCH  11  12
ENDBRANCH   9  11
ENDBRANCH   3   9
BRANCH   1  17
ATOM     17  C   UNL     1       4.025   4.460  17.960  0.00  0.00    +0.000 C 
BRANCH  17  18
ATOM     18  C   UNL     1       3.842   2.968  18.214  0.00  0.00    +0.000 C 
BRANCH  18  19
ATOM     19  C   UNL     1       2.515   2.475  17.646  0.00  0.00    +0.000 C 
BRANCH  19  20
ATOM     20  C   UNL     1       1.368   3.353  18.138  0.00  0.00    +0.000 C 
BRANCH  20  21
ATOM     21  C   UNL     1       0.861   2.881  19.495  0.00  0.00    +0.000 C 
BRANCH  21  23
ATOM     22  C   UNL     1       2.089   3.413  21.621  0.00  0.00    +0.000 C 
ATOM     23  C   UNL     1       1.122   3.932  20.572  0.00  0.00    +0.000 C 
ENDBRANCH  21  23
ENDBRANCH  20  21
ENDBRANCH  19  20
ENDBRANCH  18  19
ENDBRANCH  17  18
ENDBRANCH   1  17
TORSDOF 13
ENDMDL
MODEL 8
REMARK VINA RESULT:      -6.7      0.995      1.336
REMARK  Name = 
REMARK  15 active torsions:
REMARK  status: ('A' for Active; 'I' for Inactive)
REMARK    1  A    between atoms: C_1  and  C_2
REMARK    2  A    between atoms: C_2  and  C_3
REMARK    3  A    between atoms: C_3  and  C_4
REMARK    4  A    between atoms: C_4  and  C_5
REMARK    5  A    between atoms: C_5  and  C_6
REMARK    6  A    between atoms: C_6  and  C_7
REMARK    7  A    between atoms: C_7  and  C_8
REMARK    8  A    between atoms: C_10  and  O_11
REMARK    9  A    between atoms: C_10  and  C_12
REMARK   10  A    between atoms: C_12  and  C_14
REMARK   11  A    between atoms: C_14  and  C_15
REMARK   12  A    between atoms: C_15  and  C_16
REMARK   13  A    between atoms: C_16  and  C_17
REMARK   14  A    between atoms: C_17  and  C_18
REMARK   15  A    between atoms: C_18  and  C_19
REMARK                            x       y       z     vdW  Elec       q    Type
REMARK                         _______ _______ _______ _____ _____    ______ ____
ROOT
ATOM      1  C   UNL     1       4.288   4.270  17.235  0.00  0.00    +0.000 C 
ATOM      2  C   UNL     1       4.569   4.650  15.988  0.00  0.00    +0.000 C 
ATOM      3  C   UNL     1       5.693   5.605  15.982  0.00  0.00    +0.000 C 
ATOM      4  O   UNL     1       5.930   5.881  17.357  0.00  0.00    +0.000 OA
ATOM      5  C   UNL     1       5.205   5.012  18.107  0.00  0.00    +0.000 C 
ATOM      6  O   UNL     1       5.282   4.894  19.317  0.00  0.00    +0.000 OA
ENDROOT
BRANCH   3   7
ATOM      7  O   UNL     1       5.281   6.768  15.299  0.00  0.00    +0.000 OA
ATOM      8  H   UNL     1       4.922   6.491  14.440  0.00  0.00    +0.000 HD
ENDBRANCH   3   7
BRANCH   3   9
ATOM      9  C   UNL     1       6.977   4.938  15.413  0.00  0.00    +0.000 C 
ATOM     10  O   UNL     1       7.894   4.527  16.130  0.00  0.00    +0.000 OA
BRANCH   9  11
ATOM     11  C   UNL     1       7.058   4.793  13.909  0.00  0.00    +0.000 C 
BRANCH  11  12
ATOM     12  C   UNL     1       5.993   3.840  13.388  0.00  0.00    +0.000 C 
BRANCH  12  13
ATOM     13  C   UNL     1       6.465   3.096  12.146  0.00  0.00    +0.000 C 
BRANCH  13  14
ATOM     14  C   UNL     1       5.263   2.528  11.390  0.00  0.00    +0.000 C 
BRANCH  14  15
ATOM     15  C   UNL     1       4.044   3.427  11.519  0.00  0.00    +0.000 C 
ATOM     16  C   UNL     1       3.327   3.564  10.188  0.00  0.00    +0.000 C 
ENDBRANCH  14  15
ENDBRANCH  13  14
ENDBRANCH  12  13
ENDBRANCH  11  12
ENDBRANCH   9  11
ENDBRANCH   3   9
BRANCH   1  17
ATOM     17  C   UNL     1       3.297   3.280  17.712  0.00  0.00    +0.000 C 
BRANCH  17  18
ATOM     18  C   UNL     1       1.971   3.938  18.074  0.00  0.00    +0.000 C 
BRANCH  18  19
ATOM     19  C   UNL     1       0.976   2.911  18.603  0.00  0.00    +0.000 C 
BRANCH  19  20
ATOM     20  C   UNL     1       0.492   3.307  19.995  0.00  0.00    +0.000 C 
BRANCH  20  21
ATOM     21  C   UNL     1       1.624   3.912  20.816  0.00  0.00    +0.000 C 
BRANCH  21  23
ATOM     22  C   UNL     1       3.544   2.319  21.116  0.00  0.00    +0.000 C 
ATOM     23  C   UNL     1       2.263   2.862  21.724  0.00  0.00    +0.000 C 
ENDBRANCH  21  23
ENDBRANCH  20  21
ENDBRANCH  19  20
ENDBRANCH  18  19
ENDBRANCH  17  18
ENDBRANCH   1  17
TORSDOF 13
ENDMDL
MODEL 9
REMARK VINA RESULT:      -6.7      1.329      6.956
REMARK  Name = 
REMARK  15 active torsions:
REMARK  status: ('A' for Active; 'I' for Inactive)
REMARK    1  A    between atoms: C_1  and  C_2
REMARK    2  A    between atoms: C_2  and  C_3
REMARK    3  A    between atoms: C_3  and  C_4
REMARK    4  A    between atoms: C_4  and  C_5
REMARK    5  A    between atoms: C_5  and  C_6
REMARK    6  A    between atoms: C_6  and  C_7
REMARK    7  A    between atoms: C_7  and  C_8
REMARK    8  A    between atoms: C_10  and  O_11
REMARK    9  A    between atoms: C_10  and  C_12
REMARK   10  A    between atoms: C_12  and  C_14
REMARK   11  A    between atoms: C_14  and  C_15
REMARK   12  A    between atoms: C_15  and  C_16
REMARK   13  A    between atoms: C_16  and  C_17
REMARK   14  A    between atoms: C_17  and  C_18
REMARK   15  A    between atoms: C_18  and  C_19
REMARK                            x       y       z     vdW  Elec       q    Type
REMARK                         _______ _______ _______ _____ _____    ______ ____
ROOT
ATOM      1  C   UNL     1       5.792   4.565  15.537  0.00  0.00    +0.000 C 
ATOM      2  C   UNL     1       6.187   3.869  16.603  0.00  0.00    +0.000 C 
ATOM      3  C   UNL     1       6.190   4.723  17.805  0.00  0.00    +0.000 C 
ATOM      4  O   UNL     1       5.924   6.030  17.309  0.00  0.00    +0.000 OA
ATOM      5  C   UNL     1       5.562   5.937  16.005  0.00  0.00    +0.000 C 
ATOM      6  O   UNL     1       5.145   6.856  15.323  0.00  0.00    +0.000 OA
ENDROOT
BRANCH   3   7
ATOM      7  O   UNL     1       7.471   4.657  18.392  0.00  0.00    +0.000 OA
ATOM      8  H   UNL     1       7.491   3.870  18.960  0.00  0.00    +0.000 HD
ENDBRANCH   3   7
BRANCH   3   9
ATOM      9  C   UNL     1       5.020   4.339  18.754  0.00  0.00    +0.000 C 
ATOM     10  O   UNL     1       5.084   3.401  19.553  0.00  0.00    +0.000 OA
BRANCH   9  11
ATOM     11  C   UNL     1       3.771   5.189  18.672  0.00  0.00    +0.000 C 
BRANCH  11  12
ATOM     12  C   UNL     1       3.121   5.348  20.038  0.00  0.00    +0.000 C 
BRANCH  12  13
ATOM     13  C   UNL     1       1.670   4.885  20.027  0.00  0.00    +0.000 C 
BRANCH  13  14
ATOM     14  C   UNL     1       1.489   3.709  20.988  0.00  0.00    +0.000 C 
BRANCH  14  15
ATOM     15  C   UNL     1       1.559   2.375  20.261  0.00  0.00    +0.000 C 
ATOM     16  C   UNL     1       0.906   2.469  18.893  0.00  0.00    +0.000 C 
ENDBRANCH  14  15
ENDBRANCH  13  14
ENDBRANCH  12  13
ENDBRANCH  11  12
ENDBRANCH   9  11
ENDBRANCH   3   9
BRANCH   1  17
ATOM     17  C   UNL     1       5.570   4.106  14.148  0.00  0.00    +0.000 C 
BRANCH  17  18
ATOM     18  C   UNL     1       6.821   4.273  13.292  0.00  0.00    +0.000 C 
BRANCH  18  19
ATOM     19  C   UNL     1       6.667   3.561  11.953  0.00  0.00    +0.000 C 
BRANCH  19  20
ATOM     20  C   UNL     1       5.351   2.791  11.909  0.00  0.00    +0.000 C 
BRANCH  20  21
ATOM     21  C   UNL     1       4.189   3.711  11.553  0.00  0.00    +0.000 C 
BRANCH  21  23
ATOM     22  C   UNL     1       2.855   4.229   9.489  0.00  0.00    +0.000 C 
ATOM     23  C   UNL     1       3.364   3.132  10.405  0.00  0.00    +0.000 C 
ENDBRANCH  21  23
ENDBRANCH  20  21
ENDBRANCH  19  20
ENDBRANCH  18  19
ENDBRANCH  17  18
ENDBRANCH   1  17
TORSDOF 13
ENDMDL
