MODEL 1
REMARK VINA RESULT:      -8.0      0.000      0.000
REMARK  Name = 
REMARK  6 active torsions:
REMARK  status: ('A' for Active; 'I' for Inactive)
REMARK    1  A    between atoms: C_1  and  O_2
REMARK    2  A    between atoms: O_2  and  C_3
REMARK    3  A    between atoms: C_3  and  C_5
REMARK    4  A    between atoms: C_10  and  O_11
REMARK    5  A    between atoms: C_16  and  C_17
REMARK    6  A    between atoms: C_22  and  O_23
REMARK                            x       y       z     vdW  Elec       q    Type
REMARK                         _______ _______ _______ _____ _____    ______ ____
ROOT
ATOM      1  C   UNL     1       5.540   4.918  16.839  0.00  0.00    +0.000 A 
ATOM      2  O   UNL     1       5.241   4.151  17.985  0.00  0.00    +0.000 OA
ATOM      3  C   UNL     1       4.341   4.568  18.912  0.00  0.00    +0.000 A 
ATOM      4  O   UNL     1       4.072   3.892  19.901  0.00  0.00    +0.000 OA
ATOM      5  C   UNL     1       3.690   5.886  18.711  0.00  0.00    +0.000 A 
ATOM      6  C   UNL     1       2.777   6.368  19.677  0.00  0.00    +0.000 A 
ATOM      7  C   UNL     1       2.153   7.613  19.505  0.00  0.00    +0.000 A 
ATOM      8  C   UNL     1       1.185   8.178  20.474  0.00  0.00    +0.000 A 
ATOM      9  O   UNL     1       0.829   7.633  21.510  0.00  0.00    +0.000 OA
ATOM     10  C   UNL     1       0.618   9.495  20.144  0.00  0.00    +0.000 A 
ATOM     11  C   UNL     1       0.988  10.121  19.018  0.00  0.00    +0.000 A 
ATOM     12  C   UNL     1       0.437  11.463  18.645  0.00  0.00    +0.000 C 
ATOM     13  O   UNL     1       1.893   9.600  18.110  0.00  0.00    +0.000 OA
ATOM     14  C   UNL     1       2.448   8.365  18.370  0.00  0.00    +0.000 A 
ATOM     15  C   UNL     1       3.350   7.887  17.409  0.00  0.00    +0.000 A 
ATOM     16  C   UNL     1       3.988   6.641  17.564  0.00  0.00    +0.000 A 
ATOM     17  C   UNL     1       4.950   6.098  16.586  0.00  0.00    +0.000 A 
ENDROOT
BRANCH   1  18
ATOM     18  C   UNL     1       6.572   4.359  15.911  0.00  0.00    +0.000 C 
ATOM     19  O   UNL     1       7.779   4.477  16.037  0.00  0.00    +0.000 OA
BRANCH  18  21
ATOM     20  C   UNL     1       6.407   4.009  13.610  0.00  0.00    +0.000 C 
ATOM     21  O   UNL     1       5.957   3.657  14.921  0.00  0.00    +0.000 OA
ENDBRANCH  18  21
ENDBRANCH   1  18
BRANCH   6  22
ATOM     22  O   UNL     1       2.478   5.639  20.800  0.00  0.00    +0.000 OA
ATOM     23  H   UNL     1       1.510   5.497  20.885  0.00  0.00    +0.000 HD
ENDBRANCH   6  22
BRANCH  17  24
ATOM     24  O   UNL     1       5.191   6.794  15.422  0.00  0.00    +0.000 OA
ATOM     25  H   UNL     1       5.152   7.750  15.551  0.00  0.00    +0.000 HD
ENDBRANCH  17  24
TORSDOF 4
ENDMDL
MODEL 2
REMARK VINA RESULT:      -7.7      1.521      2.065
REMARK  Name = 
REMARK  6 active torsions:
REMARK  status: ('A' for Active; 'I' for Inactive)
REMARK    1  A    between atoms: C_1  and  O_2
REMARK    2  A    between atoms: O_2  and  C_3
REMARK    3  A    between atoms: C_3  and  C_5
REMARK    4  A    between atoms: C_10  and  O_11
REMARK    5  A    between atoms: C_16  and  C_17
REMARK    6  A    between atoms: C_22  and  O_23
REMARK                            x       y       z     vdW  Elec       q    Type
REMARK                         _______ _______ _______ _____ _____    ______ ____
ROOT
ATOM      1  C   UNL     1       5.680   4.675  15.476  0.00  0.00    +0.000 A 
ATOM      2  O   UNL     1       5.393   3.427  16.066  0.00  0.00    +0.000 OA
ATOM      3  C   UNL     1       4.559   3.311  17.131  0.00  0.00    +0.000 A 
ATOM      4  O   UNL     1       4.299   2.222  17.633  0.00  0.00    +0.000 OA
ATOM      5  C   UNL     1       3.969   4.551  17.694  0.00  0.00    +0.000 A 
ATOM      6  C   UNL     1       3.126   4.470  18.827  0.00  0.00    +0.000 A 
ATOM      7  C   UNL     1       2.562   5.632  19.375  0.00  0.00    +0.000 A 
ATOM      8  C   UNL     1       1.669   5.622  20.558  0.00  0.00    +0.000 A 
ATOM      9  O   UNL     1       1.332   4.621  21.174  0.00  0.00    +0.000 OA
ATOM     10  C   UNL     1       1.157   6.927  21.006  0.00  0.00    +0.000 A 
ATOM     11  C   UNL     1       1.509   8.044  20.354  0.00  0.00    +0.000 A 
ATOM     12  C   UNL     1       1.012   9.392  20.778  0.00  0.00    +0.000 C 
ATOM     13  O   UNL     1       2.344   8.060  19.250  0.00  0.00    +0.000 OA
ATOM     14  C   UNL     1       2.845   6.863  18.787  0.00  0.00    +0.000 A 
ATOM     15  C   UNL     1       3.676   6.944  17.661  0.00  0.00    +0.000 A 
ATOM     16  C   UNL     1       4.255   5.791  17.097  0.00  0.00    +0.000 A 
ATOM     17  C   UNL     1       5.141   5.824  15.919  0.00  0.00    +0.000 A 
ENDROOT
BRANCH   1  18
ATOM     18  C   UNL     1       6.638   4.668  14.328  0.00  0.00    +0.000 C 
ATOM     19  O   UNL     1       7.624   5.379  14.220  0.00  0.00    +0.000 OA
BRANCH  18  21
ATOM     20  C   UNL     1       6.902   3.844  12.160  0.00  0.00    +0.000 C 
ATOM     21  O   UNL     1       6.266   3.711  13.434  0.00  0.00    +0.000 OA
ENDBRANCH  18  21
ENDBRANCH   1  18
BRANCH   6  22
ATOM     22  O   UNL     1       2.841   3.266  19.418  0.00  0.00    +0.000 OA
ATOM     23  H   UNL     1       2.912   2.528  18.774  0.00  0.00    +0.000 HD
ENDBRANCH   6  22
BRANCH  17  24
ATOM     24  O   UNL     1       5.366   7.024  15.279  0.00  0.00    +0.000 OA
ATOM     25  H   UNL     1       6.152   7.476  15.614  0.00  0.00    +0.000 HD
ENDBRANCH  17  24
TORSDOF 4
ENDMDL
MODEL 3
REMARK VINA RESULT:      -7.6      0.728      1.234
REMARK  Name = 
REMARK  6 active torsions:
REMARK  status: ('A' for Active; 'I' for Inactive)
REMARK    1  A    between atoms: C_1  and  O_2
REMARK    2  A    between atoms: O_2  and  C_3
REMARK    3  A    between atoms: C_3  and  C_5
REMARK    4  A    between atoms: C_10  and  O_11
REMARK    5  A    between atoms: C_16  and  C_17
REMARK    6  A    between atoms: C_22  and  O_23
REMARK                            x       y       z     vdW  Elec       q    Type
REMARK                         _______ _______ _______ _____ _____    ______ ____
ROOT
ATOM      1  C   UNL     1       5.142   4.927  17.062  0.00  0.00    +0.000 A 
ATOM      2  O   UNL     1       4.704   4.203  18.190  0.00  0.00    +0.000 OA
ATOM      3  C   UNL     1       3.805   4.717  19.068  0.00  0.00    +0.000 A 
ATOM      4  O   UNL     1       3.415   4.079  20.041  0.00  0.00    +0.000 OA
ATOM      5  C   UNL     1       3.306   6.095  18.831  0.00  0.00    +0.000 A 
ATOM      6  C   UNL     1       2.397   6.674  19.746  0.00  0.00    +0.000 A 
ATOM      7  C   UNL     1       1.917   7.977  19.540  0.00  0.00    +0.000 A 
ATOM      8  C   UNL     1       0.962   8.645  20.455  0.00  0.00    +0.000 A 
ATOM      9  O   UNL     1       0.497   8.147  21.471  0.00  0.00    +0.000 OA
ATOM     10  C   UNL     1       0.553  10.012  20.094  0.00  0.00    +0.000 A 
ATOM     11  C   UNL     1       1.046  10.589  18.989  0.00  0.00    +0.000 A 
ATOM     12  C   UNL     1       0.657  11.978  18.586  0.00  0.00    +0.000 C 
ATOM     13  O   UNL     1       1.939   9.970  18.131  0.00  0.00    +0.000 OA
ATOM     14  C   UNL     1       2.348   8.687  18.421  0.00  0.00    +0.000 A 
ATOM     15  C   UNL     1       3.245   8.111  17.511  0.00  0.00    +0.000 A 
ATOM     16  C   UNL     1       3.741   6.807  17.701  0.00  0.00    +0.000 A 
ATOM     17  C   UNL     1       4.691   6.161  16.776  0.00  0.00    +0.000 A 
ENDROOT
BRANCH   1  18
ATOM     18  C   UNL     1       6.158   4.259  16.191  0.00  0.00    +0.000 C 
ATOM     19  O   UNL     1       5.927   3.389  15.368  0.00  0.00    +0.000 OA
BRANCH  18  21
ATOM     20  C   UNL     1       7.851   4.591  17.762  0.00  0.00    +0.000 C 
ATOM     21  O   UNL     1       7.383   4.802  16.427  0.00  0.00    +0.000 OA
ENDBRANCH  18  21
ENDBRANCH   1  18
BRANCH   6  22
ATOM     22  O   UNL     1       1.965   5.988  20.852  0.00  0.00    +0.000 OA
ATOM     23  H   UNL     1       2.174   5.031  20.782  0.00  0.00    +0.000 HD
ENDBRANCH   6  22
BRANCH  17  24
ATOM     24  O   UNL     1       5.065   6.820  15.625  0.00  0.00    +0.000 OA
ATOM     25  H   UNL     1       5.840   6.420  15.209  0.00  0.00    +0.000 HD
ENDBRANCH  17  24
TORSDOF 4
ENDMDL
MODEL 4
REMARK VINA RESULT:      -7.5      2.362      4.135
REMARK  Name = 
REMARK  6 active torsions:
REMARK  status: ('A' for Active; 'I' for Inactive)
REMARK    1  A    between atoms: C_1  and  O_2
REMARK    2  A    between atoms: O_2  and  C_3
REMARK    3  A    between atoms: C_3  and  C_5
REMARK    4  A    between atoms: C_10  and  O_11
REMARK    5  A    between atoms: C_16  and  C_17
REMARK    6  A    between atoms: C_22  and  O_23
REMARK                            x       y       z     vdW  Elec       q    Type
REMARK                         _______ _______ _______ _____ _____    ______ ____
ROOT
ATOM      1  C   UNL     1       3.378   5.272  19.131  0.00  0.00    +0.000 A 
ATOM      2  O   UNL     1       3.613   5.993  17.941  0.00  0.00    +0.000 OA
ATOM      3  C   UNL     1       3.129   7.248  17.754  0.00  0.00    +0.000 A 
ATOM      4  O   UNL     1       3.348   7.878  16.724  0.00  0.00    +0.000 OA
ATOM      5  C   UNL     1       2.304   7.846  18.833  0.00  0.00    +0.000 A 
ATOM      6  C   UNL     1       1.753   9.136  18.656  0.00  0.00    +0.000 A 
ATOM      7  C   UNL     1       0.969   9.717  19.664  0.00  0.00    +0.000 A 
ATOM      8  C   UNL     1       0.363  11.065  19.547  0.00  0.00    +0.000 A 
ATOM      9  O   UNL     1       0.477  11.804  18.580  0.00  0.00    +0.000 OA
ATOM     10  C   UNL     1      -0.431  11.529  20.697  0.00  0.00    +0.000 A 
ATOM     11  C   UNL     1      -0.578  10.743  21.771  0.00  0.00    +0.000 A 
ATOM     12  C   UNL     1      -1.378  11.177  22.961  0.00  0.00    +0.000 C 
ATOM     13  O   UNL     1      -0.016   9.483  21.885  0.00  0.00    +0.000 OA
ATOM     14  C   UNL     1       0.742   9.004  20.839  0.00  0.00    +0.000 A 
ATOM     15  C   UNL     1       1.292   7.727  21.018  0.00  0.00    +0.000 A 
ATOM     16  C   UNL     1       2.080   7.125  20.018  0.00  0.00    +0.000 A 
ATOM     17  C   UNL     1       2.673   5.782  20.156  0.00  0.00    +0.000 A 
ENDROOT
BRANCH   1  18
ATOM     18  C   UNL     1       3.941   3.888  19.197  0.00  0.00    +0.000 C 
ATOM     19  O   UNL     1       5.124   3.606  19.282  0.00  0.00    +0.000 OA
BRANCH  18  21
ATOM     20  C   UNL     1       2.721   2.365  17.918  0.00  0.00    +0.000 C 
ATOM     21  O   UNL     1       2.922   2.986  19.190  0.00  0.00    +0.000 OA
ENDBRANCH  18  21
ENDBRANCH   1  18
BRANCH   6  22
ATOM     22  O   UNL     1       1.966   9.849  17.504  0.00  0.00    +0.000 OA
ATOM     23  H   UNL     1       2.619   9.401  16.923  0.00  0.00    +0.000 HD
ENDBRANCH   6  22
BRANCH  17  24
ATOM     24  O   UNL     1       2.524   5.098  21.342  0.00  0.00    +0.000 OA
ATOM     25  H   UNL     1       2.965   4.238  21.328  0.00  0.00    +0.000 HD
ENDBRANCH  17  24
TORSDOF 4
ENDMDL
MODEL 5
REMARK VINA RESULT:      -7.4      1.406      6.567
REMARK  Name = 
REMARK  6 active torsions:
REMARK  status: ('A' for Active; 'I' for Inactive)
REMARK    1  A    between atoms: C_1  and  O_2
REMARK    2  A    between atoms: O_2  and  C_3
REMARK    3  A    between atoms: C_3  and  C_5
REMARK    4  A    between atoms: C_10  and  O_11
REMARK    5  A    between atoms: C_16  and  C_17
REMARK    6  A    between atoms: C_22  and  O_23
REMARK                            x       y       z     vdW  Elec       q    Type
REMARK                         _______ _______ _______ _____ _____    ______ ____
ROOT
ATOM      1  C   UNL     1       1.004  10.149  19.296  0.00  0.00    +0.000 A 
ATOM      2  O   UNL     1       0.722   9.447  20.487  0.00  0.00    +0.000 OA
ATOM      3  C   UNL     1       1.219   8.207  20.724  0.00  0.00    +0.000 A 
ATOM      4  O   UNL     1       0.984   7.605  21.767  0.00  0.00    +0.000 OA
ATOM      5  C   UNL     1       2.056   7.576  19.673  0.00  0.00    +0.000 A 
ATOM      6  C   UNL     1       2.559   6.270  19.871  0.00  0.00    +0.000 A 
ATOM      7  C   UNL     1       3.350   5.657  18.887  0.00  0.00    +0.000 A 
ATOM      8  C   UNL     1       3.912   4.293  19.029  0.00  0.00    +0.000 A 
ATOM      9  O   UNL     1       3.753   3.565  20.000  0.00  0.00    +0.000 OA
ATOM     10  C   UNL     1       4.724   3.797  17.906  0.00  0.00    +0.000 A 
ATOM     11  C   UNL     1       4.916   4.568  16.827  0.00  0.00    +0.000 A 
ATOM     12  C   UNL     1       5.734   4.101  15.662  0.00  0.00    +0.000 C 
ATOM     13  O   UNL     1       4.392   5.842  16.688  0.00  0.00    +0.000 OA
ATOM     14  C   UNL     1       3.630   6.355  17.714  0.00  0.00    +0.000 A 
ATOM     15  C   UNL     1       3.136   7.652  17.519  0.00  0.00    +0.000 A 
ATOM     16  C   UNL     1       2.339   8.284  18.492  0.00  0.00    +0.000 A 
ATOM     17  C   UNL     1       1.789   9.643  18.330  0.00  0.00    +0.000 A 
ENDROOT
BRANCH   1  18
ATOM     18  C   UNL     1       0.369  11.494  19.146  0.00  0.00    +0.000 C 
ATOM     19  O   UNL     1       0.938  12.514  18.793  0.00  0.00    +0.000 OA
BRANCH  18  21
ATOM     20  C   UNL     1      -1.742  10.955  18.311  0.00  0.00    +0.000 C 
ATOM     21  O   UNL     1      -0.960  11.400  19.422  0.00  0.00    +0.000 OA
ENDBRANCH  18  21
ENDBRANCH   1  18
BRANCH   6  22
ATOM     22  O   UNL     1       2.290   5.570  21.020  0.00  0.00    +0.000 OA
ATOM     23  H   UNL     1       3.017   4.946  21.235  0.00  0.00    +0.000 HD
ENDBRANCH   6  22
BRANCH  17  24
ATOM     24  O   UNL     1       2.123  10.375  17.211  0.00  0.00    +0.000 OA
ATOM     25  H   UNL     1       2.897  10.017  16.756  0.00  0.00    +0.000 HD
ENDBRANCH  17  24
TORSDOF 4
ENDMDL
MODEL 6
REMARK VINA RESULT:      -7.4      2.368      4.161
REMARK  Name = 
REMARK  6 active torsions:
REMARK  status: ('A' for Active; 'I' for Inactive)
REMARK    1  A    between atoms: C_1  and  O_2
REMARK    2  A    between atoms: O_2  and  C_3
REMARK    3  A    between atoms: C_3  and  C_5
REMARK    4  A    between atoms: C_10  and  O_11
REMARK    5  A    between atoms: C_16  and  C_17
REMARK    6  A    between atoms: C_22  and  O_23
REMARK                            x       y       z     vdW  Elec       q    Type
REMARK                         _______ _______ _______ _____ _____    ______ ____
ROOT
ATOM      1  C   UNL     1       5.952   5.120  15.111  0.00  0.00    +0.000 A 
ATOM      2  O   UNL     1       5.535   6.461  15.237  0.00  0.00    +0.000 OA
ATOM      3  C   UNL     1       4.727   6.870  16.249  0.00  0.00    +0.000 A 
ATOM      4  O   UNL     1       4.379   8.041  16.364  0.00  0.00    +0.000 OA
ATOM      5  C   UNL     1       4.254   5.852  17.220  0.00  0.00    +0.000 A 
ATOM      6  C   UNL     1       3.381   6.237  18.264  0.00  0.00    +0.000 A 
ATOM      7  C   UNL     1       2.922   5.288  19.189  0.00  0.00    +0.000 A 
ATOM      8  C   UNL     1       2.008   5.620  20.309  0.00  0.00    +0.000 A 
ATOM      9  O   UNL     1       1.563   6.735  20.544  0.00  0.00    +0.000 OA
ATOM     10  C   UNL     1       1.623   4.509  21.193  0.00  0.00    +0.000 A 
ATOM     11  C   UNL     1       2.091   3.275  20.962  0.00  0.00    +0.000 A 
ATOM     12  C   UNL     1       1.722   2.116  21.837  0.00  0.00    +0.000 C 
ATOM     13  O   UNL     1       2.942   2.958  19.918  0.00  0.00    +0.000 OA
ATOM     14  C   UNL     1       3.338   3.964  19.064  0.00  0.00    +0.000 A 
ATOM     15  C   UNL     1       4.208   3.583  18.032  0.00  0.00    +0.000 A 
ATOM     16  C   UNL     1       4.679   4.519  17.091  0.00  0.00    +0.000 A 
ATOM     17  C   UNL     1       5.587   4.166  15.985  0.00  0.00    +0.000 A 
ENDROOT
BRANCH   1  18
ATOM     18  C   UNL     1       6.816   4.795  13.934  0.00  0.00    +0.000 C 
ATOM     19  O   UNL     1       7.820   5.402  13.601  0.00  0.00    +0.000 OA
BRANCH  18  21
ATOM     20  C   UNL     1       6.743   3.578  11.945  0.00  0.00    +0.000 C 
ATOM     21  O   UNL     1       6.333   3.687  13.311  0.00  0.00    +0.000 OA
ENDBRANCH  18  21
ENDBRANCH   1  18
BRANCH   6  22
ATOM     22  O   UNL     1       2.961   7.535  18.398  0.00  0.00    +0.000 OA
ATOM     23  H   UNL     1       3.330   7.946  19.210  0.00  0.00    +0.000 HD
ENDBRANCH   6  22
BRANCH  17  24
ATOM     24  O   UNL     1       6.071   2.879  15.895  0.00  0.00    +0.000 OA
ATOM     25  H   UNL     1       6.619   2.639  16.653  0.00  0.00    +0.000 HD
ENDBRANCH  17  24
TORSDOF 4
ENDMDL
MODEL 7
REMARK VINA RESULT:      -7.3      1.425      6.613
REMARK  Name = 
REMARK  6 active torsions:
REMARK  status: ('A' for Active; 'I' for Inactive)
REMARK    1  A    between atoms: C_1  and  O_2
REMARK    2  A    between atoms: O_2  and  C_3
REMARK    3  A    between atoms: C_3  and  C_5
REMARK    4  A    between atoms: C_10  and  O_11
REMARK    5  A    between atoms: C_16  and  C_17
REMARK    6  A    between atoms: C_22  and  O_23
REMARK                            x       y       z     vdW  Elec       q    Type
REMARK                         _______ _______ _______ _____ _____    ______ ____
ROOT
ATOM      1  C   UNL     1       1.036  10.223  19.271  0.00  0.00    +0.000 A 
ATOM      2  O   UNL     1       0.732   9.531  20.462  0.00  0.00    +0.000 OA
ATOM      3  C   UNL     1       1.206   8.283  20.708  0.00  0.00    +0.000 A 
ATOM      4  O   UNL     1       0.952   7.689  21.751  0.00  0.00    +0.000 OA
ATOM      5  C   UNL     1       2.039   7.634  19.665  0.00  0.00    +0.000 A 
ATOM      6  C   UNL     1       2.518   6.320  19.872  0.00  0.00    +0.000 A 
ATOM      7  C   UNL     1       3.305   5.689  18.897  0.00  0.00    +0.000 A 
ATOM      8  C   UNL     1       3.842   4.316  19.048  0.00  0.00    +0.000 A 
ATOM      9  O   UNL     1       3.663   3.595  20.020  0.00  0.00    +0.000 OA
ATOM     10  C   UNL     1       4.653   3.802  17.933  0.00  0.00    +0.000 A 
ATOM     11  C   UNL     1       4.867   4.565  16.852  0.00  0.00    +0.000 A 
ATOM     12  C   UNL     1       5.685   4.079  15.695  0.00  0.00    +0.000 C 
ATOM     13  O   UNL     1       4.367   5.847  16.704  0.00  0.00    +0.000 OA
ATOM     14  C   UNL     1       3.606   6.378  17.723  0.00  0.00    +0.000 A 
ATOM     15  C   UNL     1       3.136   7.683  17.519  0.00  0.00    +0.000 A 
ATOM     16  C   UNL     1       2.343   8.332  18.484  0.00  0.00    +0.000 A 
ATOM     17  C   UNL     1       1.819   9.700  18.312  0.00  0.00    +0.000 A 
ENDROOT
BRANCH   1  18
ATOM     18  C   UNL     1       0.426  11.579  19.111  0.00  0.00    +0.000 C 
ATOM     19  O   UNL     1      -0.769  11.822  19.087  0.00  0.00    +0.000 OA
BRANCH  18  21
ATOM     20  C   UNL     1       1.866  12.962  20.318  0.00  0.00    +0.000 C 
ATOM     21  O   UNL     1       1.412  12.513  19.038  0.00  0.00    +0.000 OA
ENDBRANCH  18  21
ENDBRANCH   1  18
BRANCH   6  22
ATOM     22  O   UNL     1       2.228   5.629  21.021  0.00  0.00    +0.000 OA
ATOM     23  H   UNL     1       3.025   5.525  21.585  0.00  0.00    +0.000 HD
ENDBRANCH   6  22
BRANCH  17  24
ATOM     24  O   UNL     1       2.174  10.422  17.194  0.00  0.00    +0.000 OA
ATOM     25  H   UNL     1       1.808  11.316  17.203  0.00  0.00    +0.000 HD
ENDBRANCH  17  24
TORSDOF 4
ENDMDL
MODEL 8
REMARK VINA RESULT:      -7.1      3.403      7.217
REMARK  Name = 
REMARK  6 active torsions:
REMARK  status: ('A' for Active; 'I' for Inactive)
REMARK    1  A    between atoms: C_1  and  O_2
REMARK    2  A    between atoms: O_2  and  C_3
REMARK    3  A    between atoms: C_3  and  C_5
REMARK    4  A    between atoms: C_10  and  O_11
REMARK    5  A    between atoms: C_16  and  C_17
REMARK    6  A    between atoms: C_22  and  O_23
REMARK                            x       y       z     vdW  Elec       q    Type
REMARK                         _______ _______ _______ _____ _____    ______ ____
ROOT
ATOM      1  C   UNL     1       4.033   4.605  19.104  0.00  0.00    +0.000 A 
ATOM      2  O   UNL     1       5.067   5.544  19.303  0.00  0.00    +0.000 OA
ATOM      3  C   UNL     1       5.946   5.863  18.318  0.00  0.00    +0.000 A 
ATOM      4  O   UNL     1       6.835   6.691  18.490  0.00  0.00    +0.000 OA
ATOM      5  C   UNL     1       5.815   5.169  17.013  0.00  0.00    +0.000 A 
ATOM      6  C   UNL     1       6.737   5.450  15.978  0.00  0.00    +0.000 A 
ATOM      7  C   UNL     1       6.631   4.801  14.739  0.00  0.00    +0.000 A 
ATOM      8  C   UNL     1       7.558   5.049  13.610  0.00  0.00    +0.000 A 
ATOM      9  O   UNL     1       8.500   5.829  13.632  0.00  0.00    +0.000 OA
ATOM     10  C   UNL     1       7.307   4.288  12.375  0.00  0.00    +0.000 A 
ATOM     11  C   UNL     1       6.286   3.423  12.317  0.00  0.00    +0.000 A 
ATOM     12  C   UNL     1       5.997   2.628  11.080  0.00  0.00    +0.000 C 
ATOM     13  O   UNL     1       5.417   3.186  13.368  0.00  0.00    +0.000 OA
ATOM     14  C   UNL     1       5.605   3.878  14.545  0.00  0.00    +0.000 A 
ATOM     15  C   UNL     1       4.688   3.602  15.569  0.00  0.00    +0.000 A 
ATOM     16  C   UNL     1       4.779   4.240  16.821  0.00  0.00    +0.000 A 
ATOM     17  C   UNL     1       3.844   3.978  17.931  0.00  0.00    +0.000 A 
ENDROOT
BRANCH   1  18
ATOM     18  C   UNL     1       3.153   4.321  20.280  0.00  0.00    +0.000 C 
ATOM     19  O   UNL     1       2.429   5.129  20.837  0.00  0.00    +0.000 OA
BRANCH  18  21
ATOM     20  C   UNL     1       2.209   2.557  21.480  0.00  0.00    +0.000 C 
ATOM     21  O   UNL     1       3.251   3.004  20.609  0.00  0.00    +0.000 OA
ENDBRANCH  18  21
ENDBRANCH   1  18
BRANCH   6  22
ATOM     22  O   UNL     1       7.752   6.355  16.155  0.00  0.00    +0.000 OA
ATOM     23  H   UNL     1       7.677   6.810  17.022  0.00  0.00    +0.000 HD
ENDBRANCH   6  22
BRANCH  17  24
ATOM     24  O   UNL     1       2.779   3.128  17.728  0.00  0.00    +0.000 OA
ATOM     25  H   UNL     1       2.005   3.587  17.376  0.00  0.00    +0.000 HD
ENDBRANCH  17  24
TORSDOF 4
ENDMDL
MODEL 9
REMARK VINA RESULT:      -7.1      2.139      4.037
REMARK  Name = 
REMARK  6 active torsions:
REMARK  status: ('A' for Active; 'I' for Inactive)
REMARK    1  A    between atoms: C_1  and  O_2
REMARK    2  A    between atoms: O_2  and  C_3
REMARK    3  A    between atoms: C_3  and  C_5
REMARK    4  A    between atoms: C_10  and  O_11
REMARK    5  A    between atoms: C_16  and  C_17
REMARK    6  A    between atoms: C_22  and  O_23
REMARK                            x       y       z     vdW  Elec       q    Type
REMARK                         _______ _______ _______ _____ _____    ______ ____
ROOT
ATOM      1  C   UNL     1       3.536   5.351  18.805  0.00  0.00    +0.000 A 
ATOM      2  O   UNL     1       3.695   6.135  17.643  0.00  0.00    +0.000 OA
ATOM      3  C   UNL     1       3.157   7.377  17.536  0.00  0.00    +0.000 A 
ATOM      4  O   UNL     1       3.309   8.063  16.529  0.00  0.00    +0.000 OA
ATOM      5  C   UNL     1       2.358   7.893  18.675  0.00  0.00    +0.000 A 
ATOM      6  C   UNL     1       1.753   9.167  18.582  0.00  0.00    +0.000 A 
ATOM      7  C   UNL     1       0.991   9.670  19.648  0.00  0.00    +0.000 A 
ATOM      8  C   UNL     1       0.331  10.997  19.621  0.00  0.00    +0.000 A 
ATOM      9  O   UNL     1       0.377  11.785  18.687  0.00  0.00    +0.000 OA
ATOM     10  C   UNL     1      -0.429  11.377  20.823  0.00  0.00    +0.000 A 
ATOM     11  C   UNL     1      -0.502  10.536  21.863  0.00  0.00    +0.000 A 
ATOM     12  C   UNL     1      -1.266  10.883  23.104  0.00  0.00    +0.000 C 
ATOM     13  O   UNL     1       0.110   9.295  21.894  0.00  0.00    +0.000 OA
ATOM     14  C   UNL     1       0.840   8.894  20.796  0.00  0.00    +0.000 A 
ATOM     15  C   UNL     1       1.444   7.632  20.891  0.00  0.00    +0.000 A 
ATOM     16  C   UNL     1       2.210   7.109  19.832  0.00  0.00    +0.000 A 
ATOM     17  C   UNL     1       2.858   5.785  19.880  0.00  0.00    +0.000 A 
ENDROOT
BRANCH   1  18
ATOM     18  C   UNL     1       4.152   3.988  18.781  0.00  0.00    +0.000 C 
ATOM     19  O   UNL     1       3.716   3.022  18.178  0.00  0.00    +0.000 OA
BRANCH  18  21
ATOM     20  C   UNL     1       6.306   4.866  18.965  0.00  0.00    +0.000 C 
ATOM     21  O   UNL     1       5.304   4.000  19.505  0.00  0.00    +0.000 OA
ENDBRANCH  18  21
ENDBRANCH   1  18
BRANCH   6  22
ATOM     22  O   UNL     1       1.890   9.941  17.458  0.00  0.00    +0.000 OA
ATOM     23  H   UNL     1       1.925  10.896  17.686  0.00  0.00    +0.000 HD
ENDBRANCH   6  22
BRANCH  17  24
ATOM     24  O   UNL     1       2.784   5.041  21.038  0.00  0.00    +0.000 OA
ATOM     25  H   UNL     1       2.482   5.564  21.792  0.00  0.00    +0.000 HD
ENDBRANCH  17  24
TORSDOF 4
ENDMDL
