MODEL 1
REMARK VINA RESULT:      -5.6      0.000      0.000
REMARK  Name = 
REMARK  4 active torsions:
REMARK  status: ('A' for Active; 'I' for Inactive)
REMARK    1  A    between atoms: C_2  and  O_3
REMARK    2  A    between atoms: C_2  and  C_4
REMARK    3  A    between atoms: C_4  and  O_5
REMARK    4  A    between atoms: C_4  and  C_6
REMARK                            x       y       z     vdW  Elec       q    Type
REMARK                         _______ _______ _______ _____ _____    ______ ____
ROOT
ATOM      1  C   UNL     1       7.173   5.021  17.213  0.00  0.00    +0.000 C 
ENDROOT
BRANCH   1   2
ATOM      2  C   UNL     1       5.826   4.468  17.624  0.00  0.00    +0.000 A 
ATOM      3  C   UNL     1       5.467   4.412  18.979  0.00  0.00    +0.000 A 
ATOM      4  C   UNL     1       4.196   3.973  19.364  0.00  0.00    +0.000 A 
ATOM      5  C   UNL     1       3.275   3.584  18.394  0.00  0.00    +0.000 A 
ATOM      6  I   UNL     1       1.376   2.961  18.963  0.00  0.00    +0.000 I 
ATOM      7  C   UNL     1       3.618   3.621  17.043  0.00  0.00    +0.000 A 
ATOM      8  C   UNL     1       4.887   4.061  16.660  0.00  0.00    +0.000 A 
ENDBRANCH   1   2
BRANCH   1  10
ATOM      9  O   UNL     1       8.074   6.731  18.699  0.00  0.00    +0.000 OA
ATOM     10  C   UNL     1       7.430   6.462  17.688  0.00  0.00    +0.000 C 
BRANCH  10  11
ATOM     11  O   UNL     1       6.908   7.432  16.899  0.00  0.00    +0.000 OA
ATOM     12  H   UNL     1       6.766   7.163  15.968  0.00  0.00    +0.000 HD
ENDBRANCH  10  11
ENDBRANCH   1  10
BRANCH   1  13
ATOM     13  O   UNL     1       8.161   4.093  17.653  0.00  0.00    +0.000 OA
ATOM     14  H   UNL     1       8.137   4.103  18.628  0.00  0.00    +0.000 HD
ENDBRANCH   1  13
TORSDOF 4
ENDMDL
MODEL 2
REMARK VINA RESULT:      -5.6      1.667      2.065
REMARK  Name = 
REMARK  4 active torsions:
REMARK  status: ('A' for Active; 'I' for Inactive)
REMARK    1  A    between atoms: C_2  and  O_3
REMARK    2  A    between atoms: C_2  and  C_4
REMARK    3  A    between atoms: C_4  and  O_5
REMARK    4  A    between atoms: C_4  and  C_6
REMARK                            x       y       z     vdW  Elec       q    Type
REMARK                         _______ _______ _______ _____ _____    ______ ____
ROOT
ATOM      1  C   UNL     1       6.720   4.231  16.290  0.00  0.00    +0.000 C 
ENDROOT
BRANCH   1   2
ATOM      2  C   UNL     1       5.601   4.303  17.306  0.00  0.00    +0.000 A 
ATOM      3  C   UNL     1       5.746   5.085  18.463  0.00  0.00    +0.000 A 
ATOM      4  C   UNL     1       4.691   5.219  19.371  0.00  0.00    +0.000 A 
ATOM      5  C   UNL     1       3.482   4.569  19.128  0.00  0.00    +0.000 A 
ATOM      6  I   UNL     1       1.904   4.792  20.461  0.00  0.00    +0.000 I 
ATOM      7  C   UNL     1       3.324   3.778  17.991  0.00  0.00    +0.000 A 
ATOM      8  C   UNL     1       4.378   3.646  17.084  0.00  0.00    +0.000 A 
ENDBRANCH   1   2
BRANCH   1  10
ATOM      9  O   UNL     1       5.737   6.127  15.114  0.00  0.00    +0.000 OA
ATOM     10  C   UNL     1       6.682   5.352  15.236  0.00  0.00    +0.000 C 
BRANCH  10  11
ATOM     11  O   UNL     1       7.782   5.443  14.450  0.00  0.00    +0.000 OA
ATOM     12  H   UNL     1       7.845   4.750  13.761  0.00  0.00    +0.000 HD
ENDBRANCH  10  11
ENDBRANCH   1  10
BRANCH   1  13
ATOM     13  O   UNL     1       7.945   4.173  17.016  0.00  0.00    +0.000 OA
ATOM     14  H   UNL     1       8.530   3.568  16.523  0.00  0.00    +0.000 HD
ENDBRANCH   1  13
TORSDOF 4
ENDMDL
MODEL 3
REMARK VINA RESULT:      -5.6      1.596      2.349
REMARK  Name = 
REMARK  4 active torsions:
REMARK  status: ('A' for Active; 'I' for Inactive)
REMARK    1  A    between atoms: C_2  and  O_3
REMARK    2  A    between atoms: C_2  and  C_4
REMARK    3  A    between atoms: C_4  and  O_5
REMARK    4  A    between atoms: C_4  and  C_6
REMARK                            x       y       z     vdW  Elec       q    Type
REMARK                         _______ _______ _______ _____ _____    ______ ____
ROOT
ATOM      1  C   UNL     1       6.611   4.312  16.407  0.00  0.00    +0.000 C 
ENDROOT
BRANCH   1   2
ATOM      2  C   UNL     1       5.417   4.376  17.335  0.00  0.00    +0.000 A 
ATOM      3  C   UNL     1       4.251   3.653  17.039  0.00  0.00    +0.000 A 
ATOM      4  C   UNL     1       3.170   3.646  17.927  0.00  0.00    +0.000 A 
ATOM      5  C   UNL     1       3.249   4.363  19.118  0.00  0.00    +0.000 A 
ATOM      6  I   UNL     1       1.656   4.328  20.452  0.00  0.00    +0.000 I 
ATOM      7  C   UNL     1       4.394   5.097  19.424  0.00  0.00    +0.000 A 
ATOM      8  C   UNL     1       5.473   5.104  18.537  0.00  0.00    +0.000 A 
ENDBRANCH   1   2
BRANCH   1  10
ATOM      9  O   UNL     1       5.706   6.210  15.176  0.00  0.00    +0.000 OA
ATOM     10  C   UNL     1       6.610   5.389  15.309  0.00  0.00    +0.000 C 
BRANCH  10  11
ATOM     11  O   UNL     1       7.694   5.387  14.497  0.00  0.00    +0.000 OA
ATOM     12  H   UNL     1       8.337   4.672  14.683  0.00  0.00    +0.000 HD
ENDBRANCH  10  11
ENDBRANCH   1  10
BRANCH   1  13
ATOM     13  O   UNL     1       7.779   4.331  17.223  0.00  0.00    +0.000 OA
ATOM     14  H   UNL     1       7.599   4.957  17.950  0.00  0.00    +0.000 HD
ENDBRANCH   1  13
TORSDOF 4
ENDMDL
MODEL 4
REMARK VINA RESULT:      -5.5      1.697      2.376
REMARK  Name = 
REMARK  4 active torsions:
REMARK  status: ('A' for Active; 'I' for Inactive)
REMARK    1  A    between atoms: C_2  and  O_3
REMARK    2  A    between atoms: C_2  and  C_4
REMARK    3  A    between atoms: C_4  and  O_5
REMARK    4  A    between atoms: C_4  and  C_6
REMARK                            x       y       z     vdW  Elec       q    Type
REMARK                         _______ _______ _______ _____ _____    ______ ____
ROOT
ATOM      1  C   UNL     1       5.635   6.391  16.484  0.00  0.00    +0.000 C 
ENDROOT
BRANCH   1   2
ATOM      2  C   UNL     1       4.526   5.513  17.025  0.00  0.00    +0.000 A 
ATOM      3  C   UNL     1       4.518   4.137  16.753  0.00  0.00    +0.000 A 
ATOM      4  C   UNL     1       3.541   3.305  17.310  0.00  0.00    +0.000 A 
ATOM      5  C   UNL     1       2.565   3.846  18.144  0.00  0.00    +0.000 A 
ATOM      6  I   UNL     1       1.132   2.606  18.997  0.00  0.00    +0.000 I 
ATOM      7  C   UNL     1       2.551   5.213  18.416  0.00  0.00    +0.000 A 
ATOM      8  C   UNL     1       3.527   6.043  17.860  0.00  0.00    +0.000 A 
ENDBRANCH   1   2
BRANCH   1  10
ATOM      9  O   UNL     1       7.673   5.494  17.474  0.00  0.00    +0.000 OA
ATOM     10  C   UNL     1       7.016   5.713  16.459  0.00  0.00    +0.000 C 
BRANCH  10  11
ATOM     11  O   UNL     1       7.460   5.351  15.232  0.00  0.00    +0.000 OA
ATOM     12  H   UNL     1       7.038   5.833  14.491  0.00  0.00    +0.000 HD
ENDBRANCH  10  11
ENDBRANCH   1  10
BRANCH   1  13
ATOM     13  O   UNL     1       5.210   6.865  15.209  0.00  0.00    +0.000 OA
ATOM     14  H   UNL     1       5.399   6.151  14.571  0.00  0.00    +0.000 HD
ENDBRANCH   1  13
TORSDOF 4
ENDMDL
MODEL 5
REMARK VINA RESULT:      -5.5      1.088      1.243
REMARK  Name = 
REMARK  4 active torsions:
REMARK  status: ('A' for Active; 'I' for Inactive)
REMARK    1  A    between atoms: C_2  and  O_3
REMARK    2  A    between atoms: C_2  and  C_4
REMARK    3  A    between atoms: C_4  and  O_5
REMARK    4  A    between atoms: C_4  and  C_6
REMARK                            x       y       z     vdW  Elec       q    Type
REMARK                         _______ _______ _______ _____ _____    ______ ____
ROOT
ATOM      1  C   UNL     1       6.666   4.575  16.978  0.00  0.00    +0.000 C 
ENDROOT
BRANCH   1   2
ATOM      2  C   UNL     1       5.400   4.326  17.769  0.00  0.00    +0.000 A 
ATOM      3  C   UNL     1       5.191   4.979  18.993  0.00  0.00    +0.000 A 
ATOM      4  C   UNL     1       3.992   4.814  19.695  0.00  0.00    +0.000 A 
ATOM      5  C   UNL     1       2.994   3.994  19.175  0.00  0.00    +0.000 A 
ATOM      6  I   UNL     1       1.200   3.773  20.201  0.00  0.00    +0.000 I 
ATOM      7  C   UNL     1       3.188   3.327  17.966  0.00  0.00    +0.000 A 
ATOM      8  C   UNL     1       4.386   3.493  17.266  0.00  0.00    +0.000 A 
ENDBRANCH   1   2
BRANCH   1  10
ATOM      9  O   UNL     1       7.684   6.763  16.633  0.00  0.00    +0.000 OA
ATOM     10  C   UNL     1       6.764   5.989  16.379  0.00  0.00    +0.000 C 
BRANCH  10  11
ATOM     11  O   UNL     1       5.766   6.327  15.528  0.00  0.00    +0.000 OA
ATOM     12  H   UNL     1       6.041   6.397  14.590  0.00  0.00    +0.000 HD
ENDBRANCH  10  11
ENDBRANCH   1  10
BRANCH   1  13
ATOM     13  O   UNL     1       7.763   4.238  17.823  0.00  0.00    +0.000 OA
ATOM     14  H   UNL     1       7.716   4.838  18.591  0.00  0.00    +0.000 HD
ENDBRANCH   1  13
TORSDOF 4
ENDMDL
MODEL 6
REMARK VINA RESULT:      -5.5      1.543      2.308
REMARK  Name = 
REMARK  4 active torsions:
REMARK  status: ('A' for Active; 'I' for Inactive)
REMARK    1  A    between atoms: C_2  and  O_3
REMARK    2  A    between atoms: C_2  and  C_4
REMARK    3  A    between atoms: C_4  and  O_5
REMARK    4  A    between atoms: C_4  and  C_6
REMARK                            x       y       z     vdW  Elec       q    Type
REMARK                         _______ _______ _______ _____ _____    ______ ____
ROOT
ATOM      1  C   UNL     1       5.995   6.050  16.427  0.00  0.00    +0.000 C 
ENDROOT
BRANCH   1   2
ATOM      2  C   UNL     1       4.940   5.268  17.180  0.00  0.00    +0.000 A 
ATOM      3  C   UNL     1       4.458   5.735  18.412  0.00  0.00    +0.000 A 
ATOM      4  C   UNL     1       3.431   5.061  19.079  0.00  0.00    +0.000 A 
ATOM      5  C   UNL     1       2.878   3.912  18.517  0.00  0.00    +0.000 A 
ATOM      6  I   UNL     1       1.330   2.926  19.492  0.00  0.00    +0.000 I 
ATOM      7  C   UNL     1       3.352   3.426  17.299  0.00  0.00    +0.000 A 
ATOM      8  C   UNL     1       4.378   4.101  16.633  0.00  0.00    +0.000 A 
ENDBRANCH   1   2
BRANCH   1  10
ATOM      9  O   UNL     1       7.497   5.159  14.727  0.00  0.00    +0.000 OA
ATOM     10  C   UNL     1       7.161   5.191  15.909  0.00  0.00    +0.000 C 
BRANCH  10  11
ATOM     11  O   UNL     1       7.817   4.476  16.854  0.00  0.00    +0.000 OA
ATOM     12  H   UNL     1       7.268   4.228  17.627  0.00  0.00    +0.000 HD
ENDBRANCH  10  11
ENDBRANCH   1  10
BRANCH   1  13
ATOM     13  O   UNL     1       5.326   6.780  15.402  0.00  0.00    +0.000 OA
ATOM     14  H   UNL     1       4.816   6.128  14.885  0.00  0.00    +0.000 HD
ENDBRANCH   1  13
TORSDOF 4
ENDMDL
MODEL 7
REMARK VINA RESULT:      -5.5      4.543      5.634
REMARK  Name = 
REMARK  4 active torsions:
REMARK  status: ('A' for Active; 'I' for Inactive)
REMARK    1  A    between atoms: C_2  and  O_3
REMARK    2  A    between atoms: C_2  and  C_4
REMARK    3  A    between atoms: C_4  and  O_5
REMARK    4  A    between atoms: C_4  and  C_6
REMARK                            x       y       z     vdW  Elec       q    Type
REMARK                         _______ _______ _______ _____ _____    ______ ____
ROOT
ATOM      1  C   UNL     1       1.959   2.100  19.607  0.00  0.00    +0.000 C 
ENDROOT
BRANCH   1   2
ATOM      2  C   UNL     1       3.079   2.834  18.902  0.00  0.00    +0.000 A 
ATOM      3  C   UNL     1       2.998   3.095  17.526  0.00  0.00    +0.000 A 
ATOM      4  C   UNL     1       3.992   3.837  16.880  0.00  0.00    +0.000 A 
ATOM      5  C   UNL     1       5.075   4.324  17.609  0.00  0.00    +0.000 A 
ATOM      6  I   UNL     1       6.536   5.454  16.657  0.00  0.00    +0.000 I 
ATOM      7  C   UNL     1       5.179   4.065  18.974  0.00  0.00    +0.000 A 
ATOM      8  C   UNL     1       4.185   3.323  19.619  0.00  0.00    +0.000 A 
ENDBRANCH   1   2
BRANCH   1  10
ATOM      9  O   UNL     1       1.581   2.598  21.962  0.00  0.00    +0.000 OA
ATOM     10  C   UNL     1       1.347   2.873  20.788  0.00  0.00    +0.000 C 
BRANCH  10  11
ATOM     11  O   UNL     1       0.539   3.905  20.447  0.00  0.00    +0.000 OA
ATOM     12  H   UNL     1       0.467   4.061  19.482  0.00  0.00    +0.000 HD
ENDBRANCH  10  11
ENDBRANCH   1  10
BRANCH   1  13
ATOM     13  O   UNL     1       1.006   1.733  18.612  0.00  0.00    +0.000 OA
ATOM     14  H   UNL     1       0.912   0.763  18.663  0.00  0.00    +0.000 HD
ENDBRANCH   1  13
TORSDOF 4
ENDMDL
MODEL 8
REMARK VINA RESULT:      -5.5      1.759      2.320
REMARK  Name = 
REMARK  4 active torsions:
REMARK  status: ('A' for Active; 'I' for Inactive)
REMARK    1  A    between atoms: C_2  and  O_3
REMARK    2  A    between atoms: C_2  and  C_4
REMARK    3  A    between atoms: C_4  and  O_5
REMARK    4  A    between atoms: C_4  and  C_6
REMARK                            x       y       z     vdW  Elec       q    Type
REMARK                         _______ _______ _______ _____ _____    ______ ____
ROOT
ATOM      1  C   UNL     1       5.696   5.352  15.739  0.00  0.00    +0.000 C 
ENDROOT
BRANCH   1   2
ATOM      2  C   UNL     1       4.631   5.042  16.769  0.00  0.00    +0.000 A 
ATOM      3  C   UNL     1       4.217   3.718  16.981  0.00  0.00    +0.000 A 
ATOM      4  C   UNL     1       3.289   3.412  17.982  0.00  0.00    +0.000 A 
ATOM      5  C   UNL     1       2.767   4.430  18.777  0.00  0.00    +0.000 A 
ATOM      6  I   UNL     1       1.412   3.972  20.284  0.00  0.00    +0.000 I 
ATOM      7  C   UNL     1       3.158   5.752  18.573  0.00  0.00    +0.000 A 
ATOM      8  C   UNL     1       4.085   6.057  17.573  0.00  0.00    +0.000 A 
ENDBRANCH   1   2
BRANCH   1  10
ATOM      9  O   UNL     1       7.564   6.686  16.558  0.00  0.00    +0.000 OA
ATOM     10  C   UNL     1       7.098   5.572  16.334  0.00  0.00    +0.000 C 
BRANCH  10  11
ATOM     11  O   UNL     1       7.789   4.442  16.617  0.00  0.00    +0.000 OA
ATOM     12  H   UNL     1       7.528   3.663  16.083  0.00  0.00    +0.000 HD
ENDBRANCH  10  11
ENDBRANCH   1  10
BRANCH   1  13
ATOM     13  O   UNL     1       5.648   4.317  14.760  0.00  0.00    +0.000 OA
ATOM     14  H   UNL     1       6.568   4.164  14.474  0.00  0.00    +0.000 HD
ENDBRANCH   1  13
TORSDOF 4
ENDMDL
MODEL 9
REMARK VINA RESULT:      -5.5      1.422      2.043
REMARK  Name = 
REMARK  4 active torsions:
REMARK  status: ('A' for Active; 'I' for Inactive)
REMARK    1  A    between atoms: C_2  and  O_3
REMARK    2  A    between atoms: C_2  and  C_4
REMARK    3  A    between atoms: C_4  and  O_5
REMARK    4  A    between atoms: C_4  and  C_6
REMARK                            x       y       z     vdW  Elec       q    Type
REMARK                         _______ _______ _______ _____ _____    ______ ____
ROOT
ATOM      1  C   UNL     1       6.111   5.909  16.726  0.00  0.00    +0.000 C 
ENDROOT
BRANCH   1   2
ATOM      2  C   UNL     1       5.009   5.239  17.518  0.00  0.00    +0.000 A 
ATOM      3  C   UNL     1       4.798   5.579  18.864  0.00  0.00    +0.000 A 
ATOM      4  C   UNL     1       3.736   5.022  19.583  0.00  0.00    +0.000 A 
ATOM      5  C   UNL     1       2.877   4.119  18.960  0.00  0.00    +0.000 A 
ATOM      6  I   UNL     1       1.279   3.315  20.018  0.00  0.00    +0.000 I 
ATOM      7  C   UNL     1       3.078   3.760  17.628  0.00  0.00    +0.000 A 
ATOM      8  C   UNL     1       4.139   4.318  16.910  0.00  0.00    +0.000 A 
ENDBRANCH   1   2
BRANCH   1  10
ATOM      9  O   UNL     1       7.945   4.360  17.153  0.00  0.00    +0.000 OA
ATOM     10  C   UNL     1       7.261   4.966  16.331  0.00  0.00    +0.000 C 
BRANCH  10  11
ATOM     11  O   UNL     1       7.464   4.828  14.999  0.00  0.00    +0.000 OA
ATOM     12  H   UNL     1       6.688   4.491  14.505  0.00  0.00    +0.000 HD
ENDBRANCH  10  11
ENDBRANCH   1  10
BRANCH   1  13
ATOM     13  O   UNL     1       5.497   6.555  15.614  0.00  0.00    +0.000 OA
ATOM     14  H   UNL     1       4.538   6.565  15.794  0.00  0.00    +0.000 HD
ENDBRANCH   1  13
TORSDOF 4
ENDMDL
