MODEL 1
REMARK VINA RESULT:      -9.5      0.000      0.000
REMARK  Name = 
REMARK  9 active torsions:
REMARK  status: ('A' for Active; 'I' for Inactive)
REMARK    1  A    between atoms: C_1  and  C_2
REMARK    2  A    between atoms: C_2  and  C_3
REMARK    3  A    between atoms: C_3  and  C_4
REMARK    4  A    between atoms: N_12  and  C_13
REMARK    5  A    between atoms: C_13  and  C_16
REMARK    6  A    between atoms: C_16  and  O_17
REMARK    7  A    between atoms: C_16  and  C_18
REMARK    8  A    between atoms: C_21  and  C_22
REMARK    9  A    between atoms: C_27  and  C_28
REMARK                            x       y       z     vdW  Elec       q    Type
REMARK                         _______ _______ _______ _____ _____    ______ ____
ROOT
ATOM      1  C   UNL     1       3.657   6.905  17.954  0.00  0.00    +0.000 C 
ENDROOT
BRANCH   1   2
ATOM      2  C   UNL     1       2.594   7.839  18.511  0.00  0.00    +0.000 A 
ATOM      3  C   UNL     1       2.145   8.902  17.722  0.00  0.00    +0.000 A 
ATOM      4  C   UNL     1       1.194   9.807  18.208  0.00  0.00    +0.000 A 
ATOM      5  C   UNL     1       0.707   9.735  19.522  0.00  0.00    +0.000 A 
ATOM      6  C   UNL     1       1.132   8.633  20.283  0.00  0.00    +0.000 A 
ATOM      7  C   UNL     1       2.031   7.687  19.781  0.00  0.00    +0.000 A 
BRANCH   5   8
ATOM      8  C   UNL     1      -0.222  10.751  20.102  0.00  0.00    +0.000 A 
ATOM      9  C   UNL     1       0.090  11.280  21.380  0.00  0.00    +0.000 A 
ATOM     10  C   UNL     1      -0.707  12.229  22.013  0.00  0.00    +0.000 A 
ATOM     11  C   UNL     1      -1.856  12.682  21.390  0.00  0.00    +0.000 A 
ATOM     12  C   UNL     1      -2.201  12.192  20.132  0.00  0.00    +0.000 A 
ATOM     13  C   UNL     1      -1.401  11.239  19.464  0.00  0.00    +0.000 A 
BRANCH  13  14
ATOM     14  C   UNL     1      -1.840  10.797  18.141  0.00  0.00    +0.000 A 
ATOM     15  N   UNL     1      -2.370   9.647  17.779  0.00  0.00    +0.000 NA
ATOM     16  N   UNL     1      -2.736   9.774  16.458  0.00  0.00    +0.000 NA
ATOM     17  N   UNL     1      -2.391  10.962  15.987  0.00  0.00    +0.000 NA
ATOM     18  N   UNL     1      -1.806  11.585  17.018  0.00  0.00    +0.000 N 
ATOM     19  H   UNL     1      -1.451  12.523  16.899  0.00  0.00    +0.000 HD
ENDBRANCH  13  14
ENDBRANCH   5   8
ENDBRANCH   1   2
BRANCH   1  20
ATOM     20  C   UNL     1       3.174   5.450  17.667  0.00  0.00    +0.000 C 
ATOM     21  F   UNL     1       3.672   5.051  16.454  0.00  0.00    +0.000 F 
ATOM     22  F   UNL     1       1.818   5.442  17.510  0.00  0.00    +0.000 F 
BRANCH  20  31
ATOM     23  C   UNL     1       4.850   4.076  18.972  0.00  0.00    +0.000 A 
ATOM     24  N   UNL     1       4.850   3.249  19.999  0.00  0.00    +0.000 NA
ATOM     25  C   UNL     1       3.542   3.137  20.399  0.00  0.00    +0.000 A 
ATOM     26  C   UNL     1       2.988   2.385  21.444  0.00  0.00    +0.000 A 
ATOM     27  C   UNL     1       1.603   2.428  21.653  0.00  0.00    +0.000 A 
ATOM     28  C   UNL     1       0.785   3.203  20.835  0.00  0.00    +0.000 A 
ATOM     29  C   UNL     1       1.320   3.960  19.788  0.00  0.00    +0.000 A 
ATOM     30  C   UNL     1       2.708   3.907  19.600  0.00  0.00    +0.000 A 
ATOM     31  N   UNL     1       3.568   4.511  18.701  0.00  0.00    +0.000 N 
BRANCH  23  32
ATOM     32  C   UNL     1       6.070   4.457  18.190  0.00  0.00    +0.000 C 
BRANCH  32  34
ATOM     33  C   UNL     1       7.431   6.558  17.950  0.00  0.00    +0.000 C 
ATOM     34  C   UNL     1       6.923   5.499  18.915  0.00  0.00    +0.000 C 
ENDBRANCH  32  34
ENDBRANCH  23  32
ENDBRANCH  20  31
ENDBRANCH   1  20
BRANCH   1  35
ATOM     35  O   UNL     1       4.215   7.545  16.795  0.00  0.00    +0.000 OA
ATOM     36  H   UNL     1       4.531   8.423  17.076  0.00  0.00    +0.000 HD
ENDBRANCH   1  35
TORSDOF 8
ENDMDL
MODEL 2
REMARK VINA RESULT:      -9.0      2.860      8.712
REMARK  Name = 
REMARK  9 active torsions:
REMARK  status: ('A' for Active; 'I' for Inactive)
REMARK    1  A    between atoms: C_1  and  C_2
REMARK    2  A    between atoms: C_2  and  C_3
REMARK    3  A    between atoms: C_3  and  C_4
REMARK    4  A    between atoms: N_12  and  C_13
REMARK    5  A    between atoms: C_13  and  C_16
REMARK    6  A    between atoms: C_16  and  O_17
REMARK    7  A    between atoms: C_16  and  C_18
REMARK    8  A    between atoms: C_21  and  C_22
REMARK    9  A    between atoms: C_27  and  C_28
REMARK                            x       y       z     vdW  Elec       q    Type
REMARK                         _______ _______ _______ _____ _____    ______ ____
ROOT
ATOM      1  C   UNL     1       0.714   9.753  20.536  0.00  0.00    +0.000 C 
ENDROOT
BRANCH   1   2
ATOM      2  C   UNL     1       1.484   8.753  19.688  0.00  0.00    +0.000 A 
ATOM      3  C   UNL     1       1.930   7.565  20.277  0.00  0.00    +0.000 A 
ATOM      4  C   UNL     1       2.672   6.633  19.543  0.00  0.00    +0.000 A 
ATOM      5  C   UNL     1       3.064   6.876  18.218  0.00  0.00    +0.000 A 
ATOM      6  C   UNL     1       2.567   8.050  17.628  0.00  0.00    +0.000 A 
ATOM      7  C   UNL     1       1.769   8.955  18.335  0.00  0.00    +0.000 A 
BRANCH   5   8
ATOM      8  C   UNL     1       3.948   5.950  17.449  0.00  0.00    +0.000 A 
ATOM      9  C   UNL     1       5.083   6.503  16.801  0.00  0.00    +0.000 A 
ATOM     10  C   UNL     1       5.971   5.733  16.058  0.00  0.00    +0.000 A 
ATOM     11  C   UNL     1       5.752   4.372  15.928  0.00  0.00    +0.000 A 
ATOM     12  C   UNL     1       4.653   3.785  16.549  0.00  0.00    +0.000 A 
ATOM     13  C   UNL     1       3.745   4.544  17.320  0.00  0.00    +0.000 A 
BRANCH  13  14
ATOM     14  C   UNL     1       2.631   3.832  17.943  0.00  0.00    +0.000 A 
ATOM     15  N   UNL     1       1.371   3.760  17.565  0.00  0.00    +0.000 NA
ATOM     16  N   UNL     1       0.753   2.860  18.404  0.00  0.00    +0.000 NA
ATOM     17  N   UNL     1       1.596   2.421  19.324  0.00  0.00    +0.000 NA
ATOM     18  N   UNL     1       2.750   3.046  19.062  0.00  0.00    +0.000 N 
ATOM     19  H   UNL     1       3.557   2.871  19.644  0.00  0.00    +0.000 HD
ENDBRANCH  13  14
ENDBRANCH   5   8
ENDBRANCH   1   2
BRANCH   1  20
ATOM     20  C   UNL     1       0.511  11.155  19.884  0.00  0.00    +0.000 C 
ATOM     21  F   UNL     1       1.210  11.199  18.706  0.00  0.00    +0.000 F 
ATOM     22  F   UNL     1       1.087  12.111  20.670  0.00  0.00    +0.000 F 
BRANCH  20  31
ATOM     23  C   UNL     1      -1.693  12.267  20.433  0.00  0.00    +0.000 A 
ATOM     24  N   UNL     1      -2.898  12.365  19.906  0.00  0.00    +0.000 NA
ATOM     25  C   UNL     1      -2.876  11.613  18.759  0.00  0.00    +0.000 A 
ATOM     26  C   UNL     1      -3.893  11.378  17.823  0.00  0.00    +0.000 A 
ATOM     27  C   UNL     1      -3.627  10.554  16.722  0.00  0.00    +0.000 A 
ATOM     28  C   UNL     1      -2.373   9.973  16.556  0.00  0.00    +0.000 A 
ATOM     29  C   UNL     1      -1.346  10.196  17.478  0.00  0.00    +0.000 A 
ATOM     30  C   UNL     1      -1.632  11.027  18.570  0.00  0.00    +0.000 A 
ATOM     31  N   UNL     1      -0.885  11.470  19.647  0.00  0.00    +0.000 N 
BRANCH  23  32
ATOM     32  C   UNL     1      -1.279  12.903  21.725  0.00  0.00    +0.000 C 
BRANCH  32  34
ATOM     33  C   UNL     1      -2.948  12.162  23.455  0.00  0.00    +0.000 C 
ATOM     34  C   UNL     1      -1.532  11.992  22.928  0.00  0.00    +0.000 C 
ENDBRANCH  32  34
ENDBRANCH  23  32
ENDBRANCH  20  31
ENDBRANCH   1  20
BRANCH   1  35
ATOM     35  O   UNL     1      -0.524   9.126  20.908  0.00  0.00    +0.000 OA
ATOM     36  H   UNL     1      -1.128   9.834  21.200  0.00  0.00    +0.000 HD
ENDBRANCH   1  35
TORSDOF 8
ENDMDL
MODEL 3
REMARK VINA RESULT:      -8.6      2.818      8.789
REMARK  Name = 
REMARK  9 active torsions:
REMARK  status: ('A' for Active; 'I' for Inactive)
REMARK    1  A    between atoms: C_1  and  C_2
REMARK    2  A    between atoms: C_2  and  C_3
REMARK    3  A    between atoms: C_3  and  C_4
REMARK    4  A    between atoms: N_12  and  C_13
REMARK    5  A    between atoms: C_13  and  C_16
REMARK    6  A    between atoms: C_16  and  O_17
REMARK    7  A    between atoms: C_16  and  C_18
REMARK    8  A    between atoms: C_21  and  C_22
REMARK    9  A    between atoms: C_27  and  C_28
REMARK                            x       y       z     vdW  Elec       q    Type
REMARK                         _______ _______ _______ _____ _____    ______ ____
ROOT
ATOM      1  C   UNL     1       0.974   9.859  20.949  0.00  0.00    +0.000 C 
ENDROOT
BRANCH   1   2
ATOM      2  C   UNL     1       1.603   8.836  20.015  0.00  0.00    +0.000 A 
ATOM      3  C   UNL     1       1.979   7.591  20.528  0.00  0.00    +0.000 A 
ATOM      4  C   UNL     1       2.593   6.633  19.713  0.00  0.00    +0.000 A 
ATOM      5  C   UNL     1       2.924   6.900  18.376  0.00  0.00    +0.000 A 
ATOM      6  C   UNL     1       2.495   8.137  17.865  0.00  0.00    +0.000 A 
ATOM      7  C   UNL     1       1.822   9.073  18.656  0.00  0.00    +0.000 A 
BRANCH   5   8
ATOM      8  C   UNL     1       3.677   5.939  17.517  0.00  0.00    +0.000 A 
ATOM      9  C   UNL     1       4.729   6.451  16.714  0.00  0.00    +0.000 A 
ATOM     10  C   UNL     1       5.493   5.645  15.877  0.00  0.00    +0.000 A 
ATOM     11  C   UNL     1       5.228   4.289  15.805  0.00  0.00    +0.000 A 
ATOM     12  C   UNL     1       4.207   3.741  16.578  0.00  0.00    +0.000 A 
ATOM     13  C   UNL     1       3.427   4.536  17.445  0.00  0.00    +0.000 A 
BRANCH  13  14
ATOM     14  C   UNL     1       2.388   3.865  18.225  0.00  0.00    +0.000 A 
ATOM     15  N   UNL     1       1.105   3.726  17.961  0.00  0.00    +0.000 NA
ATOM     16  N   UNL     1       0.585   2.900  18.931  0.00  0.00    +0.000 NA
ATOM     17  N   UNL     1       1.511   2.574  19.817  0.00  0.00    +0.000 NA
ATOM     18  N   UNL     1       2.621   3.197  19.401  0.00  0.00    +0.000 N 
ATOM     19  H   UNL     1       3.477   3.100  19.929  0.00  0.00    +0.000 HD
ENDBRANCH  13  14
ENDBRANCH   5   8
ENDBRANCH   1   2
BRANCH   1  20
ATOM     20  C   UNL     1      -0.494  10.254  20.605  0.00  0.00    +0.000 C 
ATOM     21  F   UNL     1      -1.163  10.521  21.770  0.00  0.00    +0.000 F 
ATOM     22  F   UNL     1      -1.142   9.179  20.068  0.00  0.00    +0.000 F 
BRANCH  20  31
ATOM     23  C   UNL     1      -1.038  11.384  18.409  0.00  0.00    +0.000 A 
ATOM     24  N   UNL     1      -1.006  12.601  17.899  0.00  0.00    +0.000 NA
ATOM     25  C   UNL     1      -0.509  13.415  18.885  0.00  0.00    +0.000 A 
ATOM     26  C   UNL     1      -0.271  14.796  18.869  0.00  0.00    +0.000 A 
ATOM     27  C   UNL     1       0.258  15.409  20.013  0.00  0.00    +0.000 A 
ATOM     28  C   UNL     1       0.546  14.660  21.151  0.00  0.00    +0.000 A 
ATOM     29  C   UNL     1       0.315  13.281  21.186  0.00  0.00    +0.000 A 
ATOM     30  C   UNL     1      -0.219  12.689  20.033  0.00  0.00    +0.000 A 
ATOM     31  N   UNL     1      -0.578  11.393  19.710  0.00  0.00    +0.000 N 
BRANCH  23  32
ATOM     32  C   UNL     1      -1.477  10.164  17.660  0.00  0.00    +0.000 C 
BRANCH  32  34
ATOM     33  C   UNL     1      -2.891  10.389  15.591  0.00  0.00    +0.000 C 
ATOM     34  C   UNL     1      -2.898  10.300  17.109  0.00  0.00    +0.000 C 
ENDBRANCH  32  34
ENDBRANCH  23  32
ENDBRANCH  20  31
ENDBRANCH   1  20
BRANCH   1  35
ATOM     35  O   UNL     1       1.117   9.353  22.286  0.00  0.00    +0.000 OA
ATOM     36  H   UNL     1       1.637  10.008  22.787  0.00  0.00    +0.000 HD
ENDBRANCH   1  35
TORSDOF 8
ENDMDL
MODEL 4
REMARK VINA RESULT:      -8.6      2.500      8.535
REMARK  Name = 
REMARK  9 active torsions:
REMARK  status: ('A' for Active; 'I' for Inactive)
REMARK    1  A    between atoms: C_1  and  C_2
REMARK    2  A    between atoms: C_2  and  C_3
REMARK    3  A    between atoms: C_3  and  C_4
REMARK    4  A    between atoms: N_12  and  C_13
REMARK    5  A    between atoms: C_13  and  C_16
REMARK    6  A    between atoms: C_16  and  O_17
REMARK    7  A    between atoms: C_16  and  C_18
REMARK    8  A    between atoms: C_21  and  C_22
REMARK    9  A    between atoms: C_27  and  C_28
REMARK                            x       y       z     vdW  Elec       q    Type
REMARK                         _______ _______ _______ _____ _____    ______ ____
ROOT
ATOM      1  C   UNL     1       1.231  10.362  18.274  0.00  0.00    +0.000 C 
ENDROOT
BRANCH   1   2
ATOM      2  C   UNL     1       1.593   8.977  18.788  0.00  0.00    +0.000 A 
ATOM      3  C   UNL     1       2.146   8.048  17.900  0.00  0.00    +0.000 A 
ATOM      4  C   UNL     1       2.461   6.751  18.321  0.00  0.00    +0.000 A 
ATOM      5  C   UNL     1       2.172   6.302  19.619  0.00  0.00    +0.000 A 
ATOM      6  C   UNL     1       1.662   7.263  20.510  0.00  0.00    +0.000 A 
ATOM      7  C   UNL     1       1.406   8.579  20.114  0.00  0.00    +0.000 A 
BRANCH   5   8
ATOM      8  C   UNL     1       2.395   4.893  20.061  0.00  0.00    +0.000 A 
ATOM      9  C   UNL     1       1.346   4.245  20.762  0.00  0.00    +0.000 A 
ATOM     10  C   UNL     1       1.448   2.936  21.220  0.00  0.00    +0.000 A 
ATOM     11  C   UNL     1       2.613   2.223  20.999  0.00  0.00    +0.000 A 
ATOM     12  C   UNL     1       3.669   2.817  20.312  0.00  0.00    +0.000 A 
ATOM     13  C   UNL     1       3.584   4.141  19.826  0.00  0.00    +0.000 A 
BRANCH  13  14
ATOM     14  C   UNL     1       4.740   4.670  19.105  0.00  0.00    +0.000 A 
ATOM     15  N   UNL     1       5.726   5.424  19.547  0.00  0.00    +0.000 NA
ATOM     16  N   UNL     1       6.634   5.538  18.520  0.00  0.00    +0.000 NA
ATOM     17  N   UNL     1       6.199   4.914  17.437  0.00  0.00    +0.000 NA
ATOM     18  N   UNL     1       5.011   4.404  17.786  0.00  0.00    +0.000 N 
ATOM     19  H   UNL     1       4.475   3.878  17.111  0.00  0.00    +0.000 HD
ENDBRANCH  13  14
ENDBRANCH   5   8
ENDBRANCH   1   2
BRANCH   1  20
ATOM     20  C   UNL     1       0.805  11.383  19.372  0.00  0.00    +0.000 C 
ATOM     21  F   UNL     1       1.444  12.573  19.138  0.00  0.00    +0.000 F 
ATOM     22  F   UNL     1       1.269  10.969  20.586  0.00  0.00    +0.000 F 
BRANCH  20  31
ATOM     23  C   UNL     1      -1.326  12.284  20.393  0.00  0.00    +0.000 A 
ATOM     24  N   UNL     1      -2.615  12.304  20.111  0.00  0.00    +0.000 NA
ATOM     25  C   UNL     1      -2.761  11.603  18.941  0.00  0.00    +0.000 A 
ATOM     26  C   UNL     1      -3.921  11.323  18.205  0.00  0.00    +0.000 A 
ATOM     27  C   UNL     1      -3.814  10.570  17.028  0.00  0.00    +0.000 A 
ATOM     28  C   UNL     1      -2.576  10.102  16.594  0.00  0.00    +0.000 A 
ATOM     29  C   UNL     1      -1.409  10.372  17.314  0.00  0.00    +0.000 A 
ATOM     30  C   UNL     1      -1.537  11.131  18.486  0.00  0.00    +0.000 A 
ATOM     31  N   UNL     1      -0.630  11.591  19.424  0.00  0.00    +0.000 N 
BRANCH  23  32
ATOM     32  C   UNL     1      -0.717  12.899  21.615  0.00  0.00    +0.000 C 
BRANCH  32  34
ATOM     33  C   UNL     1      -0.990  10.826  23.013  0.00  0.00    +0.000 C 
ATOM     34  C   UNL     1      -1.288  12.313  22.907  0.00  0.00    +0.000 C 
ENDBRANCH  32  34
ENDBRANCH  23  32
ENDBRANCH  20  31
ENDBRANCH   1  20
BRANCH   1  35
ATOM     35  O   UNL     1       2.340  10.822  17.484  0.00  0.00    +0.000 OA
ATOM     36  H   UNL     1       2.043  10.839  16.556  0.00  0.00    +0.000 HD
ENDBRANCH   1  35
TORSDOF 8
ENDMDL
MODEL 5
REMARK VINA RESULT:      -8.5      2.784      8.753
REMARK  Name = 
REMARK  9 active torsions:
REMARK  status: ('A' for Active; 'I' for Inactive)
REMARK    1  A    between atoms: C_1  and  C_2
REMARK    2  A    between atoms: C_2  and  C_3
REMARK    3  A    between atoms: C_3  and  C_4
REMARK    4  A    between atoms: N_12  and  C_13
REMARK    5  A    between atoms: C_13  and  C_16
REMARK    6  A    between atoms: C_16  and  O_17
REMARK    7  A    between atoms: C_16  and  C_18
REMARK    8  A    between atoms: C_21  and  C_22
REMARK    9  A    between atoms: C_27  and  C_28
REMARK                            x       y       z     vdW  Elec       q    Type
REMARK                         _______ _______ _______ _____ _____    ______ ____
ROOT
ATOM      1  C   UNL     1       1.031   9.711  21.157  0.00  0.00    +0.000 C 
ENDROOT
BRANCH   1   2
ATOM      2  C   UNL     1       1.646   8.716  20.185  0.00  0.00    +0.000 A 
ATOM      3  C   UNL     1       2.001   7.445  20.649  0.00  0.00    +0.000 A 
ATOM      4  C   UNL     1       2.602   6.511  19.798  0.00  0.00    +0.000 A 
ATOM      5  C   UNL     1       2.941   6.825  18.473  0.00  0.00    +0.000 A 
ATOM      6  C   UNL     1       2.532   8.088  18.010  0.00  0.00    +0.000 A 
ATOM      7  C   UNL     1       1.872   9.003  18.837  0.00  0.00    +0.000 A 
BRANCH   5   8
ATOM      8  C   UNL     1       3.681   5.887  17.579  0.00  0.00    +0.000 A 
ATOM      9  C   UNL     1       4.604   6.441  16.655  0.00  0.00    +0.000 A 
ATOM     10  C   UNL     1       5.344   5.659  15.775  0.00  0.00    +0.000 A 
ATOM     11  C   UNL     1       5.184   4.285  15.781  0.00  0.00    +0.000 A 
ATOM     12  C   UNL     1       4.291   3.695  16.672  0.00  0.00    +0.000 A 
ATOM     13  C   UNL     1       3.538   4.467  17.585  0.00  0.00    +0.000 A 
BRANCH  13  14
ATOM     14  C   UNL     1       2.638   3.754  18.489  0.00  0.00    +0.000 A 
ATOM     15  N   UNL     1       2.898   3.187  19.650  0.00  0.00    +0.000 NA
ATOM     16  N   UNL     1       1.694   2.771  20.170  0.00  0.00    +0.000 NA
ATOM     17  N   UNL     1       0.706   3.021  19.326  0.00  0.00    +0.000 NA
ATOM     18  N   UNL     1       1.292   3.600  18.270  0.00  0.00    +0.000 N 
ATOM     19  H   UNL     1       0.731   3.883  17.480  0.00  0.00    +0.000 HD
ENDBRANCH  13  14
ENDBRANCH   5   8
ENDBRANCH   1   2
BRANCH   1  20
ATOM     20  C   UNL     1      -0.527   9.722  21.194  0.00  0.00    +0.000 C 
ATOM     21  F   UNL     1      -0.939   9.473  22.477  0.00  0.00    +0.000 F 
ATOM     22  F   UNL     1      -1.009   8.676  20.462  0.00  0.00    +0.000 F 
BRANCH  20  31
ATOM     23  C   UNL     1      -1.474  11.267  19.429  0.00  0.00    +0.000 A 
ATOM     24  N   UNL     1      -1.980  12.483  19.362  0.00  0.00    +0.000 NA
ATOM     25  C   UNL     1      -1.922  12.992  20.635  0.00  0.00    +0.000 A 
ATOM     26  C   UNL     1      -2.329  14.244  21.117  0.00  0.00    +0.000 A 
ATOM     27  C   UNL     1      -2.157  14.538  22.476  0.00  0.00    +0.000 A 
ATOM     28  C   UNL     1      -1.587  13.605  23.338  0.00  0.00    +0.000 A 
ATOM     29  C   UNL     1      -1.175  12.351  22.876  0.00  0.00    +0.000 A 
ATOM     30  C   UNL     1      -1.362  12.075  21.514  0.00  0.00    +0.000 A 
ATOM     31  N   UNL     1      -1.094  10.972  20.723  0.00  0.00    +0.000 N 
BRANCH  23  32
ATOM     32  C   UNL     1      -1.303  10.354  18.254  0.00  0.00    +0.000 C 
BRANCH  32  34
ATOM     33  C   UNL     1      -2.860  10.472  16.282  0.00  0.00    +0.000 C 
ATOM     34  C   UNL     1      -2.643   9.898  17.673  0.00  0.00    +0.000 C 
ENDBRANCH  32  34
ENDBRANCH  23  32
ENDBRANCH  20  31
ENDBRANCH   1  20
BRANCH   1  35
ATOM     35  O   UNL     1       1.618   9.460  22.444  0.00  0.00    +0.000 OA
ATOM     36  H   UNL     1       0.885   9.365  23.080  0.00  0.00    +0.000 HD
ENDBRANCH   1  35
TORSDOF 8
ENDMDL
MODEL 6
REMARK VINA RESULT:      -8.5      2.897      8.762
REMARK  Name = 
REMARK  9 active torsions:
REMARK  status: ('A' for Active; 'I' for Inactive)
REMARK    1  A    between atoms: C_1  and  C_2
REMARK    2  A    between atoms: C_2  and  C_3
REMARK    3  A    between atoms: C_3  and  C_4
REMARK    4  A    between atoms: N_12  and  C_13
REMARK    5  A    between atoms: C_13  and  C_16
REMARK    6  A    between atoms: C_16  and  O_17
REMARK    7  A    between atoms: C_16  and  C_18
REMARK    8  A    between atoms: C_21  and  C_22
REMARK    9  A    between atoms: C_27  and  C_28
REMARK                            x       y       z     vdW  Elec       q    Type
REMARK                         _______ _______ _______ _____ _____    ______ ____
ROOT
ATOM      1  C   UNL     1       0.639   9.857  20.526  0.00  0.00    +0.000 C 
ENDROOT
BRANCH   1   2
ATOM      2  C   UNL     1       1.415   8.863  19.677  0.00  0.00    +0.000 A 
ATOM      3  C   UNL     1       1.878   7.683  20.267  0.00  0.00    +0.000 A 
ATOM      4  C   UNL     1       2.626   6.756  19.532  0.00  0.00    +0.000 A 
ATOM      5  C   UNL     1       3.007   6.999  18.204  0.00  0.00    +0.000 A 
ATOM      6  C   UNL     1       2.493   8.166  17.613  0.00  0.00    +0.000 A 
ATOM      7  C   UNL     1       1.689   9.064  18.322  0.00  0.00    +0.000 A 
BRANCH   5   8
ATOM      8  C   UNL     1       3.898   6.081  17.433  0.00  0.00    +0.000 A 
ATOM      9  C   UNL     1       5.028   6.643  16.786  0.00  0.00    +0.000 A 
ATOM     10  C   UNL     1       5.921   5.880  16.040  0.00  0.00    +0.000 A 
ATOM     11  C   UNL     1       5.712   4.519  15.908  0.00  0.00    +0.000 A 
ATOM     12  C   UNL     1       4.617   3.922  16.528  0.00  0.00    +0.000 A 
ATOM     13  C   UNL     1       3.704   4.674  17.301  0.00  0.00    +0.000 A 
BRANCH  13  14
ATOM     14  C   UNL     1       2.594   3.954  17.923  0.00  0.00    +0.000 A 
ATOM     15  N   UNL     1       1.343   3.843  17.525  0.00  0.00    +0.000 NA
ATOM     16  N   UNL     1       0.731   2.951  18.376  0.00  0.00    +0.000 NA
ATOM     17  N   UNL     1       1.566   2.555  19.322  0.00  0.00    +0.000 NA
ATOM     18  N   UNL     1       2.711   3.199  19.064  0.00  0.00    +0.000 N 
ATOM     19  H   UNL     1       3.511   3.058  19.664  0.00  0.00    +0.000 HD
ENDBRANCH  13  14
ENDBRANCH   5   8
ENDBRANCH   1   2
BRANCH   1  20
ATOM     20  C   UNL     1       0.490  11.281  19.908  0.00  0.00    +0.000 C 
ATOM     21  F   UNL     1       0.836  11.224  18.583  0.00  0.00    +0.000 F 
ATOM     22  F   UNL     1       1.403  12.122  20.474  0.00  0.00    +0.000 F 
BRANCH  20  31
ATOM     23  C   UNL     1      -1.825  11.868  19.074  0.00  0.00    +0.000 A 
ATOM     24  N   UNL     1      -2.935  12.395  19.555  0.00  0.00    +0.000 NA
ATOM     25  C   UNL     1      -2.674  12.702  20.867  0.00  0.00    +0.000 A 
ATOM     26  C   UNL     1      -3.510  13.281  21.833  0.00  0.00    +0.000 A 
ATOM     27  C   UNL     1      -3.005  13.507  23.120  0.00  0.00    +0.000 A 
ATOM     28  C   UNL     1      -1.694  13.166  23.439  0.00  0.00    +0.000 A 
ATOM     29  C   UNL     1      -0.846  12.588  22.490  0.00  0.00    +0.000 A 
ATOM     30  C   UNL     1      -1.372  12.365  21.209  0.00  0.00    +0.000 A 
ATOM     31  N   UNL     1      -0.850  11.821  20.050  0.00  0.00    +0.000 N 
BRANCH  23  32
ATOM     32  C   UNL     1      -1.645  11.422  17.656  0.00  0.00    +0.000 C 
BRANCH  32  34
ATOM     33  C   UNL     1      -2.956   9.785  16.268  0.00  0.00    +0.000 C 
ATOM     34  C   UNL     1      -2.022   9.953  17.456  0.00  0.00    +0.000 C 
ENDBRANCH  32  34
ENDBRANCH  23  32
ENDBRANCH  20  31
ENDBRANCH   1  20
BRANCH   1  35
ATOM     35  O   UNL     1      -0.626   9.250  20.837  0.00  0.00    +0.000 OA
ATOM     36  H   UNL     1      -0.478   8.650  21.592  0.00  0.00    +0.000 HD
ENDBRANCH   1  35
TORSDOF 8
ENDMDL
MODEL 7
REMARK VINA RESULT:      -8.5      2.940      8.630
REMARK  Name = 
REMARK  9 active torsions:
REMARK  status: ('A' for Active; 'I' for Inactive)
REMARK    1  A    between atoms: C_1  and  C_2
REMARK    2  A    between atoms: C_2  and  C_3
REMARK    3  A    between atoms: C_3  and  C_4
REMARK    4  A    between atoms: N_12  and  C_13
REMARK    5  A    between atoms: C_13  and  C_16
REMARK    6  A    between atoms: C_16  and  O_17
REMARK    7  A    between atoms: C_16  and  C_18
REMARK    8  A    between atoms: C_21  and  C_22
REMARK    9  A    between atoms: C_27  and  C_28
REMARK                            x       y       z     vdW  Elec       q    Type
REMARK                         _______ _______ _______ _____ _____    ______ ____
ROOT
ATOM      1  C   UNL     1       1.209   9.445  21.359  0.00  0.00    +0.000 C 
ENDROOT
BRANCH   1   2
ATOM      2  C   UNL     1       1.793   8.499  20.322  0.00  0.00    +0.000 A 
ATOM      3  C   UNL     1       2.166   7.209  20.714  0.00  0.00    +0.000 A 
ATOM      4  C   UNL     1       2.740   6.317  19.802  0.00  0.00    +0.000 A 
ATOM      5  C   UNL     1       3.035   6.694  18.482  0.00  0.00    +0.000 A 
ATOM      6  C   UNL     1       2.610   7.976  18.093  0.00  0.00    +0.000 A 
ATOM      7  C   UNL     1       1.975   8.849  18.982  0.00  0.00    +0.000 A 
BRANCH   5   8
ATOM      8  C   UNL     1       3.748   5.801  17.521  0.00  0.00    +0.000 A 
ATOM      9  C   UNL     1       4.757   6.376  16.706  0.00  0.00    +0.000 A 
ATOM     10  C   UNL     1       5.481   5.636  15.777  0.00  0.00    +0.000 A 
ATOM     11  C   UNL     1       5.217   4.287  15.622  0.00  0.00    +0.000 A 
ATOM     12  C   UNL     1       4.237   3.679  16.403  0.00  0.00    +0.000 A 
ATOM     13  C   UNL     1       3.498   4.406  17.362  0.00  0.00    +0.000 A 
BRANCH  13  14
ATOM     14  C   UNL     1       2.501   3.674  18.142  0.00  0.00    +0.000 A 
ATOM     15  N   UNL     1       1.203   3.563  17.943  0.00  0.00    +0.000 NA
ATOM     16  N   UNL     1       0.734   2.659  18.869  0.00  0.00    +0.000 NA
ATOM     17  N   UNL     1       1.708   2.256  19.668  0.00  0.00    +0.000 NA
ATOM     18  N   UNL     1       2.797   2.908  19.242  0.00  0.00    +0.000 N 
ATOM     19  H   UNL     1       3.681   2.763  19.708  0.00  0.00    +0.000 HD
ENDBRANCH  13  14
ENDBRANCH   5   8
ENDBRANCH   1   2
BRANCH   1  20
ATOM     20  C   UNL     1      -0.349   9.487  21.412  0.00  0.00    +0.000 C 
ATOM     21  F   UNL     1      -0.744   9.548  22.722  0.00  0.00    +0.000 F 
ATOM     22  F   UNL     1      -0.854   8.307  20.948  0.00  0.00    +0.000 F 
BRANCH  20  31
ATOM     23  C   UNL     1      -1.091  11.889  21.134  0.00  0.00    +0.000 A 
ATOM     24  N   UNL     1      -1.593  12.655  20.184  0.00  0.00    +0.000 NA
ATOM     25  C   UNL     1      -1.748  11.849  19.085  0.00  0.00    +0.000 A 
ATOM     26  C   UNL     1      -2.242  12.160  17.810  0.00  0.00    +0.000 A 
ATOM     27  C   UNL     1      -2.312  11.150  16.842  0.00  0.00    +0.000 A 
ATOM     28  C   UNL     1      -1.900   9.853  17.139  0.00  0.00    +0.000 A 
ATOM     29  C   UNL     1      -1.405   9.524  18.404  0.00  0.00    +0.000 A 
ATOM     30  C   UNL     1      -1.339  10.551  19.356  0.00  0.00    +0.000 A 
ATOM     31  N   UNL     1      -0.909  10.602  20.670  0.00  0.00    +0.000 N 
BRANCH  23  32
ATOM     32  C   UNL     1      -0.797  12.351  22.528  0.00  0.00    +0.000 C 
BRANCH  32  34
ATOM     33  C   UNL     1      -3.116  12.180  23.487  0.00  0.00    +0.000 C 
ATOM     34  C   UNL     1      -1.968  13.117  23.146  0.00  0.00    +0.000 C 
ENDBRANCH  32  34
ENDBRANCH  23  32
ENDBRANCH  20  31
ENDBRANCH   1  20
BRANCH   1  35
ATOM     35  O   UNL     1       1.800   9.103  22.623  0.00  0.00    +0.000 OA
ATOM     36  H   UNL     1       2.215   8.227  22.518  0.00  0.00    +0.000 HD
ENDBRANCH   1  35
TORSDOF 8
ENDMDL
MODEL 8
REMARK VINA RESULT:      -8.5      1.925      3.550
REMARK  Name = 
REMARK  9 active torsions:
REMARK  status: ('A' for Active; 'I' for Inactive)
REMARK    1  A    between atoms: C_1  and  C_2
REMARK    2  A    between atoms: C_2  and  C_3
REMARK    3  A    between atoms: C_3  and  C_4
REMARK    4  A    between atoms: N_12  and  C_13
REMARK    5  A    between atoms: C_13  and  C_16
REMARK    6  A    between atoms: C_16  and  O_17
REMARK    7  A    between atoms: C_16  and  C_18
REMARK    8  A    between atoms: C_21  and  C_22
REMARK    9  A    between atoms: C_27  and  C_28
REMARK                            x       y       z     vdW  Elec       q    Type
REMARK                         _______ _______ _______ _____ _____    ______ ____
ROOT
ATOM      1  C   UNL     1       2.408   6.147  19.691  0.00  0.00    +0.000 C 
ENDROOT
BRANCH   1   2
ATOM      2  C   UNL     1       1.946   7.586  19.523  0.00  0.00    +0.000 A 
ATOM      3  C   UNL     1       2.219   8.249  18.322  0.00  0.00    +0.000 A 
ATOM      4  C   UNL     1       1.844   9.585  18.137  0.00  0.00    +0.000 A 
ATOM      5  C   UNL     1       1.249  10.336  19.162  0.00  0.00    +0.000 A 
ATOM      6  C   UNL     1       0.938   9.640  20.343  0.00  0.00    +0.000 A 
ATOM      7  C   UNL     1       1.251   8.288  20.510  0.00  0.00    +0.000 A 
BRANCH   5   8
ATOM      8  C   UNL     1       0.941  11.791  19.029  0.00  0.00    +0.000 A 
ATOM      9  C   UNL     1       1.959  12.718  19.368  0.00  0.00    +0.000 A 
ATOM     10  C   UNL     1       1.779  14.095  19.283  0.00  0.00    +0.000 A 
ATOM     11  C   UNL     1       0.562  14.599  18.860  0.00  0.00    +0.000 A 
ATOM     12  C   UNL     1      -0.467  13.727  18.514  0.00  0.00    +0.000 A 
ATOM     13  C   UNL     1      -0.303  12.326  18.579  0.00  0.00    +0.000 A 
BRANCH  13  14
ATOM     14  C   UNL     1      -1.438  11.494  18.182  0.00  0.00    +0.000 A 
ATOM     15  N   UNL     1      -2.635  11.400  18.725  0.00  0.00    +0.000 NA
ATOM     16  N   UNL     1      -3.383  10.588  17.904  0.00  0.00    +0.000 NA
ATOM     17  N   UNL     1      -2.653  10.137  16.897  0.00  0.00    +0.000 NA
ATOM     18  N   UNL     1      -1.439  10.669  17.084  0.00  0.00    +0.000 N 
ATOM     19  H   UNL     1      -0.696  10.463  16.432  0.00  0.00    +0.000 HD
ENDBRANCH  13  14
ENDBRANCH   5   8
ENDBRANCH   1   2
BRANCH   1  20
ATOM     20  C   UNL     1       2.045   5.194  18.512  0.00  0.00    +0.000 C 
ATOM     21  F   UNL     1       1.512   5.938  17.492  0.00  0.00    +0.000 F 
ATOM     22  F   UNL     1       1.041   4.354  18.896  0.00  0.00    +0.000 F 
BRANCH  20  31
ATOM     23  C   UNL     1       3.491   3.125  18.347  0.00  0.00    +0.000 A 
ATOM     24  N   UNL     1       4.577   2.738  17.707  0.00  0.00    +0.000 NA
ATOM     25  C   UNL     1       4.989   3.817  16.967  0.00  0.00    +0.000 A 
ATOM     26  C   UNL     1       6.090   3.944  16.108  0.00  0.00    +0.000 A 
ATOM     27  C   UNL     1       6.310   5.168  15.461  0.00  0.00    +0.000 A 
ATOM     28  C   UNL     1       5.452   6.245  15.668  0.00  0.00    +0.000 A 
ATOM     29  C   UNL     1       4.349   6.136  16.520  0.00  0.00    +0.000 A 
ATOM     30  C   UNL     1       4.144   4.902  17.153  0.00  0.00    +0.000 A 
ATOM     31  N   UNL     1       3.183   4.433  18.031  0.00  0.00    +0.000 N 
BRANCH  23  32
ATOM     32  C   UNL     1       2.725   2.270  19.309  0.00  0.00    +0.000 C 
BRANCH  32  34
ATOM     33  C   UNL     1       1.923   2.852  21.621  0.00  0.00    +0.000 C 
ATOM     34  C   UNL     1       3.133   2.521  20.762  0.00  0.00    +0.000 C 
ENDBRANCH  32  34
ENDBRANCH  23  32
ENDBRANCH  20  31
ENDBRANCH   1  20
BRANCH   1  35
ATOM     35  O   UNL     1       3.818   6.185  19.963  0.00  0.00    +0.000 OA
ATOM     36  H   UNL     1       4.195   6.905  19.424  0.00  0.00    +0.000 HD
ENDBRANCH   1  35
TORSDOF 8
ENDMDL
MODEL 9
REMARK VINA RESULT:      -8.5      1.823      3.657
REMARK  Name = 
REMARK  9 active torsions:
REMARK  status: ('A' for Active; 'I' for Inactive)
REMARK    1  A    between atoms: C_1  and  C_2
REMARK    2  A    between atoms: C_2  and  C_3
REMARK    3  A    between atoms: C_3  and  C_4
REMARK    4  A    between atoms: N_12  and  C_13
REMARK    5  A    between atoms: C_13  and  C_16
REMARK    6  A    between atoms: C_16  and  O_17
REMARK    7  A    between atoms: C_16  and  C_18
REMARK    8  A    between atoms: C_21  and  C_22
REMARK    9  A    between atoms: C_27  and  C_28
REMARK                            x       y       z     vdW  Elec       q    Type
REMARK                         _______ _______ _______ _____ _____    ______ ____
ROOT
ATOM      1  C   UNL     1       1.871   6.416  19.482  0.00  0.00    +0.000 C 
ENDROOT
BRANCH   1   2
ATOM      2  C   UNL     1       1.726   7.926  19.372  0.00  0.00    +0.000 A 
ATOM      3  C   UNL     1       1.206   8.638  20.458  0.00  0.00    +0.000 A 
ATOM      4  C   UNL     1       1.022  10.024  20.388  0.00  0.00    +0.000 A 
ATOM      5  C   UNL     1       1.278  10.747  19.213  0.00  0.00    +0.000 A 
ATOM      6  C   UNL     1       1.845  10.023  18.149  0.00  0.00    +0.000 A 
ATOM      7  C   UNL     1       2.093   8.650  18.236  0.00  0.00    +0.000 A 
BRANCH   5   8
ATOM      8  C   UNL     1       0.986  12.204  19.075  0.00  0.00    +0.000 A 
ATOM      9  C   UNL     1       2.002  13.122  19.448  0.00  0.00    +0.000 A 
ATOM     10  C   UNL     1       1.836  14.500  19.363  0.00  0.00    +0.000 A 
ATOM     11  C   UNL     1       0.636  15.016  18.904  0.00  0.00    +0.000 A 
ATOM     12  C   UNL     1      -0.389  14.154  18.524  0.00  0.00    +0.000 A 
ATOM     13  C   UNL     1      -0.239  12.751  18.589  0.00  0.00    +0.000 A 
BRANCH  13  14
ATOM     14  C   UNL     1      -1.368  11.931  18.154  0.00  0.00    +0.000 A 
ATOM     15  N   UNL     1      -2.228  11.244  18.878  0.00  0.00    +0.000 NA
ATOM     16  N   UNL     1      -3.180  10.757  18.011  0.00  0.00    +0.000 NA
ATOM     17  N   UNL     1      -2.890  11.084  16.762  0.00  0.00    +0.000 NA
ATOM     18  N   UNL     1      -1.751  11.783  16.844  0.00  0.00    +0.000 N 
ATOM     19  H   UNL     1      -1.324  12.144  16.003  0.00  0.00    +0.000 HD
ENDBRANCH  13  14
ENDBRANCH   5   8
ENDBRANCH   1   2
BRANCH   1  20
ATOM     20  C   UNL     1       2.421   5.710  18.205  0.00  0.00    +0.000 C 
ATOM     21  F   UNL     1       2.497   6.629  17.192  0.00  0.00    +0.000 F 
ATOM     22  F   UNL     1       1.519   4.783  17.772  0.00  0.00    +0.000 F 
BRANCH  20  31
ATOM     23  C   UNL     1       3.955   3.839  18.941  0.00  0.00    +0.000 A 
ATOM     24  N   UNL     1       5.250   3.585  18.961  0.00  0.00    +0.000 NA
ATOM     25  C   UNL     1       5.865   4.697  18.446  0.00  0.00    +0.000 A 
ATOM     26  C   UNL     1       7.229   4.952  18.245  0.00  0.00    +0.000 A 
ATOM     27  C   UNL     1       7.619   6.185  17.704  0.00  0.00    +0.000 A 
ATOM     28  C   UNL     1       6.668   7.147  17.373  0.00  0.00    +0.000 A 
ATOM     29  C   UNL     1       5.303   6.911  17.566  0.00  0.00    +0.000 A 
ATOM     30  C   UNL     1       4.936   5.669  18.103  0.00  0.00    +0.000 A 
ATOM     31  N   UNL     1       3.717   5.093  18.416  0.00  0.00    +0.000 N 
BRANCH  23  32
ATOM     32  C   UNL     1       2.901   2.907  19.453  0.00  0.00    +0.000 C 
BRANCH  32  34
ATOM     33  C   UNL     1       1.469   2.737  21.514  0.00  0.00    +0.000 C 
ATOM     34  C   UNL     1       2.890   2.825  20.981  0.00  0.00    +0.000 C 
ENDBRANCH  32  34
ENDBRANCH  23  32
ENDBRANCH  20  31
ENDBRANCH   1  20
BRANCH   1  35
ATOM     35  O   UNL     1       2.664   6.153  20.651  0.00  0.00    +0.000 OA
ATOM     36  H   UNL     1       2.078   6.250  21.424  0.00  0.00    +0.000 HD
ENDBRANCH   1  35
TORSDOF 8
ENDMDL
