MODEL 1
REMARK VINA RESULT:      -7.9      0.000      0.000
REMARK  Name = 
REMARK  6 active torsions:
REMARK  status: ('A' for Active; 'I' for Inactive)
REMARK    1  A    between atoms: C_2  and  C_3
REMARK    2  A    between atoms: C_4  and  C_5
REMARK    3  A    between atoms: C_8  and  C_9
REMARK    4  A    between atoms: C_18  and  C_19
REMARK    5  A    between atoms: C_19  and  O_20
REMARK    6  A    between atoms: C_22  and  C_24
REMARK                            x       y       z     vdW  Elec       q    Type
REMARK                         _______ _______ _______ _____ _____    ______ ____
ROOT
ATOM      1  C   UNK     1      -0.490  10.823  20.581  0.00  0.00    +0.000 C 
ATOM      2  C   UNK     1       0.671  10.724  19.558  0.00  0.00    +0.000 C 
ATOM      3  C   UNK     1       1.398  11.837  20.362  0.00  0.00    +0.000 C 
ATOM      4  N   UNK     1       0.069  12.150  20.895  0.00  0.00    +0.000 N 
ATOM      5  C   UNK     1      -0.327  13.051  21.855  0.00  0.00    +0.000 C 
ATOM      6  O   UNK     1       0.442  13.864  22.360  0.00  0.00    +0.000 OA
ENDROOT
BRANCH   2   7
ATOM      7  C   UNK     1       1.397   9.351  19.302  0.00  0.00    +0.000 A 
ATOM      8  C   UNK     1       1.916   9.021  18.039  0.00  0.00    +0.000 A 
ATOM      9  C   UNK     1       2.468   7.765  17.777  0.00  0.00    +0.000 A 
ATOM     10  C   UNK     1       2.504   6.766  18.759  0.00  0.00    +0.000 A 
ATOM     11  C   UNK     1       2.042   7.112  20.035  0.00  0.00    +0.000 A 
ATOM     12  C   UNK     1       1.532   8.379  20.302  0.00  0.00    +0.000 A 
BRANCH  10  13
ATOM     13  C   UNK     1       2.996   5.402  18.473  0.00  0.00    +0.000 A 
ATOM     14  C   UNK     1       4.259   4.981  18.929  0.00  0.00    +0.000 A 
ATOM     15  C   UNK     1       4.733   3.693  18.677  0.00  0.00    +0.000 A 
ATOM     16  C   UNK     1       3.954   2.795  17.959  0.00  0.00    +0.000 A 
ATOM     17  C   UNK     1       2.699   3.180  17.500  0.00  0.00    +0.000 A 
ATOM     18  C   UNK     1       2.229   4.464  17.763  0.00  0.00    +0.000 A 
ATOM     19  F   UNK     1       0.998   4.768  17.320  0.00  0.00    +0.000 F 
ENDBRANCH  10  13
ENDBRANCH   2   7
BRANCH   5  20
ATOM     20  C   UNK     1      -1.777  13.006  22.249  0.00  0.00    +0.000 A 
ATOM     21  C   UNK     1      -2.144  12.556  23.509  0.00  0.00    +0.000 A 
ATOM     22  C   UNK     1      -3.501  12.466  23.804  0.00  0.00    +0.000 A 
ATOM     23  C   UNK     1      -4.441  12.862  22.856  0.00  0.00    +0.000 A 
ATOM     24  C   UNK     1      -3.987  13.334  21.638  0.00  0.00    +0.000 A 
ATOM     25  N   UNK     1      -2.678  13.402  21.306  0.00  0.00    +0.000 NA
ENDBRANCH   5  20
BRANCH   1  27
ATOM     26  N   UNK     1      -0.545   9.203  22.644  0.00  0.00    +0.000 NA
ATOM     27  C   UNK     1      -0.511   9.917  21.734  0.00  0.00    +0.000 C 
ENDBRANCH   1  27
BRANCH   3  28
ATOM     28  C   UNK     1       2.004  12.904  19.463  0.00  0.00    +0.000 C 
BRANCH  28  29
ATOM     29  O   UNK     1       2.788  13.818  20.220  0.00  0.00    +0.000 OA
ATOM     30  H   UNK     1       3.708  13.747  19.900  0.00  0.00    +0.000 HD
ENDBRANCH  28  29
ENDBRANCH   3  28
TORSDOF 6
ENDMDL
MODEL 2
REMARK VINA RESULT:      -7.9      0.872      1.247
REMARK  Name = 
REMARK  6 active torsions:
REMARK  status: ('A' for Active; 'I' for Inactive)
REMARK    1  A    between atoms: C_2  and  C_3
REMARK    2  A    between atoms: C_4  and  C_5
REMARK    3  A    between atoms: C_8  and  C_9
REMARK    4  A    between atoms: C_18  and  C_19
REMARK    5  A    between atoms: C_19  and  O_20
REMARK    6  A    between atoms: C_22  and  C_24
REMARK                            x       y       z     vdW  Elec       q    Type
REMARK                         _______ _______ _______ _____ _____    ______ ____
ROOT
ATOM      1  C   UNK     1      -0.510  10.844  20.567  0.00  0.00    +0.000 C 
ATOM      2  C   UNK     1       0.649  10.724  19.544  0.00  0.00    +0.000 C 
ATOM      3  C   UNK     1       1.397  11.822  20.349  0.00  0.00    +0.000 C 
ATOM      4  N   UNK     1       0.074  12.160  20.881  0.00  0.00    +0.000 N 
ATOM      5  C   UNK     1      -0.304  13.067  21.843  0.00  0.00    +0.000 C 
ATOM      6  O   UNK     1       0.480  13.866  22.347  0.00  0.00    +0.000 OA
ENDROOT
BRANCH   2   7
ATOM      7  C   UNK     1       1.349   9.338  19.286  0.00  0.00    +0.000 A 
ATOM      8  C   UNK     1       1.786   8.964  18.005  0.00  0.00    +0.000 A 
ATOM      9  C   UNK     1       2.312   7.695  17.749  0.00  0.00    +0.000 A 
ATOM     10  C   UNK     1       2.403   6.728  18.757  0.00  0.00    +0.000 A 
ATOM     11  C   UNK     1       2.023   7.117  20.048  0.00  0.00    +0.000 A 
ATOM     12  C   UNK     1       1.539   8.395  20.306  0.00  0.00    +0.000 A 
BRANCH  10  13
ATOM     13  C   UNK     1       2.867   5.352  18.485  0.00  0.00    +0.000 A 
ATOM     14  C   UNK     1       2.056   4.443  17.778  0.00  0.00    +0.000 A 
ATOM     15  C   UNK     1       2.485   3.144  17.503  0.00  0.00    +0.000 A 
ATOM     16  C   UNK     1       3.736   2.721  17.932  0.00  0.00    +0.000 A 
ATOM     17  C   UNK     1       4.562   3.597  18.629  0.00  0.00    +0.000 A 
ATOM     18  C   UNK     1       4.132   4.894  18.891  0.00  0.00    +0.000 A 
ATOM     19  F   UNK     1       4.985   5.703  19.540  0.00  0.00    +0.000 F 
ENDBRANCH  10  13
ENDBRANCH   2   7
BRANCH   5  20
ATOM     20  C   UNK     1      -1.755  13.049  22.237  0.00  0.00    +0.000 A 
ATOM     21  C   UNK     1      -2.136  12.538  23.469  0.00  0.00    +0.000 A 
ATOM     22  C   UNK     1      -3.495  12.478  23.762  0.00  0.00    +0.000 A 
ATOM     23  C   UNK     1      -4.422  12.963  22.841  0.00  0.00    +0.000 A 
ATOM     24  C   UNK     1      -3.952  13.491  21.653  0.00  0.00    +0.000 A 
ATOM     25  N   UNK     1      -2.641  13.533  21.322  0.00  0.00    +0.000 NA
ENDBRANCH   5  20
BRANCH   1  27
ATOM     26  N   UNK     1      -0.586   9.211  22.620  0.00  0.00    +0.000 NA
ATOM     27  C   UNK     1      -0.548   9.938  21.719  0.00  0.00    +0.000 C 
ENDBRANCH   1  27
BRANCH   3  28
ATOM     28  C   UNK     1       2.023  12.878  19.450  0.00  0.00    +0.000 C 
BRANCH  28  29
ATOM     29  O   UNK     1       2.805  13.790  20.210  0.00  0.00    +0.000 OA
ATOM     30  H   UNK     1       2.323  13.963  21.043  0.00  0.00    +0.000 HD
ENDBRANCH  28  29
ENDBRANCH   3  28
TORSDOF 6
ENDMDL
MODEL 3
REMARK VINA RESULT:      -7.8      1.064      1.540
REMARK  Name = 
REMARK  6 active torsions:
REMARK  status: ('A' for Active; 'I' for Inactive)
REMARK    1  A    between atoms: C_2  and  C_3
REMARK    2  A    between atoms: C_4  and  C_5
REMARK    3  A    between atoms: C_8  and  C_9
REMARK    4  A    between atoms: C_18  and  C_19
REMARK    5  A    between atoms: C_19  and  O_20
REMARK    6  A    between atoms: C_22  and  C_24
REMARK                            x       y       z     vdW  Elec       q    Type
REMARK                         _______ _______ _______ _____ _____    ______ ____
ROOT
ATOM      1  C   UNK     1      -0.524  10.940  20.483  0.00  0.00    +0.000 C 
ATOM      2  C   UNK     1       0.654  10.904  19.477  0.00  0.00    +0.000 C 
ATOM      3  C   UNK     1       1.371  11.958  20.364  0.00  0.00    +0.000 C 
ATOM      4  N   UNK     1       0.033  12.242  20.892  0.00  0.00    +0.000 N 
ATOM      5  C   UNK     1      -0.377  13.080  21.903  0.00  0.00    +0.000 C 
ATOM      6  O   UNK     1       0.386  13.856  22.472  0.00  0.00    +0.000 OA
ENDROOT
BRANCH   2   7
ATOM      7  C   UNK     1       1.381   9.548  19.144  0.00  0.00    +0.000 A 
ATOM      8  C   UNK     1       1.823   9.252  17.844  0.00  0.00    +0.000 A 
ATOM      9  C   UNK     1       2.374   8.010  17.519  0.00  0.00    +0.000 A 
ATOM     10  C   UNK     1       2.485   6.991  18.474  0.00  0.00    +0.000 A 
ATOM     11  C   UNK     1       2.100   7.302  19.784  0.00  0.00    +0.000 A 
ATOM     12  C   UNK     1       1.592   8.555  20.112  0.00  0.00    +0.000 A 
BRANCH  10  13
ATOM     13  C   UNK     1       2.976   5.641  18.127  0.00  0.00    +0.000 A 
ATOM     14  C   UNK     1       2.075   4.592  17.866  0.00  0.00    +0.000 A 
ATOM     15  C   UNK     1       2.523   3.314  17.526  0.00  0.00    +0.000 A 
ATOM     16  C   UNK     1       3.885   3.055  17.443  0.00  0.00    +0.000 A 
ATOM     17  C   UNK     1       4.799   4.073  17.692  0.00  0.00    +0.000 A 
ATOM     18  C   UNK     1       4.345   5.347  18.021  0.00  0.00    +0.000 A 
ATOM     19  F   UNK     1       5.275   6.296  18.219  0.00  0.00    +0.000 F 
ENDBRANCH  10  13
ENDBRANCH   2   7
BRANCH   5  20
ATOM     20  C   UNK     1      -1.833  13.015  22.268  0.00  0.00    +0.000 A 
ATOM     21  C   UNK     1      -2.788  13.573  21.429  0.00  0.00    +0.000 A 
ATOM     22  C   UNK     1      -4.117  13.550  21.842  0.00  0.00    +0.000 A 
ATOM     23  C   UNK     1      -4.455  12.942  23.048  0.00  0.00    +0.000 A 
ATOM     24  C   UNK     1      -3.445  12.376  23.804  0.00  0.00    +0.000 A 
ATOM     25  N   UNK     1      -2.140  12.411  23.450  0.00  0.00    +0.000 NA
ENDBRANCH   5  20
BRANCH   1  27
ATOM     26  N   UNK     1      -0.587   9.193  22.441  0.00  0.00    +0.000 NA
ATOM     27  C   UNK     1      -0.568   9.962  21.574  0.00  0.00    +0.000 C 
ENDBRANCH   1  27
BRANCH   3  28
ATOM     28  C   UNK     1       1.995  13.080  19.547  0.00  0.00    +0.000 C 
BRANCH  28  29
ATOM     29  O   UNK     1       2.774  13.935  20.373  0.00  0.00    +0.000 OA
ATOM     30  H   UNK     1       3.430  14.377  19.799  0.00  0.00    +0.000 HD
ENDBRANCH  28  29
ENDBRANCH   3  28
TORSDOF 6
ENDMDL
MODEL 4
REMARK VINA RESULT:      -7.7      2.169      2.802
REMARK  Name = 
REMARK  6 active torsions:
REMARK  status: ('A' for Active; 'I' for Inactive)
REMARK    1  A    between atoms: C_2  and  C_3
REMARK    2  A    between atoms: C_4  and  C_5
REMARK    3  A    between atoms: C_8  and  C_9
REMARK    4  A    between atoms: C_18  and  C_19
REMARK    5  A    between atoms: C_19  and  O_20
REMARK    6  A    between atoms: C_22  and  C_24
REMARK                            x       y       z     vdW  Elec       q    Type
REMARK                         _______ _______ _______ _____ _____    ______ ____
ROOT
ATOM      1  C   UNK     1      -0.161  11.707  21.174  0.00  0.00    +0.000 C 
ATOM      2  C   UNK     1      -0.541  10.579  20.181  0.00  0.00    +0.000 C 
ATOM      3  C   UNK     1      -1.157  11.671  19.264  0.00  0.00    +0.000 C 
ATOM      4  N   UNK     1      -1.194  12.494  20.477  0.00  0.00    +0.000 N 
ATOM      5  C   UNK     1      -1.553  13.809  20.662  0.00  0.00    +0.000 C 
ATOM      6  O   UNK     1      -2.041  14.496  19.769  0.00  0.00    +0.000 OA
ENDROOT
BRANCH   2   7
ATOM      7  C   UNK     1       0.561   9.614  19.605  0.00  0.00    +0.000 A 
ATOM      8  C   UNK     1       0.918   9.636  18.247  0.00  0.00    +0.000 A 
ATOM      9  C   UNK     1       1.819   8.713  17.709  0.00  0.00    +0.000 A 
ATOM     10  C   UNK     1       2.387   7.705  18.498  0.00  0.00    +0.000 A 
ATOM     11  C   UNK     1       2.079   7.718  19.864  0.00  0.00    +0.000 A 
ATOM     12  C   UNK     1       1.215   8.665  20.404  0.00  0.00    +0.000 A 
BRANCH  10  13
ATOM     13  C   UNK     1       3.266   6.664  17.927  0.00  0.00    +0.000 A 
ATOM     14  C   UNK     1       4.544   6.989  17.434  0.00  0.00    +0.000 A 
ATOM     15  C   UNK     1       5.390   6.015  16.902  0.00  0.00    +0.000 A 
ATOM     16  C   UNK     1       4.976   4.691  16.848  0.00  0.00    +0.000 A 
ATOM     17  C   UNK     1       3.721   4.337  17.333  0.00  0.00    +0.000 A 
ATOM     18  C   UNK     1       2.886   5.313  17.870  0.00  0.00    +0.000 A 
ATOM     19  F   UNK     1       1.699   4.906  18.349  0.00  0.00    +0.000 F 
ENDBRANCH  10  13
ENDBRANCH   2   7
BRANCH   5  20
ATOM     20  C   UNK     1      -1.335  14.367  22.041  0.00  0.00    +0.000 A 
ATOM     21  C   UNK     1      -2.148  13.968  23.091  0.00  0.00    +0.000 A 
ATOM     22  C   UNK     1      -1.953  14.564  24.334  0.00  0.00    +0.000 A 
ATOM     23  C   UNK     1      -0.936  15.501  24.498  0.00  0.00    +0.000 A 
ATOM     24  C   UNK     1      -0.147  15.812  23.407  0.00  0.00    +0.000 A 
ATOM     25  N   UNK     1      -0.331  15.279  22.177  0.00  0.00    +0.000 NA
ENDBRANCH   5  20
BRANCH   1  27
ATOM     26  N   UNK     1       2.234  12.772  21.048  0.00  0.00    +0.000 NA
ATOM     27  C   UNK     1       1.173  12.310  21.100  0.00  0.00    +0.000 C 
ENDBRANCH   1  27
BRANCH   3  28
ATOM     28  C   UNK     1      -2.518  11.269  18.713  0.00  0.00    +0.000 C 
BRANCH  28  29
ATOM     29  O   UNK     1      -3.001  12.245  17.798  0.00  0.00    +0.000 OA
ATOM     30  H   UNK     1      -3.068  11.815  16.923  0.00  0.00    +0.000 HD
ENDBRANCH  28  29
ENDBRANCH   3  28
TORSDOF 6
ENDMDL
MODEL 5
REMARK VINA RESULT:      -7.7      1.037      1.258
REMARK  Name = 
REMARK  6 active torsions:
REMARK  status: ('A' for Active; 'I' for Inactive)
REMARK    1  A    between atoms: C_2  and  C_3
REMARK    2  A    between atoms: C_4  and  C_5
REMARK    3  A    between atoms: C_8  and  C_9
REMARK    4  A    between atoms: C_18  and  C_19
REMARK    5  A    between atoms: C_19  and  O_20
REMARK    6  A    between atoms: C_22  and  C_24
REMARK                            x       y       z     vdW  Elec       q    Type
REMARK                         _______ _______ _______ _____ _____    ______ ____
ROOT
ATOM      1  C   UNK     1      -0.520  11.203  20.625  0.00  0.00    +0.000 C 
ATOM      2  C   UNK     1       0.310  10.918  19.347  0.00  0.00    +0.000 C 
ATOM      3  C   UNK     1       1.038  12.269  19.587  0.00  0.00    +0.000 C 
ATOM      4  N   UNK     1      -0.123  12.607  20.415  0.00  0.00    +0.000 N 
ATOM      5  C   UNK     1      -0.379  13.706  21.202  0.00  0.00    +0.000 C 
ATOM      6  O   UNK     1       0.355  14.690  21.226  0.00  0.00    +0.000 OA
ENDROOT
BRANCH   2   7
ATOM      7  C   UNK     1       1.153   9.595  19.218  0.00  0.00    +0.000 A 
ATOM      8  C   UNK     1       1.824   9.266  18.029  0.00  0.00    +0.000 A 
ATOM      9  C   UNK     1       2.487   8.046  17.872  0.00  0.00    +0.000 A 
ATOM     10  C   UNK     1       2.487   7.083  18.888  0.00  0.00    +0.000 A 
ATOM     11  C   UNK     1       1.870   7.431  20.096  0.00  0.00    +0.000 A 
ATOM     12  C   UNK     1       1.248   8.665  20.262  0.00  0.00    +0.000 A 
BRANCH  10  13
ATOM     13  C   UNK     1       3.100   5.751  18.706  0.00  0.00    +0.000 A 
ATOM     14  C   UNK     1       4.350   5.447  19.279  0.00  0.00    +0.000 A 
ATOM     15  C   UNK     1       4.936   4.190  19.125  0.00  0.00    +0.000 A 
ATOM     16  C   UNK     1       4.287   3.206  18.390  0.00  0.00    +0.000 A 
ATOM     17  C   UNK     1       3.049   3.475  17.816  0.00  0.00    +0.000 A 
ATOM     18  C   UNK     1       2.466   4.728  17.981  0.00  0.00    +0.000 A 
ATOM     19  F   UNK     1       1.256   4.918  17.429  0.00  0.00    +0.000 F 
ENDBRANCH  10  13
ENDBRANCH   2   7
BRANCH   5  20
ATOM     20  C   UNK     1      -1.633  13.651  22.029  0.00  0.00    +0.000 A 
ATOM     21  C   UNK     1      -2.873  13.584  21.410  0.00  0.00    +0.000 A 
ATOM     22  C   UNK     1      -4.009  13.606  22.215  0.00  0.00    +0.000 A 
ATOM     23  C   UNK     1      -3.873  13.653  23.600  0.00  0.00    +0.000 A 
ATOM     24  C   UNK     1      -2.598  13.679  24.134  0.00  0.00    +0.000 A 
ATOM     25  N   UNK     1      -1.474  13.694  23.382  0.00  0.00    +0.000 NA
ENDBRANCH   5  20
BRANCH   1  27
ATOM     26  N   UNK     1       0.281  10.218  22.922  0.00  0.00    +0.000 NA
ATOM     27  C   UNK     1      -0.068  10.661  21.910  0.00  0.00    +0.000 C 
ENDBRANCH   1  27
BRANCH   3  28
ATOM     28  C   UNK     1       1.184  13.087  18.312  0.00  0.00    +0.000 C 
BRANCH  28  29
ATOM     29  O   UNK     1       2.410  12.789  17.657  0.00  0.00    +0.000 OA
ATOM     30  H   UNK     1       2.380  13.212  16.776  0.00  0.00    +0.000 HD
ENDBRANCH  28  29
ENDBRANCH   3  28
TORSDOF 6
ENDMDL
MODEL 6
REMARK VINA RESULT:      -7.6      0.722      1.142
REMARK  Name = 
REMARK  6 active torsions:
REMARK  status: ('A' for Active; 'I' for Inactive)
REMARK    1  A    between atoms: C_2  and  C_3
REMARK    2  A    between atoms: C_4  and  C_5
REMARK    3  A    between atoms: C_8  and  C_9
REMARK    4  A    between atoms: C_18  and  C_19
REMARK    5  A    between atoms: C_19  and  O_20
REMARK    6  A    between atoms: C_22  and  C_24
REMARK                            x       y       z     vdW  Elec       q    Type
REMARK                         _______ _______ _______ _____ _____    ______ ____
ROOT
ATOM      1  C   UNK     1      -0.427  11.477  20.593  0.00  0.00    +0.000 C 
ATOM      2  C   UNK     1       0.671  11.197  19.535  0.00  0.00    +0.000 C 
ATOM      3  C   UNK     1       1.579  12.204  20.292  0.00  0.00    +0.000 C 
ATOM      4  N   UNK     1       0.328  12.713  20.863  0.00  0.00    +0.000 N 
ATOM      5  C   UNK     1       0.101  13.676  21.818  0.00  0.00    +0.000 C 
ATOM      6  O   UNK     1       0.997  14.377  22.281  0.00  0.00    +0.000 OA
ENDROOT
BRANCH   2   7
ATOM      7  C   UNK     1       1.182   9.730  19.280  0.00  0.00    +0.000 A 
ATOM      8  C   UNK     1       1.351   8.819  20.336  0.00  0.00    +0.000 A 
ATOM      9  C   UNK     1       1.903   7.552  20.132  0.00  0.00    +0.000 A 
ATOM     10  C   UNK     1       2.338   7.143  18.865  0.00  0.00    +0.000 A 
ATOM     11  C   UNK     1       2.117   8.026  17.801  0.00  0.00    +0.000 A 
ATOM     12  C   UNK     1       1.528   9.270  18.002  0.00  0.00    +0.000 A 
BRANCH  10  13
ATOM     13  C   UNK     1       3.010   5.845  18.648  0.00  0.00    +0.000 A 
ATOM     14  C   UNK     1       4.281   5.590  19.197  0.00  0.00    +0.000 A 
ATOM     15  C   UNK     1       4.924   4.366  19.010  0.00  0.00    +0.000 A 
ATOM     16  C   UNK     1       4.312   3.367  18.265  0.00  0.00    +0.000 A 
ATOM     17  C   UNK     1       3.054   3.587  17.714  0.00  0.00    +0.000 A 
ATOM     18  C   UNK     1       2.414   4.808  17.912  0.00  0.00    +0.000 A 
ATOM     19  F   UNK     1       1.189   4.950  17.381  0.00  0.00    +0.000 F 
ENDBRANCH  10  13
ENDBRANCH   2   7
BRANCH   5  20
ATOM     20  C   UNK     1      -1.325  13.846  22.261  0.00  0.00    +0.000 A 
ATOM     21  C   UNK     1      -1.684  13.576  23.574  0.00  0.00    +0.000 A 
ATOM     22  C   UNK     1      -3.028  13.681  23.921  0.00  0.00    +0.000 A 
ATOM     23  C   UNK     1      -3.958  14.087  22.967  0.00  0.00    +0.000 A 
ATOM     24  C   UNK     1      -3.508  14.373  21.691  0.00  0.00    +0.000 A 
ATOM     25  N   UNK     1      -2.215  14.249  21.311  0.00  0.00    +0.000 NA
ENDBRANCH   5  20
BRANCH   1  27
ATOM     26  N   UNK     1      -0.619   9.894  22.678  0.00  0.00    +0.000 NA
ATOM     27  C   UNK     1      -0.536  10.600  21.763  0.00  0.00    +0.000 C 
ENDBRANCH   1  27
BRANCH   3  28
ATOM     28  C   UNK     1       2.299  13.160  19.353  0.00  0.00    +0.000 C 
BRANCH  28  29
ATOM     29  O   UNK     1       3.215  13.978  20.068  0.00  0.00    +0.000 OA
ATOM     30  H   UNK     1       4.049  13.475  20.154  0.00  0.00    +0.000 HD
ENDBRANCH  28  29
ENDBRANCH   3  28
TORSDOF 6
ENDMDL
MODEL 7
REMARK VINA RESULT:      -7.5      1.274      1.758
REMARK  Name = 
REMARK  6 active torsions:
REMARK  status: ('A' for Active; 'I' for Inactive)
REMARK    1  A    between atoms: C_2  and  C_3
REMARK    2  A    between atoms: C_4  and  C_5
REMARK    3  A    between atoms: C_8  and  C_9
REMARK    4  A    between atoms: C_18  and  C_19
REMARK    5  A    between atoms: C_19  and  O_20
REMARK    6  A    between atoms: C_22  and  C_24
REMARK                            x       y       z     vdW  Elec       q    Type
REMARK                         _______ _______ _______ _____ _____    ______ ____
ROOT
ATOM      1  C   UNK     1      -0.251  11.550  20.562  0.00  0.00    +0.000 C 
ATOM      2  C   UNK     1       0.532  11.158  19.282  0.00  0.00    +0.000 C 
ATOM      3  C   UNK     1       1.507  12.327  19.588  0.00  0.00    +0.000 C 
ATOM      4  N   UNK     1       0.420  12.855  20.416  0.00  0.00    +0.000 N 
ATOM      5  C   UNK     1       0.370  13.950  21.246  0.00  0.00    +0.000 C 
ATOM      6  O   UNK     1       1.283  14.768  21.321  0.00  0.00    +0.000 OA
ENDROOT
BRANCH   2   7
ATOM      7  C   UNK     1       1.099   9.700  19.106  0.00  0.00    +0.000 A 
ATOM      8  C   UNK     1       1.235   8.829  20.200  0.00  0.00    +0.000 A 
ATOM      9  C   UNK     1       1.834   7.574  20.070  0.00  0.00    +0.000 A 
ATOM     10  C   UNK     1       2.351   7.137  18.844  0.00  0.00    +0.000 A 
ATOM     11  C   UNK     1       2.164   7.978  17.739  0.00  0.00    +0.000 A 
ATOM     12  C   UNK     1       1.529   9.209  17.865  0.00  0.00    +0.000 A 
BRANCH  10  13
ATOM     13  C   UNK     1       3.072   5.855  18.708  0.00  0.00    +0.000 A 
ATOM     14  C   UNK     1       4.337   5.672  19.299  0.00  0.00    +0.000 A 
ATOM     15  C   UNK     1       5.025   4.463  19.189  0.00  0.00    +0.000 A 
ATOM     16  C   UNK     1       4.465   3.407  18.482  0.00  0.00    +0.000 A 
ATOM     17  C   UNK     1       3.215   3.556  17.891  0.00  0.00    +0.000 A 
ATOM     18  C   UNK     1       2.530   4.761  18.013  0.00  0.00    +0.000 A 
ATOM     19  F   UNK     1       1.314   4.834  17.447  0.00  0.00    +0.000 F 
ENDBRANCH  10  13
ENDBRANCH   2   7
BRANCH   5  20
ATOM     20  C   UNK     1      -0.887  14.113  22.055  0.00  0.00    +0.000 A 
ATOM     21  C   UNK     1      -2.107  14.295  21.419  0.00  0.00    +0.000 A 
ATOM     22  C   UNK     1      -3.232  14.511  22.209  0.00  0.00    +0.000 A 
ATOM     23  C   UNK     1      -3.114  14.498  23.597  0.00  0.00    +0.000 A 
ATOM     24  C   UNK     1      -1.866  14.270  24.148  0.00  0.00    +0.000 A 
ATOM     25  N   UNK     1      -0.747  14.092  23.411  0.00  0.00    +0.000 NA
ENDBRANCH   5  20
BRANCH   1  27
ATOM     26  N   UNK     1       0.307  10.363  22.835  0.00  0.00    +0.000 NA
ATOM     27  C   UNK     1       0.059  10.879  21.827  0.00  0.00    +0.000 C 
ENDBRANCH   1  27
BRANCH   3  28
ATOM     28  C   UNK     1       1.837  13.150  18.351  0.00  0.00    +0.000 C 
BRANCH  28  29
ATOM     29  O   UNK     1       2.805  12.488  17.547  0.00  0.00    +0.000 OA
ATOM     30  H   UNK     1       3.523  13.127  17.370  0.00  0.00    +0.000 HD
ENDBRANCH  28  29
ENDBRANCH   3  28
TORSDOF 6
ENDMDL
MODEL 8
REMARK VINA RESULT:      -7.5      5.100     10.110
REMARK  Name = 
REMARK  6 active torsions:
REMARK  status: ('A' for Active; 'I' for Inactive)
REMARK    1  A    between atoms: C_2  and  C_3
REMARK    2  A    between atoms: C_4  and  C_5
REMARK    3  A    between atoms: C_8  and  C_9
REMARK    4  A    between atoms: C_18  and  C_19
REMARK    5  A    between atoms: C_19  and  O_20
REMARK    6  A    between atoms: C_22  and  C_24
REMARK                            x       y       z     vdW  Elec       q    Type
REMARK                         _______ _______ _______ _____ _____    ______ ____
ROOT
ATOM      1  C   UNK     1       4.319   5.867  16.844  0.00  0.00    +0.000 C 
ATOM      2  C   UNK     1       3.365   5.583  18.033  0.00  0.00    +0.000 C 
ATOM      3  C   UNK     1       4.537   4.832  18.721  0.00  0.00    +0.000 C 
ATOM      4  N   UNK     1       5.107   4.740  17.374  0.00  0.00    +0.000 N 
ATOM      5  C   UNK     1       6.316   4.249  16.940  0.00  0.00    +0.000 C 
ATOM      6  O   UNK     1       7.102   3.668  17.682  0.00  0.00    +0.000 OA
ENDROOT
BRANCH   2   7
ATOM      7  C   UNK     1       2.652   6.766  18.787  0.00  0.00    +0.000 A 
ATOM      8  C   UNK     1       2.274   6.655  20.135  0.00  0.00    +0.000 A 
ATOM      9  C   UNK     1       1.549   7.659  20.781  0.00  0.00    +0.000 A 
ATOM     10  C   UNK     1       1.141   8.814  20.101  0.00  0.00    +0.000 A 
ATOM     11  C   UNK     1       1.566   8.955  18.774  0.00  0.00    +0.000 A 
ATOM     12  C   UNK     1       2.325   7.971  18.148  0.00  0.00    +0.000 A 
BRANCH  10  13
ATOM     13  C   UNK     1       0.293   9.842  20.740  0.00  0.00    +0.000 A 
ATOM     14  C   UNK     1      -0.401  10.789  19.963  0.00  0.00    +0.000 A 
ATOM     15  C   UNK     1      -1.215  11.758  20.550  0.00  0.00    +0.000 A 
ATOM     16  C   UNK     1      -1.351  11.806  21.931  0.00  0.00    +0.000 A 
ATOM     17  C   UNK     1      -0.681  10.881  22.725  0.00  0.00    +0.000 A 
ATOM     18  C   UNK     1       0.121   9.911  22.132  0.00  0.00    +0.000 A 
ATOM     19  F   UNK     1       0.718   9.028  22.948  0.00  0.00    +0.000 F 
ENDBRANCH  10  13
ENDBRANCH   2   7
BRANCH   5  20
ATOM     20  C   UNK     1       6.624   4.441  15.481  0.00  0.00    +0.000 A 
ATOM     21  C   UNK     1       5.926   3.723  14.520  0.00  0.00    +0.000 A 
ATOM     22  C   UNK     1       6.294   3.883  13.187  0.00  0.00    +0.000 A 
ATOM     23  C   UNK     1       7.309   4.776  12.853  0.00  0.00    +0.000 A 
ATOM     24  C   UNK     1       7.925   5.480  13.871  0.00  0.00    +0.000 A 
ATOM     25  N   UNK     1       7.618   5.324  15.178  0.00  0.00    +0.000 NA
ENDBRANCH   5  20
BRANCH   1  27
ATOM     26  N   UNK     1       5.669   8.116  16.787  0.00  0.00    +0.000 NA
ATOM     27  C   UNK     1       5.066   7.128  16.808  0.00  0.00    +0.000 C 
ENDBRANCH   1  27
BRANCH   3  28
ATOM     28  C   UNK     1       4.102   3.508  19.333  0.00  0.00    +0.000 C 
BRANCH  28  29
ATOM     29  O   UNK     1       5.226   2.773  19.800  0.00  0.00    +0.000 OA
ATOM     30  H   UNK     1       5.625   3.285  20.531  0.00  0.00    +0.000 HD
ENDBRANCH  28  29
ENDBRANCH   3  28
TORSDOF 6
ENDMDL
MODEL 9
REMARK VINA RESULT:      -7.5      1.231      1.233
REMARK  Name = 
REMARK  6 active torsions:
REMARK  status: ('A' for Active; 'I' for Inactive)
REMARK    1  A    between atoms: C_2  and  C_3
REMARK    2  A    between atoms: C_4  and  C_5
REMARK    3  A    between atoms: C_8  and  C_9
REMARK    4  A    between atoms: C_18  and  C_19
REMARK    5  A    between atoms: C_19  and  O_20
REMARK    6  A    between atoms: C_22  and  C_24
REMARK                            x       y       z     vdW  Elec       q    Type
REMARK                         _______ _______ _______ _____ _____    ______ ____
ROOT
ATOM      1  C   UNK     1      -0.663  11.105  20.745  0.00  0.00    +0.000 C 
ATOM      2  C   UNK     1       0.220  10.716  19.532  0.00  0.00    +0.000 C 
ATOM      3  C   UNK     1       0.935  12.086  19.684  0.00  0.00    +0.000 C 
ATOM      4  N   UNK     1      -0.260  12.488  20.432  0.00  0.00    +0.000 N 
ATOM      5  C   UNK     1      -0.551  13.649  21.109  0.00  0.00    +0.000 C 
ATOM      6  O   UNK     1       0.179  14.635  21.079  0.00  0.00    +0.000 OA
ENDROOT
BRANCH   2   7
ATOM      7  C   UNK     1       1.070   9.391  19.552  0.00  0.00    +0.000 A 
ATOM      8  C   UNK     1       1.764   8.947  18.415  0.00  0.00    +0.000 A 
ATOM      9  C   UNK     1       2.434   7.721  18.394  0.00  0.00    +0.000 A 
ATOM     10  C   UNK     1       2.419   6.865  19.502  0.00  0.00    +0.000 A 
ATOM     11  C   UNK     1       1.778   7.331  20.657  0.00  0.00    +0.000 A 
ATOM     12  C   UNK     1       1.149   8.571  20.687  0.00  0.00    +0.000 A 
BRANCH  10  13
ATOM     13  C   UNK     1       3.040   5.525  19.466  0.00  0.00    +0.000 A 
ATOM     14  C   UNK     1       4.415   5.373  19.207  0.00  0.00    +0.000 A 
ATOM     15  C   UNK     1       5.018   4.115  19.181  0.00  0.00    +0.000 A 
ATOM     16  C   UNK     1       4.258   2.976  19.411  0.00  0.00    +0.000 A 
ATOM     17  C   UNK     1       2.897   3.094  19.675  0.00  0.00    +0.000 A 
ATOM     18  C   UNK     1       2.305   4.353  19.708  0.00  0.00    +0.000 A 
ATOM     19  F   UNK     1       0.994   4.405  19.998  0.00  0.00    +0.000 F 
ENDBRANCH  10  13
ENDBRANCH   2   7
BRANCH   5  20
ATOM     20  C   UNK     1      -1.839  13.659  21.885  0.00  0.00    +0.000 A 
ATOM     21  C   UNK     1      -1.817  13.690  23.272  0.00  0.00    +0.000 A 
ATOM     22  C   UNK     1      -3.032  13.627  23.948  0.00  0.00    +0.000 A 
ATOM     23  C   UNK     1      -4.222  13.578  23.226  0.00  0.00    +0.000 A 
ATOM     24  C   UNK     1      -4.153  13.591  21.845  0.00  0.00    +0.000 A 
ATOM     25  N   UNK     1      -2.990  13.615  21.156  0.00  0.00    +0.000 NA
ENDBRANCH   5  20
BRANCH   1  27
ATOM     26  N   UNK     1       0.065  10.335  23.146  0.00  0.00    +0.000 NA
ATOM     27  C   UNK     1      -0.265  10.678  22.090  0.00  0.00    +0.000 C 
ENDBRANCH   1  27
BRANCH   3  28
ATOM     28  C   UNK     1       1.133  12.792  18.351  0.00  0.00    +0.000 C 
BRANCH  28  29
ATOM     29  O   UNK     1       2.384  12.443  17.774  0.00  0.00    +0.000 OA
ATOM     30  H   UNK     1       2.996  12.238  18.508  0.00  0.00    +0.000 HD
ENDBRANCH  28  29
ENDBRANCH   3  28
TORSDOF 6
ENDMDL
