MODEL 1
REMARK VINA RESULT:      -8.5      0.000      0.000
REMARK  Name = 
REMARK  7 active torsions:
REMARK  status: ('A' for Active; 'I' for Inactive)
REMARK    1  A    between atoms: C_1  and  O_2
REMARK    2  A    between atoms: O_2  and  C_3
REMARK    3  A    between atoms: C_8  and  C_9
REMARK    4  A    between atoms: C_12  and  C_13
REMARK    5  A    between atoms: C_13  and  O_14
REMARK    6  A    between atoms: O_14  and  C_15
REMARK    7  A    between atoms: C_19  and  C_20
REMARK                            x       y       z     vdW  Elec       q    Type
REMARK                         _______ _______ _______ _____ _____    ______ ____
ROOT
ATOM      1  C   UNL     1       1.435   5.285  20.361  0.00  0.00    +0.000 C 
ENDROOT
BRANCH   1   5
ATOM      2  C   UNL     1       4.013   4.091  18.397  0.00  0.00    +0.000 C 
ATOM      3  N   UNL     1       4.189   3.413  19.487  0.00  0.00    +0.000 NA
ATOM      4  O   UNL     1       2.996   3.444  20.233  0.00  0.00    +0.000 OA
ATOM      5  C   UNL     1       1.992   4.155  19.499  0.00  0.00    +0.000 C 
ATOM      6  C   UNL     1       2.653   4.668  18.238  0.00  0.00    +0.000 C 
BRANCH   2  12
ATOM      7  C   UNL     1       6.414   4.698  17.736  0.00  0.00    +0.000 A 
ATOM      8  C   UNL     1       7.376   4.792  16.715  0.00  0.00    +0.000 A 
ATOM      9  C   UNL     1       7.048   4.526  15.391  0.00  0.00    +0.000 A 
ATOM     10  C   UNL     1       5.750   4.150  15.051  0.00  0.00    +0.000 A 
ATOM     11  C   UNL     1       4.789   4.039  16.063  0.00  0.00    +0.000 A 
ATOM     12  C   UNL     1       5.109   4.284  17.405  0.00  0.00    +0.000 A 
BRANCH   7  14
ATOM     13  C   UNL     1       7.864   5.766  19.277  0.00  0.00    +0.000 C 
ATOM     14  O   UNL     1       6.728   4.928  19.045  0.00  0.00    +0.000 OA
ENDBRANCH   7  14
ENDBRANCH   2  12
ENDBRANCH   1   5
BRANCH   1  15
ATOM     15  O   UNL     1       2.351   6.383  20.316  0.00  0.00    +0.000 OA
BRANCH  15  16
ATOM     16  C   UNL     1       1.814   7.637  20.288  0.00  0.00    +0.000 A 
ATOM     17  C   UNL     1       1.767   8.229  19.023  0.00  0.00    +0.000 A 
ATOM     18  C   UNL     1       1.234   9.511  18.842  0.00  0.00    +0.000 A 
ATOM     19  C   UNL     1       0.722  10.228  19.925  0.00  0.00    +0.000 A 
ATOM     20  C   UNL     1      -0.037  11.478  19.804  0.00  0.00    +0.000 A 
ATOM     21  C   UNL     1      -0.102  12.282  18.536  0.00  0.00    +0.000 C 
ATOM     22  C   UNL     1      -0.753  11.867  20.870  0.00  0.00    +0.000 A 
ATOM     23  C   UNL     1      -0.403  11.422  22.226  0.00  0.00    +0.000 A 
ATOM     24  O   UNL     1      -0.710  12.104  23.197  0.00  0.00    +0.000 OA
ATOM     25  O   UNL     1       0.330  10.262  22.344  0.00  0.00    +0.000 OA
ATOM     26  C   UNL     1       0.803   9.623  21.185  0.00  0.00    +0.000 A 
ATOM     27  C   UNL     1       1.333   8.342  21.378  0.00  0.00    +0.000 A 
ENDBRANCH  15  16
ENDBRANCH   1  15
TORSDOF 5
ENDMDL
MODEL 2
REMARK VINA RESULT:      -8.3      2.089      6.840
REMARK  Name = 
REMARK  7 active torsions:
REMARK  status: ('A' for Active; 'I' for Inactive)
REMARK    1  A    between atoms: C_1  and  O_2
REMARK    2  A    between atoms: O_2  and  C_3
REMARK    3  A    between atoms: C_8  and  C_9
REMARK    4  A    between atoms: C_12  and  C_13
REMARK    5  A    between atoms: C_13  and  O_14
REMARK    6  A    between atoms: O_14  and  C_15
REMARK    7  A    between atoms: C_19  and  C_20
REMARK                            x       y       z     vdW  Elec       q    Type
REMARK                         _______ _______ _______ _____ _____    ______ ____
ROOT
ATOM      1  C   UNL     1       3.028   2.417  21.395  0.00  0.00    +0.000 C 
ENDROOT
BRANCH   1   5
ATOM      2  C   UNL     1       1.706   5.344  20.124  0.00  0.00    +0.000 C 
ATOM      3  N   UNL     1       0.871   4.468  19.662  0.00  0.00    +0.000 NA
ATOM      4  O   UNL     1       0.994   3.287  20.421  0.00  0.00    +0.000 OA
ATOM      5  C   UNL     1       1.947   3.492  21.471  0.00  0.00    +0.000 C 
ATOM      6  C   UNL     1       2.509   4.884  21.287  0.00  0.00    +0.000 C 
BRANCH   2  12
ATOM      7  C   UNL     1       1.359   7.883  20.078  0.00  0.00    +0.000 A 
ATOM      8  C   UNL     1       1.605   9.103  19.425  0.00  0.00    +0.000 A 
ATOM      9  C   UNL     1       2.284   9.145  18.213  0.00  0.00    +0.000 A 
ATOM     10  C   UNL     1       2.744   7.969  17.624  0.00  0.00    +0.000 A 
ATOM     11  C   UNL     1       2.516   6.751  18.274  0.00  0.00    +0.000 A 
ATOM     12  C   UNL     1       1.850   6.693  19.507  0.00  0.00    +0.000 A 
BRANCH   7  14
ATOM     13  C   UNL     1      -0.132   8.937  21.591  0.00  0.00    +0.000 C 
ATOM     14  O   UNL     1       0.718   7.828  21.283  0.00  0.00    +0.000 OA
ENDBRANCH   7  14
ENDBRANCH   2  12
ENDBRANCH   1   5
BRANCH   1  15
ATOM     15  O   UNL     1       3.181   2.024  20.028  0.00  0.00    +0.000 OA
BRANCH  15  16
ATOM     16  C   UNL     1       3.921   2.844  19.226  0.00  0.00    +0.000 A 
ATOM     17  C   UNL     1       3.535   2.858  17.883  0.00  0.00    +0.000 A 
ATOM     18  C   UNL     1       4.200   3.659  16.946  0.00  0.00    +0.000 A 
ATOM     19  C   UNL     1       5.261   4.478  17.337  0.00  0.00    +0.000 A 
ATOM     20  C   UNL     1       5.877   5.496  16.479  0.00  0.00    +0.000 A 
ATOM     21  C   UNL     1       5.639   5.579  14.998  0.00  0.00    +0.000 C 
ATOM     22  C   UNL     1       6.635   6.428  17.080  0.00  0.00    +0.000 A 
ATOM     23  C   UNL     1       7.268   6.172  18.380  0.00  0.00    +0.000 A 
ATOM     24  O   UNL     1       8.290   6.770  18.697  0.00  0.00    +0.000 OA
ATOM     25  O   UNL     1       6.707   5.200  19.178  0.00  0.00    +0.000 OA
ATOM     26  C   UNL     1       5.643   4.427  18.683  0.00  0.00    +0.000 A 
ATOM     27  C   UNL     1       4.986   3.631  19.627  0.00  0.00    +0.000 A 
ENDBRANCH  15  16
ENDBRANCH   1  15
TORSDOF 5
ENDMDL
MODEL 3
REMARK VINA RESULT:      -8.2      1.403      1.990
REMARK  Name = 
REMARK  7 active torsions:
REMARK  status: ('A' for Active; 'I' for Inactive)
REMARK    1  A    between atoms: C_1  and  O_2
REMARK    2  A    between atoms: O_2  and  C_3
REMARK    3  A    between atoms: C_8  and  C_9
REMARK    4  A    between atoms: C_12  and  C_13
REMARK    5  A    between atoms: C_13  and  O_14
REMARK    6  A    between atoms: O_14  and  C_15
REMARK    7  A    between atoms: C_19  and  C_20
REMARK                            x       y       z     vdW  Elec       q    Type
REMARK                         _______ _______ _______ _____ _____    ______ ____
ROOT
ATOM      1  C   UNL     1       1.859   5.718  20.425  0.00  0.00    +0.000 C 
ENDROOT
BRANCH   1   5
ATOM      2  C   UNL     1       4.149   4.456  18.168  0.00  0.00    +0.000 C 
ATOM      3  N   UNL     1       4.362   3.698  19.196  0.00  0.00    +0.000 NA
ATOM      4  O   UNL     1       3.244   3.773  20.050  0.00  0.00    +0.000 OA
ATOM      5  C   UNL     1       2.244   4.607  19.452  0.00  0.00    +0.000 C 
ATOM      6  C   UNL     1       2.833   5.147  18.168  0.00  0.00    +0.000 C 
BRANCH   2  12
ATOM      7  C   UNL     1       6.355   5.370  17.236  0.00  0.00    +0.000 A 
ATOM      8  C   UNL     1       7.264   5.413  16.165  0.00  0.00    +0.000 A 
ATOM      9  C   UNL     1       6.988   4.773  14.962  0.00  0.00    +0.000 A 
ATOM     10  C   UNL     1       5.799   4.064  14.801  0.00  0.00    +0.000 A 
ATOM     11  C   UNL     1       4.894   4.004  15.868  0.00  0.00    +0.000 A 
ATOM     12  C   UNL     1       5.167   4.627  17.093  0.00  0.00    +0.000 A 
BRANCH   7  14
ATOM     13  C   UNL     1       7.867   6.675  18.514  0.00  0.00    +0.000 C 
ATOM     14  O   UNL     1       6.624   5.970  18.433  0.00  0.00    +0.000 OA
ENDBRANCH   7  14
ENDBRANCH   2  12
ENDBRANCH   1   5
BRANCH   1  15
ATOM     15  O   UNL     1       2.391   6.953  19.936  0.00  0.00    +0.000 OA
BRANCH  15  16
ATOM     16  C   UNL     1       1.657   8.079  20.167  0.00  0.00    +0.000 A 
ATOM     17  C   UNL     1       1.221   8.237  21.486  0.00  0.00    +0.000 A 
ATOM     18  C   UNL     1       0.465   9.351  21.871  0.00  0.00    +0.000 A 
ATOM     19  C   UNL     1       0.137  10.343  20.945  0.00  0.00    +0.000 A 
ATOM     20  C   UNL     1      -0.466  11.633  21.295  0.00  0.00    +0.000 A 
ATOM     21  C   UNL     1      -1.067  11.923  22.642  0.00  0.00    +0.000 C 
ATOM     22  C   UNL     1      -0.408  12.608  20.375  0.00  0.00    +0.000 A 
ATOM     23  C   UNL     1      -0.267  12.299  18.946  0.00  0.00    +0.000 A 
ATOM     24  O   UNL     1      -0.678  13.085  18.101  0.00  0.00    +0.000 OA
ATOM     25  O   UNL     1       0.277  11.078  18.612  0.00  0.00    +0.000 OA
ATOM     26  C   UNL     1       0.564  10.149  19.626  0.00  0.00    +0.000 A 
ATOM     27  C   UNL     1       1.321   9.041  19.230  0.00  0.00    +0.000 A 
ENDBRANCH  15  16
ENDBRANCH   1  15
TORSDOF 5
ENDMDL
MODEL 4
REMARK VINA RESULT:      -8.2      2.553      7.073
REMARK  Name = 
REMARK  7 active torsions:
REMARK  status: ('A' for Active; 'I' for Inactive)
REMARK    1  A    between atoms: C_1  and  O_2
REMARK    2  A    between atoms: O_2  and  C_3
REMARK    3  A    between atoms: C_8  and  C_9
REMARK    4  A    between atoms: C_12  and  C_13
REMARK    5  A    between atoms: C_13  and  O_14
REMARK    6  A    between atoms: O_14  and  C_15
REMARK    7  A    between atoms: C_19  and  C_20
REMARK                            x       y       z     vdW  Elec       q    Type
REMARK                         _______ _______ _______ _____ _____    ______ ____
ROOT
ATOM      1  C   UNL     1       3.284   2.275  20.977  0.00  0.00    +0.000 C 
ENDROOT
BRANCH   1   5
ATOM      2  C   UNL     1       1.505   5.224  20.716  0.00  0.00    +0.000 C 
ATOM      3  N   UNL     1       0.693   4.387  20.152  0.00  0.00    +0.000 NA
ATOM      4  O   UNL     1       1.047   3.082  20.546  0.00  0.00    +0.000 OA
ATOM      5  C   UNL     1       2.133   3.144  21.478  0.00  0.00    +0.000 C 
ATOM      6  C   UNL     1       2.525   4.600  21.599  0.00  0.00    +0.000 C 
BRANCH   2  12
ATOM      7  C   UNL     1       2.103   7.360  19.433  0.00  0.00    +0.000 A 
ATOM      8  C   UNL     1       1.900   8.742  19.267  0.00  0.00    +0.000 A 
ATOM      9  C   UNL     1       1.076   9.455  20.128  0.00  0.00    +0.000 A 
ATOM     10  C   UNL     1       0.423   8.806  21.175  0.00  0.00    +0.000 A 
ATOM     11  C   UNL     1       0.608   7.428  21.339  0.00  0.00    +0.000 A 
ATOM     12  C   UNL     1       1.421   6.691  20.467  0.00  0.00    +0.000 A 
BRANCH   7  14
ATOM     13  C   UNL     1       3.516   7.384  17.529  0.00  0.00    +0.000 C 
ATOM     14  O   UNL     1       2.888   6.640  18.578  0.00  0.00    +0.000 OA
ENDBRANCH   7  14
ENDBRANCH   2  12
ENDBRANCH   1   5
BRANCH   1  15
ATOM     15  O   UNL     1       3.195   2.181  19.553  0.00  0.00    +0.000 OA
BRANCH  15  16
ATOM     16  C   UNL     1       4.058   2.947  18.826  0.00  0.00    +0.000 A 
ATOM     17  C   UNL     1       3.953   2.798  17.440  0.00  0.00    +0.000 A 
ATOM     18  C   UNL     1       4.771   3.528  16.568  0.00  0.00    +0.000 A 
ATOM     19  C   UNL     1       5.707   4.436  17.064  0.00  0.00    +0.000 A 
ATOM     20  C   UNL     1       6.455   5.387  16.235  0.00  0.00    +0.000 A 
ATOM     21  C   UNL     1       6.520   5.300  14.736  0.00  0.00    +0.000 C 
ATOM     22  C   UNL     1       7.048   6.415  16.863  0.00  0.00    +0.000 A 
ATOM     23  C   UNL     1       7.412   6.332  18.284  0.00  0.00    +0.000 A 
ATOM     24  O   UNL     1       8.331   7.011  18.726  0.00  0.00    +0.000 OA
ATOM     25  O   UNL     1       6.729   5.423  19.061  0.00  0.00    +0.000 OA
ATOM     26  C   UNL     1       5.810   4.549  18.457  0.00  0.00    +0.000 A 
ATOM     27  C   UNL     1       4.998   3.826  19.337  0.00  0.00    +0.000 A 
ENDBRANCH  15  16
ENDBRANCH   1  15
TORSDOF 5
ENDMDL
MODEL 5
REMARK VINA RESULT:      -8.2      5.617      7.638
REMARK  Name = 
REMARK  7 active torsions:
REMARK  status: ('A' for Active; 'I' for Inactive)
REMARK    1  A    between atoms: C_1  and  O_2
REMARK    2  A    between atoms: O_2  and  C_3
REMARK    3  A    between atoms: C_8  and  C_9
REMARK    4  A    between atoms: C_12  and  C_13
REMARK    5  A    between atoms: C_13  and  O_14
REMARK    6  A    between atoms: O_14  and  C_15
REMARK    7  A    between atoms: C_19  and  C_20
REMARK                            x       y       z     vdW  Elec       q    Type
REMARK                         _______ _______ _______ _____ _____    ______ ____
ROOT
ATOM      1  C   UNL     1       7.991   8.552  17.717  0.00  0.00    +0.000 C 
ENDROOT
BRANCH   1   5
ATOM      2  C   UNL     1       5.769   5.944  17.286  0.00  0.00    +0.000 C 
ATOM      3  N   UNL     1       6.374   5.952  16.141  0.00  0.00    +0.000 NA
ATOM      4  O   UNL     1       7.590   6.650  16.282  0.00  0.00    +0.000 OA
ATOM      5  C   UNL     1       7.758   7.045  17.648  0.00  0.00    +0.000 C 
ATOM      6  C   UNL     1       6.505   6.625  18.384  0.00  0.00    +0.000 C 
BRANCH   2  12
ATOM      7  C   UNL     1       3.277   6.008  17.882  0.00  0.00    +0.000 A 
ATOM      8  C   UNL     1       2.056   5.314  17.959  0.00  0.00    +0.000 A 
ATOM      9  C   UNL     1       1.982   3.957  17.670  0.00  0.00    +0.000 A 
ATOM     10  C   UNL     1       3.124   3.256  17.287  0.00  0.00    +0.000 A 
ATOM     11  C   UNL     1       4.341   3.942  17.193  0.00  0.00    +0.000 A 
ATOM     12  C   UNL     1       4.429   5.315  17.462  0.00  0.00    +0.000 A 
BRANCH   7  14
ATOM     13  C   UNL     1       2.168   8.103  17.906  0.00  0.00    +0.000 C 
ATOM     14  O   UNL     1       3.361   7.347  18.136  0.00  0.00    +0.000 OA
ENDBRANCH   7  14
ENDBRANCH   2  12
ENDBRANCH   1   5
BRANCH   1  15
ATOM     15  O   UNL     1       8.767   8.838  18.884  0.00  0.00    +0.000 OA
BRANCH  15  16
ATOM     16  C   UNL     1       9.202  10.121  19.040  0.00  0.00    +0.000 A 
ATOM     17  C   UNL     1       9.658  10.735  17.871  0.00  0.00    +0.000 A 
ATOM     18  C   UNL     1      10.127  12.055  17.879  0.00  0.00    +0.000 A 
ATOM     19  C   UNL     1      10.137  12.798  19.061  0.00  0.00    +0.000 A 
ATOM     20  C   UNL     1      10.411  14.238  19.129  0.00  0.00    +0.000 A 
ATOM     21  C   UNL     1      10.995  15.020  17.986  0.00  0.00    +0.000 C 
ATOM     22  C   UNL     1      10.053  14.878  20.253  0.00  0.00    +0.000 A 
ATOM     23  C   UNL     1       9.913  14.160  21.527  0.00  0.00    +0.000 A 
ATOM     24  O   UNL     1      10.061  14.754  22.589  0.00  0.00    +0.000 OA
ATOM     25  O   UNL     1       9.680  12.804  21.468  0.00  0.00    +0.000 OA
ATOM     26  C   UNL     1       9.698  12.152  20.223  0.00  0.00    +0.000 A 
ATOM     27  C   UNL     1       9.227  10.835  20.226  0.00  0.00    +0.000 A 
ENDBRANCH  15  16
ENDBRANCH   1  15
TORSDOF 5
ENDMDL
MODEL 6
REMARK VINA RESULT:      -8.1      5.756      7.778
REMARK  Name = 
REMARK  7 active torsions:
REMARK  status: ('A' for Active; 'I' for Inactive)
REMARK    1  A    between atoms: C_1  and  O_2
REMARK    2  A    between atoms: O_2  and  C_3
REMARK    3  A    between atoms: C_8  and  C_9
REMARK    4  A    between atoms: C_12  and  C_13
REMARK    5  A    between atoms: C_13  and  O_14
REMARK    6  A    between atoms: O_14  and  C_15
REMARK    7  A    between atoms: C_19  and  C_20
REMARK                            x       y       z     vdW  Elec       q    Type
REMARK                         _______ _______ _______ _____ _____    ______ ____
ROOT
ATOM      1  C   UNL     1       7.869   8.684  17.787  0.00  0.00    +0.000 C 
ENDROOT
BRANCH   1   5
ATOM      2  C   UNL     1       5.782   5.976  17.297  0.00  0.00    +0.000 C 
ATOM      3  N   UNL     1       6.433   6.000  16.178  0.00  0.00    +0.000 NA
ATOM      4  O   UNL     1       7.611   6.751  16.359  0.00  0.00    +0.000 OA
ATOM      5  C   UNL     1       7.705   7.167  17.726  0.00  0.00    +0.000 C 
ATOM      6  C   UNL     1       6.442   6.700  18.415  0.00  0.00    +0.000 C 
BRANCH   2  12
ATOM      7  C   UNL     1       3.323   5.872  18.012  0.00  0.00    +0.000 A 
ATOM      8  C   UNL     1       2.120   5.143  18.026  0.00  0.00    +0.000 A 
ATOM      9  C   UNL     1       2.056   3.853  17.513  0.00  0.00    +0.000 A 
ATOM     10  C   UNL     1       3.190   3.258  16.962  0.00  0.00    +0.000 A 
ATOM     11  C   UNL     1       4.388   3.982  16.930  0.00  0.00    +0.000 A 
ATOM     12  C   UNL     1       4.465   5.291  17.426  0.00  0.00    +0.000 A 
BRANCH   7  14
ATOM     13  C   UNL     1       2.591   8.117  17.803  0.00  0.00    +0.000 C 
ATOM     14  O   UNL     1       3.395   7.150  18.486  0.00  0.00    +0.000 OA
ENDBRANCH   7  14
ENDBRANCH   2  12
ENDBRANCH   1   5
BRANCH   1  15
ATOM     15  O   UNL     1       8.997   8.985  18.614  0.00  0.00    +0.000 OA
BRANCH  15  16
ATOM     16  C   UNL     1       9.179  10.291  18.963  0.00  0.00    +0.000 A 
ATOM     17  C   UNL     1       9.321  10.519  20.334  0.00  0.00    +0.000 A 
ATOM     18  C   UNL     1       9.523  11.811  20.838  0.00  0.00    +0.000 A 
ATOM     19  C   UNL     1       9.601  12.905  19.975  0.00  0.00    +0.000 A 
ATOM     20  C   UNL     1      10.013  14.252  20.385  0.00  0.00    +0.000 A 
ATOM     21  C   UNL     1      10.116  14.680  21.823  0.00  0.00    +0.000 C 
ATOM     22  C   UNL     1      10.373  15.106  19.415  0.00  0.00    +0.000 A 
ATOM     23  C   UNL     1       9.889  14.942  18.037  0.00  0.00    +0.000 A 
ATOM     24  O   UNL     1       9.805  15.912  17.293  0.00  0.00    +0.000 OA
ATOM     25  O   UNL     1       9.478  13.685  17.655  0.00  0.00    +0.000 OA
ATOM     26  C   UNL     1       9.432  12.653  18.608  0.00  0.00    +0.000 A 
ATOM     27  C   UNL     1       9.230  11.368  18.095  0.00  0.00    +0.000 A 
ENDBRANCH  15  16
ENDBRANCH   1  15
TORSDOF 5
ENDMDL
MODEL 7
REMARK VINA RESULT:      -8.0      1.295      1.561
REMARK  Name = 
REMARK  7 active torsions:
REMARK  status: ('A' for Active; 'I' for Inactive)
REMARK    1  A    between atoms: C_1  and  O_2
REMARK    2  A    between atoms: O_2  and  C_3
REMARK    3  A    between atoms: C_8  and  C_9
REMARK    4  A    between atoms: C_12  and  C_13
REMARK    5  A    between atoms: C_13  and  O_14
REMARK    6  A    between atoms: O_14  and  C_15
REMARK    7  A    between atoms: C_19  and  C_20
REMARK                            x       y       z     vdW  Elec       q    Type
REMARK                         _______ _______ _______ _____ _____    ______ ____
ROOT
ATOM      1  C   UNL     1       2.684   5.155  19.552  0.00  0.00    +0.000 C 
ENDROOT
BRANCH   1   5
ATOM      2  C   UNL     1       5.148   4.257  17.305  0.00  0.00    +0.000 C 
ATOM      3  N   UNL     1       5.779   4.148  18.431  0.00  0.00    +0.000 NA
ATOM      4  O   UNL     1       4.833   4.053  19.469  0.00  0.00    +0.000 OA
ATOM      5  C   UNL     1       3.513   4.045  18.913  0.00  0.00    +0.000 C 
ATOM      6  C   UNL     1       3.666   4.231  17.419  0.00  0.00    +0.000 C 
BRANCH   2  12
ATOM      7  C   UNL     1       7.057   5.158  15.852  0.00  0.00    +0.000 A 
ATOM      8  C   UNL     1       7.674   5.191  14.589  0.00  0.00    +0.000 A 
ATOM      9  C   UNL     1       7.108   4.545  13.496  0.00  0.00    +0.000 A 
ATOM     10  C   UNL     1       5.915   3.839  13.637  0.00  0.00    +0.000 A 
ATOM     11  C   UNL     1       5.302   3.788  14.894  0.00  0.00    +0.000 A 
ATOM     12  C   UNL     1       5.869   4.418  16.011  0.00  0.00    +0.000 A 
BRANCH   7  14
ATOM     13  C   UNL     1       7.309   7.152  17.110  0.00  0.00    +0.000 C 
ATOM     14  O   UNL     1       7.615   5.764  16.941  0.00  0.00    +0.000 OA
ENDBRANCH   7  14
ENDBRANCH   2  12
ENDBRANCH   1   5
BRANCH   1  15
ATOM     15  O   UNL     1       2.632   6.261  18.646  0.00  0.00    +0.000 OA
BRANCH  15  16
ATOM     16  C   UNL     1       2.062   7.412  19.106  0.00  0.00    +0.000 A 
ATOM     17  C   UNL     1       1.890   8.409  18.141  0.00  0.00    +0.000 A 
ATOM     18  C   UNL     1       1.310   9.641  18.467  0.00  0.00    +0.000 A 
ATOM     19  C   UNL     1       0.875   9.901  19.768  0.00  0.00    +0.000 A 
ATOM     20  C   UNL     1       0.076  11.069  20.154  0.00  0.00    +0.000 A 
ATOM     21  C   UNL     1      -0.120  12.263  19.264  0.00  0.00    +0.000 C 
ATOM     22  C   UNL     1      -0.554  11.016  21.338  0.00  0.00    +0.000 A 
ATOM     23  C   UNL     1      -0.076  10.142  22.418  0.00  0.00    +0.000 A 
ATOM     24  O   UNL     1      -0.315  10.420  23.587  0.00  0.00    +0.000 OA
ATOM     25  O   UNL     1       0.695   9.058  22.062  0.00  0.00    +0.000 OA
ATOM     26  C   UNL     1       1.082   8.895  20.721  0.00  0.00    +0.000 A 
ATOM     27  C   UNL     1       1.659   7.661  20.406  0.00  0.00    +0.000 A 
ENDBRANCH  15  16
ENDBRANCH   1  15
TORSDOF 5
ENDMDL
MODEL 8
REMARK VINA RESULT:      -8.0      5.107      7.361
REMARK  Name = 
REMARK  7 active torsions:
REMARK  status: ('A' for Active; 'I' for Inactive)
REMARK    1  A    between atoms: C_1  and  O_2
REMARK    2  A    between atoms: O_2  and  C_3
REMARK    3  A    between atoms: C_8  and  C_9
REMARK    4  A    between atoms: C_12  and  C_13
REMARK    5  A    between atoms: C_13  and  O_14
REMARK    6  A    between atoms: O_14  and  C_15
REMARK    7  A    between atoms: C_19  and  C_20
REMARK                            x       y       z     vdW  Elec       q    Type
REMARK                         _______ _______ _______ _____ _____    ______ ____
ROOT
ATOM      1  C   UNL     1       7.819   7.270  18.041  0.00  0.00    +0.000 C 
ENDROOT
BRANCH   1   5
ATOM      2  C   UNL     1       5.145   5.240  17.229  0.00  0.00    +0.000 C 
ATOM      3  N   UNL     1       5.200   6.014  16.191  0.00  0.00    +0.000 NA
ATOM      4  O   UNL     1       6.475   6.611  16.144  0.00  0.00    +0.000 OA
ATOM      5  C   UNL     1       7.279   6.105  17.216  0.00  0.00    +0.000 C 
ATOM      6  C   UNL     1       6.396   5.186  18.030  0.00  0.00    +0.000 C 
BRANCH   2  12
ATOM      7  C   UNL     1       2.702   5.096  17.989  0.00  0.00    +0.000 A 
ATOM      8  C   UNL     1       1.585   4.282  18.248  0.00  0.00    +0.000 A 
ATOM      9  C   UNL     1       1.667   2.898  18.152  0.00  0.00    +0.000 A 
ATOM     10  C   UNL     1       2.865   2.289  17.786  0.00  0.00    +0.000 A 
ATOM     11  C   UNL     1       3.979   3.092  17.512  0.00  0.00    +0.000 A 
ATOM     12  C   UNL     1       3.907   4.490  17.585  0.00  0.00    +0.000 A 
BRANCH   7  14
ATOM     13  C   UNL     1       2.492   7.019  19.361  0.00  0.00    +0.000 C 
ATOM     14  O   UNL     1       2.629   6.458  18.052  0.00  0.00    +0.000 OA
ENDBRANCH   7  14
ENDBRANCH   2  12
ENDBRANCH   1   5
BRANCH   1  15
ATOM     15  O   UNL     1       7.600   8.481  17.313  0.00  0.00    +0.000 OA
BRANCH  15  16
ATOM     16  C   UNL     1       8.133   9.623  17.835  0.00  0.00    +0.000 A 
ATOM     17  C   UNL     1       9.026   9.427  18.891  0.00  0.00    +0.000 A 
ATOM     18  C   UNL     1       9.657  10.508  19.519  0.00  0.00    +0.000 A 
ATOM     19  C   UNL     1       9.418  11.816  19.093  0.00  0.00    +0.000 A 
ATOM     20  C   UNL     1      10.180  12.984  19.545  0.00  0.00    +0.000 A 
ATOM     21  C   UNL     1      11.106  12.956  20.728  0.00  0.00    +0.000 C 
ATOM     22  C   UNL     1      10.080  14.104  18.811  0.00  0.00    +0.000 A 
ATOM     23  C   UNL     1       8.910  14.354  17.958  0.00  0.00    +0.000 A 
ATOM     24  O   UNL     1       8.583  15.502  17.682  0.00  0.00    +0.000 OA
ATOM     25  O   UNL     1       8.177  13.262  17.551  0.00  0.00    +0.000 OA
ATOM     26  C   UNL     1       8.501  11.988  18.048  0.00  0.00    +0.000 A 
ATOM     27  C   UNL     1       7.866  10.915  17.414  0.00  0.00    +0.000 A 
ENDBRANCH  15  16
ENDBRANCH   1  15
TORSDOF 5
ENDMDL
MODEL 9
REMARK VINA RESULT:      -7.9      3.388      8.921
REMARK  Name = 
REMARK  7 active torsions:
REMARK  status: ('A' for Active; 'I' for Inactive)
REMARK    1  A    between atoms: C_1  and  O_2
REMARK    2  A    between atoms: O_2  and  C_3
REMARK    3  A    between atoms: C_8  and  C_9
REMARK    4  A    between atoms: C_12  and  C_13
REMARK    5  A    between atoms: C_13  and  O_14
REMARK    6  A    between atoms: O_14  and  C_15
REMARK    7  A    between atoms: C_19  and  C_20
REMARK                            x       y       z     vdW  Elec       q    Type
REMARK                         _______ _______ _______ _____ _____    ______ ____
ROOT
ATOM      1  C   UNL     1       2.214   9.180  17.950  0.00  0.00    +0.000 C 
ENDROOT
BRANCH   1   5
ATOM      2  C   UNL     1       0.287  11.319  19.859  0.00  0.00    +0.000 C 
ATOM      3  N   UNL     1       1.322  12.059  19.616  0.00  0.00    +0.000 NA
ATOM      4  O   UNL     1       2.007  11.523  18.508  0.00  0.00    +0.000 OA
ATOM      5  C   UNL     1       1.287  10.392  18.004  0.00  0.00    +0.000 C 
ATOM      6  C   UNL     1       0.110  10.173  18.929  0.00  0.00    +0.000 C 
BRANCH   2  12
ATOM      7  C   UNL     1      -1.562  12.651  21.032  0.00  0.00    +0.000 A 
ATOM      8  C   UNL     1      -2.408  12.780  22.147  0.00  0.00    +0.000 A 
ATOM      9  C   UNL     1      -2.306  11.914  23.229  0.00  0.00    +0.000 A 
ATOM     10  C   UNL     1      -1.361  10.890  23.224  0.00  0.00    +0.000 A 
ATOM     11  C   UNL     1      -0.524  10.745  22.111  0.00  0.00    +0.000 A 
ATOM     12  C   UNL     1      -0.627  11.598  21.002  0.00  0.00    +0.000 A 
BRANCH   7  14
ATOM     13  C   UNL     1      -1.149  14.799  20.115  0.00  0.00    +0.000 C 
ATOM     14  O   UNL     1      -1.669  13.476  19.948  0.00  0.00    +0.000 OA
ENDBRANCH   7  14
ENDBRANCH   2  12
ENDBRANCH   1   5
BRANCH   1  15
ATOM     15  O   UNL     1       2.207   8.548  19.233  0.00  0.00    +0.000 OA
BRANCH  15  16
ATOM     16  C   UNL     1       2.207   7.184  19.252  0.00  0.00    +0.000 A 
ATOM     17  C   UNL     1       2.510   6.578  18.029  0.00  0.00    +0.000 A 
ATOM     18  C   UNL     1       2.555   5.184  17.902  0.00  0.00    +0.000 A 
ATOM     19  C   UNL     1       2.309   4.361  19.002  0.00  0.00    +0.000 A 
ATOM     20  C   UNL     1       2.534   2.912  19.016  0.00  0.00    +0.000 A 
ATOM     21  C   UNL     1       2.775   2.104  17.772  0.00  0.00    +0.000 C 
ATOM     22  C   UNL     1       2.588   2.311  20.215  0.00  0.00    +0.000 A 
ATOM     23  C   UNL     1       1.939   2.901  21.393  0.00  0.00    +0.000 A 
ATOM     24  O   UNL     1       1.575   2.186  22.319  0.00  0.00    +0.000 OA
ATOM     25  O   UNL     1       1.703   4.258  21.374  0.00  0.00    +0.000 OA
ATOM     26  C   UNL     1       1.983   4.992  20.209  0.00  0.00    +0.000 A 
ATOM     27  C   UNL     1       1.936   6.383  20.348  0.00  0.00    +0.000 A 
ENDBRANCH  15  16
ENDBRANCH   1  15
TORSDOF 5
ENDMDL
