MODEL 1
REMARK VINA RESULT:      -7.7      0.000      0.000
REMARK  Name = 
REMARK  8 active torsions:
REMARK  status: ('A' for Active; 'I' for Inactive)
REMARK    1  A    between atoms: C_1  and  O_2
REMARK    2  A    between atoms: O_2  and  C_3
REMARK    3  A    between atoms: C_6  and  C_7
REMARK    4  A    between atoms: N_9  and  C_10
REMARK    5  A    between atoms: N_9  and  C_16
REMARK    6  A    between atoms: C_10  and  C_11
REMARK    7  A    between atoms: C_16  and  C_17
REMARK    8  A    between atoms: C_22  and  O_23
REMARK                            x       y       z     vdW  Elec       q    Type
REMARK                         _______ _______ _______ _____ _____    ______ ____
ROOT
ATOM      1  C   UNL     1       3.540   4.003  17.276  0.00  0.00    +0.000 C 
ATOM      2  O   UNL     1       3.056   2.874  17.213  0.00  0.00    +0.000 OA
ATOM      3  N   UNL     1       2.906   5.036  17.989  0.00  0.00    +0.000 N 
ENDROOT
BRANCH   1   7
ATOM      4  C   UNL     1       7.107   4.930  15.007  0.00  0.00    +0.000 A 
ATOM      5  C   UNL     1       5.842   4.943  14.418  0.00  0.00    +0.000 A 
ATOM      6  C   UNL     1       4.705   4.590  15.167  0.00  0.00    +0.000 A 
ATOM      7  C   UNL     1       4.810   4.231  16.523  0.00  0.00    +0.000 A 
ATOM      8  C   UNL     1       6.085   4.256  17.100  0.00  0.00    +0.000 A 
ATOM      9  C   UNL     1       7.223   4.546  16.340  0.00  0.00    +0.000 A 
BRANCH   4  11
ATOM     10  C   UNL     1       7.913   5.308  12.807  0.00  0.00    +0.000 C 
ATOM     11  O   UNL     1       8.144   5.341  14.216  0.00  0.00    +0.000 OA
ENDBRANCH   4  11
BRANCH   8  12
ATOM     12  O   UNL     1       6.343   4.095  18.430  0.00  0.00    +0.000 OA
ATOM     13  H   UNL     1       7.266   4.343  18.624  0.00  0.00    +0.000 HD
ENDBRANCH   8  12
ENDBRANCH   1   7
BRANCH   3  14
ATOM     14  C   UNL     1       1.560   4.756  18.521  0.00  0.00    +0.000 C 
BRANCH  14  15
ATOM     15  C   UNL     1       1.625   3.965  19.781  0.00  0.00    +0.000 A 
ATOM     16  C   UNL     1       1.079   2.764  20.185  0.00  0.00    +0.000 A 
ATOM     17  C   UNL     1       1.525   2.546  21.511  0.00  0.00    +0.000 A 
ATOM     18  C   UNL     1       2.301   3.634  21.839  0.00  0.00    +0.000 A 
ATOM     19  O   UNL     1       2.372   4.497  20.794  0.00  0.00    +0.000 OA
ENDBRANCH  14  15
ENDBRANCH   3  14
BRANCH   3  20
ATOM     20  C   UNL     1       3.584   6.231  18.519  0.00  0.00    +0.000 C 
BRANCH  20  21
ATOM     21  C   UNL     1       2.704   7.443  18.539  0.00  0.00    +0.000 A 
ATOM     22  C   UNL     1       2.266   8.279  17.531  0.00  0.00    +0.000 A 
ATOM     23  C   UNL     1       1.397   9.222  18.134  0.00  0.00    +0.000 A 
ATOM     24  C   UNL     1       1.347   8.901  19.469  0.00  0.00    +0.000 A 
ATOM     25  O   UNL     1       2.120   7.813  19.719  0.00  0.00    +0.000 OA
ENDBRANCH  20  21
ENDBRANCH   3  20
TORSDOF 7
ENDMDL
MODEL 2
REMARK VINA RESULT:      -7.4      2.296      2.570
REMARK  Name = 
REMARK  8 active torsions:
REMARK  status: ('A' for Active; 'I' for Inactive)
REMARK    1  A    between atoms: C_1  and  O_2
REMARK    2  A    between atoms: O_2  and  C_3
REMARK    3  A    between atoms: C_6  and  C_7
REMARK    4  A    between atoms: N_9  and  C_10
REMARK    5  A    between atoms: N_9  and  C_16
REMARK    6  A    between atoms: C_10  and  C_11
REMARK    7  A    between atoms: C_16  and  C_17
REMARK    8  A    between atoms: C_22  and  O_23
REMARK                            x       y       z     vdW  Elec       q    Type
REMARK                         _______ _______ _______ _____ _____    ______ ____
ROOT
ATOM      1  C   UNL     1       4.668   4.795  18.032  0.00  0.00    +0.000 C 
ATOM      2  O   UNL     1       4.824   3.673  17.551  0.00  0.00    +0.000 OA
ATOM      3  N   UNL     1       3.449   5.182  18.617  0.00  0.00    +0.000 N 
ENDROOT
BRANCH   1   7
ATOM      4  C   UNL     1       7.815   7.751  17.732  0.00  0.00    +0.000 A 
ATOM      5  C   UNL     1       6.735   7.741  16.849  0.00  0.00    +0.000 A 
ATOM      6  C   UNL     1       5.752   6.739  16.938  0.00  0.00    +0.000 A 
ATOM      7  C   UNL     1       5.823   5.737  17.923  0.00  0.00    +0.000 A 
ATOM      8  C   UNL     1       6.898   5.786  18.817  0.00  0.00    +0.000 A 
ATOM      9  C   UNL     1       7.909   6.744  18.689  0.00  0.00    +0.000 A 
BRANCH   4  11
ATOM     10  C   UNL     1       8.468   9.913  18.462  0.00  0.00    +0.000 C 
ATOM     11  O   UNL     1       8.689   8.795  17.602  0.00  0.00    +0.000 OA
ENDBRANCH   4  11
BRANCH   8  12
ATOM     12  O   UNL     1       7.032   4.996  19.921  0.00  0.00    +0.000 OA
ATOM     13  H   UNL     1       7.117   4.061  19.655  0.00  0.00    +0.000 HD
ENDBRANCH   8  12
ENDBRANCH   1   7
BRANCH   3  14
ATOM     14  C   UNL     1       2.316   4.248  18.489  0.00  0.00    +0.000 C 
BRANCH  14  15
ATOM     15  C   UNL     1       2.022   3.565  19.779  0.00  0.00    +0.000 A 
ATOM     16  C   UNL     1       0.897   3.458  20.570  0.00  0.00    +0.000 A 
ATOM     17  C   UNL     1       1.260   2.658  21.680  0.00  0.00    +0.000 A 
ATOM     18  C   UNL     1       2.588   2.341  21.507  0.00  0.00    +0.000 A 
ATOM     19  O   UNL     1       3.057   2.882  20.354  0.00  0.00    +0.000 OA
ENDBRANCH  14  15
ENDBRANCH   3  14
BRANCH   3  20
ATOM     20  C   UNL     1       3.298   6.263  19.606  0.00  0.00    +0.000 C 
BRANCH  20  21
ATOM     21  C   UNL     1       2.576   7.457  19.061  0.00  0.00    +0.000 A 
ATOM     22  C   UNL     1       2.502   7.985  17.787  0.00  0.00    +0.000 A 
ATOM     23  C   UNL     1       1.614   9.087  17.854  0.00  0.00    +0.000 A 
ATOM     24  C   UNL     1       1.191   9.160  19.159  0.00  0.00    +0.000 A 
ATOM     25  O   UNL     1       1.754   8.166  19.892  0.00  0.00    +0.000 OA
ENDBRANCH  20  21
ENDBRANCH   3  20
TORSDOF 7
ENDMDL
MODEL 3
REMARK VINA RESULT:      -7.3      1.322      6.375
REMARK  Name = 
REMARK  8 active torsions:
REMARK  status: ('A' for Active; 'I' for Inactive)
REMARK    1  A    between atoms: C_1  and  O_2
REMARK    2  A    between atoms: O_2  and  C_3
REMARK    3  A    between atoms: C_6  and  C_7
REMARK    4  A    between atoms: N_9  and  C_10
REMARK    5  A    between atoms: N_9  and  C_16
REMARK    6  A    between atoms: C_10  and  C_11
REMARK    7  A    between atoms: C_16  and  C_17
REMARK    8  A    between atoms: C_22  and  O_23
REMARK                            x       y       z     vdW  Elec       q    Type
REMARK                         _______ _______ _______ _____ _____    ______ ____
ROOT
ATOM      1  C   UNL     1       3.988   5.996  18.500  0.00  0.00    +0.000 C 
ATOM      2  O   UNL     1       5.181   6.182  18.734  0.00  0.00    +0.000 OA
ATOM      3  N   UNL     1       3.514   4.758  18.031  0.00  0.00    +0.000 N 
ENDROOT
BRANCH   1   7
ATOM      4  C   UNL     1       1.203   9.294  18.822  0.00  0.00    +0.000 A 
ATOM      5  C   UNL     1       1.960   9.086  17.668  0.00  0.00    +0.000 A 
ATOM      6  C   UNL     1       2.893   8.036  17.609  0.00  0.00    +0.000 A 
ATOM      7  C   UNL     1       3.077   7.164  18.698  0.00  0.00    +0.000 A 
ATOM      8  C   UNL     1       2.284   7.373  19.832  0.00  0.00    +0.000 A 
ATOM      9  C   UNL     1       1.402   8.455  19.915  0.00  0.00    +0.000 A 
BRANCH   4  11
ATOM     10  C   UNL     1      -0.747  10.277  19.752  0.00  0.00    +0.000 C 
ATOM     11  O   UNL     1       0.284  10.305  18.765  0.00  0.00    +0.000 OA
ENDBRANCH   4  11
BRANCH   8  12
ATOM     12  O   UNL     1       2.219   6.532  20.904  0.00  0.00    +0.000 OA
ATOM     13  H   UNL     1       1.541   6.844  21.533  0.00  0.00    +0.000 HD
ENDBRANCH   8  12
ENDBRANCH   1   7
BRANCH   3  14
ATOM     14  C   UNL     1       4.523   3.743  17.678  0.00  0.00    +0.000 C 
BRANCH  14  15
ATOM     15  C   UNL     1       5.298   4.141  16.470  0.00  0.00    +0.000 A 
ATOM     16  C   UNL     1       4.956   4.418  15.162  0.00  0.00    +0.000 A 
ATOM     17  C   UNL     1       6.160   4.748  14.494  0.00  0.00    +0.000 A 
ATOM     18  C   UNL     1       7.162   4.635  15.429  0.00  0.00    +0.000 A 
ATOM     19  O   UNL     1       6.649   4.273  16.632  0.00  0.00    +0.000 OA
ENDBRANCH  14  15
ENDBRANCH   3  14
BRANCH   3  20
ATOM     20  C   UNL     1       2.126   4.282  18.168  0.00  0.00    +0.000 C 
BRANCH  20  21
ATOM     21  C   UNL     1       1.848   3.668  19.506  0.00  0.00    +0.000 A 
ATOM     22  C   UNL     1       0.788   2.914  19.969  0.00  0.00    +0.000 A 
ATOM     23  C   UNL     1       1.100   2.551  21.303  0.00  0.00    +0.000 A 
ATOM     24  C   UNL     1       2.334   3.093  21.570  0.00  0.00    +0.000 A 
ATOM     25  O   UNL     1       2.802   3.755  20.482  0.00  0.00    +0.000 OA
ENDBRANCH  20  21
ENDBRANCH   3  20
TORSDOF 7
ENDMDL
MODEL 4
REMARK VINA RESULT:      -7.2      1.544      6.359
REMARK  Name = 
REMARK  8 active torsions:
REMARK  status: ('A' for Active; 'I' for Inactive)
REMARK    1  A    between atoms: C_1  and  O_2
REMARK    2  A    between atoms: O_2  and  C_3
REMARK    3  A    between atoms: C_6  and  C_7
REMARK    4  A    between atoms: N_9  and  C_10
REMARK    5  A    between atoms: N_9  and  C_16
REMARK    6  A    between atoms: C_10  and  C_11
REMARK    7  A    between atoms: C_16  and  C_17
REMARK    8  A    between atoms: C_22  and  O_23
REMARK                            x       y       z     vdW  Elec       q    Type
REMARK                         _______ _______ _______ _____ _____    ______ ____
ROOT
ATOM      1  C   UNL     1       4.881   5.214  18.015  0.00  0.00    +0.000 C 
ATOM      2  O   UNL     1       5.975   5.203  18.579  0.00  0.00    +0.000 OA
ATOM      3  N   UNL     1       4.581   4.317  16.975  0.00  0.00    +0.000 N 
ENDROOT
BRANCH   1   7
ATOM      4  C   UNL     1       1.922   8.201  19.044  0.00  0.00    +0.000 A 
ATOM      5  C   UNL     1       2.703   8.311  17.894  0.00  0.00    +0.000 A 
ATOM      6  C   UNL     1       3.691   7.352  17.609  0.00  0.00    +0.000 A 
ATOM      7  C   UNL     1       3.907   6.255  18.463  0.00  0.00    +0.000 A 
ATOM      8  C   UNL     1       3.091   6.148  19.594  0.00  0.00    +0.000 A 
ATOM      9  C   UNL     1       2.151   7.135  19.911  0.00  0.00    +0.000 A 
BRANCH   4  11
ATOM     10  C   UNL     1       0.538   9.838  18.026  0.00  0.00    +0.000 C 
ATOM     11  O   UNL     1       0.952   9.150  19.207  0.00  0.00    +0.000 OA
ENDBRANCH   4  11
BRANCH   8  12
ATOM     12  O   UNL     1       3.056   5.073  20.433  0.00  0.00    +0.000 OA
ATOM     13  H   UNL     1       3.144   4.247  19.922  0.00  0.00    +0.000 HD
ENDBRANCH   8  12
ENDBRANCH   1   7
BRANCH   3  14
ATOM     14  C   UNL     1       5.682   3.473  16.478  0.00  0.00    +0.000 C 
BRANCH  14  15
ATOM     15  C   UNL     1       6.184   3.950  15.160  0.00  0.00    +0.000 A 
ATOM     16  C   UNL     1       5.788   3.745  13.854  0.00  0.00    +0.000 A 
ATOM     17  C   UNL     1       6.678   4.490  13.043  0.00  0.00    +0.000 A 
ATOM     18  C   UNL     1       7.570   5.090  13.901  0.00  0.00    +0.000 A 
ATOM     19  O   UNL     1       7.275   4.773  15.187  0.00  0.00    +0.000 OA
ENDBRANCH  14  15
ENDBRANCH   3  14
BRANCH   3  20
ATOM     20  C   UNL     1       3.220   3.924  16.570  0.00  0.00    +0.000 C 
BRANCH  20  21
ATOM     21  C   UNL     1       2.494   3.156  17.631  0.00  0.00    +0.000 A 
ATOM     22  C   UNL     1       2.871   2.078  18.408  0.00  0.00    +0.000 A 
ATOM     23  C   UNL     1       1.795   1.816  19.291  0.00  0.00    +0.000 A 
ATOM     24  C   UNL     1       0.830   2.753  19.010  0.00  0.00    +0.000 A 
ATOM     25  O   UNL     1       1.253   3.580  18.020  0.00  0.00    +0.000 OA
ENDBRANCH  20  21
ENDBRANCH   3  20
TORSDOF 7
ENDMDL
MODEL 5
REMARK VINA RESULT:      -7.1      2.698      3.189
REMARK  Name = 
REMARK  8 active torsions:
REMARK  status: ('A' for Active; 'I' for Inactive)
REMARK    1  A    between atoms: C_1  and  O_2
REMARK    2  A    between atoms: O_2  and  C_3
REMARK    3  A    between atoms: C_6  and  C_7
REMARK    4  A    between atoms: N_9  and  C_10
REMARK    5  A    between atoms: N_9  and  C_16
REMARK    6  A    between atoms: C_10  and  C_11
REMARK    7  A    between atoms: C_16  and  C_17
REMARK    8  A    between atoms: C_22  and  O_23
REMARK                            x       y       z     vdW  Elec       q    Type
REMARK                         _______ _______ _______ _____ _____    ______ ____
ROOT
ATOM      1  C   UNL     1       5.864   4.807  17.810  0.00  0.00    +0.000 C 
ATOM      2  O   UNL     1       6.318   3.842  17.195  0.00  0.00    +0.000 OA
ATOM      3  N   UNL     1       4.576   4.782  18.371  0.00  0.00    +0.000 N 
ENDROOT
BRANCH   1   7
ATOM      4  C   UNL     1       8.136   8.481  18.082  0.00  0.00    +0.000 A 
ATOM      5  C   UNL     1       7.108   8.324  17.152  0.00  0.00    +0.000 A 
ATOM      6  C   UNL     1       6.419   7.102  17.051  0.00  0.00    +0.000 A 
ATOM      7  C   UNL     1       6.735   6.019  17.891  0.00  0.00    +0.000 A 
ATOM      8  C   UNL     1       7.748   6.210  18.837  0.00  0.00    +0.000 A 
ATOM      9  C   UNL     1       8.475   7.403  18.895  0.00  0.00    +0.000 A 
BRANCH   4  11
ATOM     10  C   UNL     1       9.296  10.085  19.392  0.00  0.00    +0.000 C 
ATOM     11  O   UNL     1       8.709   9.721  18.142  0.00  0.00    +0.000 OA
ENDBRANCH   4  11
BRANCH   8  12
ATOM     12  O   UNL     1       8.068   5.328  19.828  0.00  0.00    +0.000 OA
ATOM     13  H   UNL     1       7.529   5.506  20.621  0.00  0.00    +0.000 HD
ENDBRANCH   8  12
ENDBRANCH   1   7
BRANCH   3  14
ATOM     14  C   UNL     1       3.729   3.617  18.057  0.00  0.00    +0.000 C 
BRANCH  14  15
ATOM     15  C   UNL     1       2.735   3.358  19.136  0.00  0.00    +0.000 A 
ATOM     16  C   UNL     1       1.370   3.525  19.238  0.00  0.00    +0.000 A 
ATOM     17  C   UNL     1       1.006   3.080  20.532  0.00  0.00    +0.000 A 
ATOM     18  C   UNL     1       2.173   2.686  21.145  0.00  0.00    +0.000 A 
ATOM     19  O   UNL     1       3.226   2.845  20.304  0.00  0.00    +0.000 OA
ENDBRANCH  14  15
ENDBRANCH   3  14
BRANCH   3  20
ATOM     20  C   UNL     1       4.127   5.637  19.484  0.00  0.00    +0.000 C 
BRANCH  20  21
ATOM     21  C   UNL     1       3.244   6.762  19.038  0.00  0.00    +0.000 A 
ATOM     22  C   UNL     1       3.025   7.321  17.794  0.00  0.00    +0.000 A 
ATOM     23  C   UNL     1       2.030   8.316  17.965  0.00  0.00    +0.000 A 
ATOM     24  C   UNL     1       1.693   8.297  19.296  0.00  0.00    +0.000 A 
ATOM     25  O   UNL     1       2.410   7.347  19.949  0.00  0.00    +0.000 OA
ENDBRANCH  20  21
ENDBRANCH   3  20
TORSDOF 7
ENDMDL
MODEL 6
REMARK VINA RESULT:      -7.1      1.447      6.396
REMARK  Name = 
REMARK  8 active torsions:
REMARK  status: ('A' for Active; 'I' for Inactive)
REMARK    1  A    between atoms: C_1  and  O_2
REMARK    2  A    between atoms: O_2  and  C_3
REMARK    3  A    between atoms: C_6  and  C_7
REMARK    4  A    between atoms: N_9  and  C_10
REMARK    5  A    between atoms: N_9  and  C_16
REMARK    6  A    between atoms: C_10  and  C_11
REMARK    7  A    between atoms: C_16  and  C_17
REMARK    8  A    between atoms: C_22  and  O_23
REMARK                            x       y       z     vdW  Elec       q    Type
REMARK                         _______ _______ _______ _____ _____    ______ ____
ROOT
ATOM      1  C   UNL     1       4.477   5.646  18.378  0.00  0.00    +0.000 C 
ATOM      2  O   UNL     1       5.606   5.796  18.841  0.00  0.00    +0.000 OA
ATOM      3  N   UNL     1       4.143   4.523  17.602  0.00  0.00    +0.000 N 
ENDROOT
BRANCH   1   7
ATOM      4  C   UNL     1       1.489   8.736  18.893  0.00  0.00    +0.000 A 
ATOM      5  C   UNL     1       2.271   8.660  17.740  0.00  0.00    +0.000 A 
ATOM      6  C   UNL     1       3.269   7.676  17.620  0.00  0.00    +0.000 A 
ATOM      7  C   UNL     1       3.492   6.738  18.645  0.00  0.00    +0.000 A 
ATOM      8  C   UNL     1       2.675   6.814  19.778  0.00  0.00    +0.000 A 
ATOM      9  C   UNL     1       1.726   7.831  19.925  0.00  0.00    +0.000 A 
BRANCH   4  11
ATOM     10  C   UNL     1      -0.040  10.027  20.169  0.00  0.00    +0.000 C 
ATOM     11  O   UNL     1       0.510   9.690  18.895  0.00  0.00    +0.000 OA
ENDBRANCH   4  11
BRANCH   8  12
ATOM     12  O   UNL     1       2.648   5.894  20.785  0.00  0.00    +0.000 OA
ATOM     13  H   UNL     1       3.352   5.231  20.651  0.00  0.00    +0.000 HD
ENDBRANCH   8  12
ENDBRANCH   1   7
BRANCH   3  14
ATOM     14  C   UNL     1       5.242   3.613  17.231  0.00  0.00    +0.000 C 
BRANCH  14  15
ATOM     15  C   UNL     1       5.909   4.047  15.972  0.00  0.00    +0.000 A 
ATOM     16  C   UNL     1       7.000   4.844  15.694  0.00  0.00    +0.000 A 
ATOM     17  C   UNL     1       7.134   4.864  14.284  0.00  0.00    +0.000 A 
ATOM     18  C   UNL     1       6.107   4.093  13.790  0.00  0.00    +0.000 A 
ATOM     19  O   UNL     1       5.362   3.589  14.806  0.00  0.00    +0.000 OA
ENDBRANCH  14  15
ENDBRANCH   3  14
BRANCH   3  20
ATOM     20  C   UNL     1       2.775   4.011  17.407  0.00  0.00    +0.000 C 
BRANCH  20  21
ATOM     21  C   UNL     1       2.158   3.498  18.672  0.00  0.00    +0.000 A 
ATOM     22  C   UNL     1       0.840   3.358  19.061  0.00  0.00    +0.000 A 
ATOM     23  C   UNL     1       0.856   2.754  20.342  0.00  0.00    +0.000 A 
ATOM     24  C   UNL     1       2.179   2.551  20.655  0.00  0.00    +0.000 A 
ATOM     25  O   UNL     1       2.972   2.981  19.641  0.00  0.00    +0.000 OA
ENDBRANCH  20  21
ENDBRANCH   3  20
TORSDOF 7
ENDMDL
MODEL 7
REMARK VINA RESULT:      -7.0      2.381      2.753
REMARK  Name = 
REMARK  8 active torsions:
REMARK  status: ('A' for Active; 'I' for Inactive)
REMARK    1  A    between atoms: C_1  and  O_2
REMARK    2  A    between atoms: O_2  and  C_3
REMARK    3  A    between atoms: C_6  and  C_7
REMARK    4  A    between atoms: N_9  and  C_10
REMARK    5  A    between atoms: N_9  and  C_16
REMARK    6  A    between atoms: C_10  and  C_11
REMARK    7  A    between atoms: C_16  and  C_17
REMARK    8  A    between atoms: C_22  and  O_23
REMARK                            x       y       z     vdW  Elec       q    Type
REMARK                         _______ _______ _______ _____ _____    ______ ____
ROOT
ATOM      1  C   UNL     1       4.535   5.114  17.435  0.00  0.00    +0.000 C 
ATOM      2  O   UNL     1       4.653   4.123  16.716  0.00  0.00    +0.000 OA
ATOM      3  N   UNL     1       3.286   5.508  17.947  0.00  0.00    +0.000 N 
ENDROOT
BRANCH   1   7
ATOM      4  C   UNL     1       7.958   7.633  18.257  0.00  0.00    +0.000 A 
ATOM      5  C   UNL     1       7.010   7.979  17.294  0.00  0.00    +0.000 A 
ATOM      6  C   UNL     1       5.934   7.119  17.012  0.00  0.00    +0.000 A 
ATOM      7  C   UNL     1       5.777   5.901  17.700  0.00  0.00    +0.000 A 
ATOM      8  C   UNL     1       6.723   5.590  18.683  0.00  0.00    +0.000 A 
ATOM      9  C   UNL     1       7.828   6.415  18.919  0.00  0.00    +0.000 A 
BRANCH   4  11
ATOM     10  C   UNL     1       8.580   9.923  18.283  0.00  0.00    +0.000 C 
ATOM     11  O   UNL     1       8.936   8.557  18.499  0.00  0.00    +0.000 OA
ENDBRANCH   4  11
BRANCH   8  12
ATOM     12  O   UNL     1       6.633   4.538  19.548  0.00  0.00    +0.000 OA
ATOM     13  H   UNL     1       5.731   4.169  19.533  0.00  0.00    +0.000 HD
ENDBRANCH   8  12
ENDBRANCH   1   7
BRANCH   3  14
ATOM     14  C   UNL     1       2.101   4.781  17.458  0.00  0.00    +0.000 C 
BRANCH  14  15
ATOM     15  C   UNL     1       1.725   3.670  18.376  0.00  0.00    +0.000 A 
ATOM     16  C   UNL     1       1.909   2.303  18.349  0.00  0.00    +0.000 A 
ATOM     17  C   UNL     1       1.320   1.795  19.532  0.00  0.00    +0.000 A 
ATOM     18  C   UNL     1       0.798   2.879  20.198  0.00  0.00    +0.000 A 
ATOM     19  O   UNL     1       1.044   4.022  19.508  0.00  0.00    +0.000 OA
ENDBRANCH  14  15
ENDBRANCH   3  14
BRANCH   3  20
ATOM     20  C   UNL     1       3.094   6.343  19.146  0.00  0.00    +0.000 C 
BRANCH  20  21
ATOM     21  C   UNL     1       2.445   7.658  18.845  0.00  0.00    +0.000 A 
ATOM     22  C   UNL     1       2.375   8.405  17.685  0.00  0.00    +0.000 A 
ATOM     23  C   UNL     1       1.570   9.534  17.976  0.00  0.00    +0.000 A 
ATOM     24  C   UNL     1       1.187   9.404  19.289  0.00  0.00    +0.000 A 
ATOM     25  O   UNL     1       1.697   8.262  19.817  0.00  0.00    +0.000 OA
ENDBRANCH  20  21
ENDBRANCH   3  20
TORSDOF 7
ENDMDL
MODEL 8
REMARK VINA RESULT:      -7.0      1.481      4.190
REMARK  Name = 
REMARK  8 active torsions:
REMARK  status: ('A' for Active; 'I' for Inactive)
REMARK    1  A    between atoms: C_1  and  O_2
REMARK    2  A    between atoms: O_2  and  C_3
REMARK    3  A    between atoms: C_6  and  C_7
REMARK    4  A    between atoms: N_9  and  C_10
REMARK    5  A    between atoms: N_9  and  C_16
REMARK    6  A    between atoms: C_10  and  C_11
REMARK    7  A    between atoms: C_16  and  C_17
REMARK    8  A    between atoms: C_22  and  O_23
REMARK                            x       y       z     vdW  Elec       q    Type
REMARK                         _______ _______ _______ _____ _____    ______ ____
ROOT
ATOM      1  C   UNL     1       4.346   6.447  17.643  0.00  0.00    +0.000 C 
ATOM      2  O   UNL     1       5.009   7.458  17.870  0.00  0.00    +0.000 OA
ATOM      3  N   UNL     1       3.178   6.153  18.369  0.00  0.00    +0.000 N 
ENDROOT
BRANCH   1   7
ATOM      4  C   UNL     1       6.075   3.987  14.529  0.00  0.00    +0.000 A 
ATOM      5  C   UNL     1       5.694   5.308  14.291  0.00  0.00    +0.000 A 
ATOM      6  C   UNL     1       5.089   6.069  15.307  0.00  0.00    +0.000 A 
ATOM      7  C   UNL     1       4.867   5.527  16.587  0.00  0.00    +0.000 A 
ATOM      8  C   UNL     1       5.286   4.211  16.811  0.00  0.00    +0.000 A 
ATOM      9  C   UNL     1       5.829   3.434  15.783  0.00  0.00    +0.000 A 
BRANCH   4  11
ATOM     10  C   UNL     1       6.015   3.335  12.248  0.00  0.00    +0.000 C 
ATOM     11  O   UNL     1       6.704   3.346  13.498  0.00  0.00    +0.000 OA
ENDBRANCH   4  11
BRANCH   8  12
ATOM     12  O   UNL     1       5.294   3.592  18.027  0.00  0.00    +0.000 OA
ATOM     13  H   UNL     1       5.972   3.993  18.603  0.00  0.00    +0.000 HD
ENDBRANCH   8  12
ENDBRANCH   1   7
BRANCH   3  14
ATOM     14  C   UNL     1       2.869   7.019  19.521  0.00  0.00    +0.000 C 
BRANCH  14  15
ATOM     15  C   UNL     1       2.002   8.164  19.126  0.00  0.00    +0.000 A 
ATOM     16  C   UNL     1       1.737   8.794  17.928  0.00  0.00    +0.000 A 
ATOM     17  C   UNL     1       0.807   9.823  18.212  0.00  0.00    +0.000 A 
ATOM     18  C   UNL     1       0.576   9.769  19.567  0.00  0.00    +0.000 A 
ATOM     19  O   UNL     1       1.291   8.762  20.129  0.00  0.00    +0.000 OA
ENDBRANCH  14  15
ENDBRANCH   3  14
BRANCH   3  20
ATOM     20  C   UNL     1       2.090   5.280  17.895  0.00  0.00    +0.000 C 
BRANCH  20  21
ATOM     21  C   UNL     1       1.843   4.111  18.799  0.00  0.00    +0.000 A 
ATOM     22  C   UNL     1       1.064   3.972  19.931  0.00  0.00    +0.000 A 
ATOM     23  C   UNL     1       1.164   2.616  20.329  0.00  0.00    +0.000 A 
ATOM     24  C   UNL     1       1.988   2.006  19.414  0.00  0.00    +0.000 A 
ATOM     25  O   UNL     1       2.388   2.900  18.474  0.00  0.00    +0.000 OA
ENDBRANCH  20  21
ENDBRANCH   3  20
TORSDOF 7
ENDMDL
MODEL 9
REMARK VINA RESULT:      -7.0      2.146      7.234
REMARK  Name = 
REMARK  8 active torsions:
REMARK  status: ('A' for Active; 'I' for Inactive)
REMARK    1  A    between atoms: C_1  and  O_2
REMARK    2  A    between atoms: O_2  and  C_3
REMARK    3  A    between atoms: C_6  and  C_7
REMARK    4  A    between atoms: N_9  and  C_10
REMARK    5  A    between atoms: N_9  and  C_16
REMARK    6  A    between atoms: C_10  and  C_11
REMARK    7  A    between atoms: C_16  and  C_17
REMARK    8  A    between atoms: C_22  and  O_23
REMARK                            x       y       z     vdW  Elec       q    Type
REMARK                         _______ _______ _______ _____ _____    ______ ____
ROOT
ATOM      1  C   UNL     1       2.545   7.745  18.234  0.00  0.00    +0.000 C 
ATOM      2  O   UNL     1       2.744   8.233  17.122  0.00  0.00    +0.000 OA
ATOM      3  N   UNL     1       2.981   6.448  18.557  0.00  0.00    +0.000 N 
ENDROOT
BRANCH   1   7
ATOM      4  C   UNL     1       0.569  10.158  21.236  0.00  0.00    +0.000 A 
ATOM      5  C   UNL     1       1.080   8.895  21.533  0.00  0.00    +0.000 A 
ATOM      6  C   UNL     1       1.673   8.111  20.527  0.00  0.00    +0.000 A 
ATOM      7  C   UNL     1       1.781   8.584  19.206  0.00  0.00    +0.000 A 
ATOM      8  C   UNL     1       1.290   9.867  18.939  0.00  0.00    +0.000 A 
ATOM      9  C   UNL     1       0.644  10.620  19.924  0.00  0.00    +0.000 A 
BRANCH   4  11
ATOM     10  C   UNL     1      -0.829  10.160  23.153  0.00  0.00    +0.000 C 
ATOM     11  O   UNL     1       0.062  10.866  22.290  0.00  0.00    +0.000 OA
ENDBRANCH   4  11
BRANCH   8  12
ATOM     12  O   UNL     1       1.458  10.537  17.762  0.00  0.00    +0.000 OA
ATOM     13  H   UNL     1       2.107  11.256  17.876  0.00  0.00    +0.000 HD
ENDBRANCH   8  12
ENDBRANCH   1   7
BRANCH   3  14
ATOM     14  C   UNL     1       3.542   5.636  17.462  0.00  0.00    +0.000 C 
BRANCH  14  15
ATOM     15  C   UNL     1       5.031   5.668  17.467  0.00  0.00    +0.000 A 
ATOM     16  C   UNL     1       5.968   6.628  17.147  0.00  0.00    +0.000 A 
ATOM     17  C   UNL     1       7.237   6.041  17.371  0.00  0.00    +0.000 A 
ATOM     18  C   UNL     1       6.996   4.755  17.797  0.00  0.00    +0.000 A 
ATOM     19  O   UNL     1       5.661   4.521  17.864  0.00  0.00    +0.000 OA
ENDBRANCH  14  15
ENDBRANCH   3  14
BRANCH   3  20
ATOM     20  C   UNL     1       3.222   5.959  19.926  0.00  0.00    +0.000 C 
BRANCH  20  21
ATOM     21  C   UNL     1       2.515   4.672  20.220  0.00  0.00    +0.000 A 
ATOM     22  C   UNL     1       1.181   4.382  20.428  0.00  0.00    +0.000 A 
ATOM     23  C   UNL     1       1.092   2.978  20.596  0.00  0.00    +0.000 A 
ATOM     24  C   UNL     1       2.371   2.493  20.471  0.00  0.00    +0.000 A 
ATOM     25  O   UNL     1       3.236   3.510  20.224  0.00  0.00    +0.000 OA
ENDBRANCH  20  21
ENDBRANCH   3  20
TORSDOF 7
ENDMDL
