MODEL 1
REMARK VINA RESULT:      -6.8      0.000      0.000
REMARK  Name = 
REMARK  6 active torsions:
REMARK  status: ('A' for Active; 'I' for Inactive)
REMARK    1  A    between atoms: C_1  and  O_2
REMARK    2  A    between atoms: O_2  and  C_3
REMARK    3  A    between atoms: C_7  and  C_8
REMARK    4  A    between atoms: N_15  and  C_16
REMARK    5  A    between atoms: C_20  and  C_21
REMARK    6  A    between atoms: N_24  and  C_25
REMARK                            x       y       z     vdW  Elec       q    Type
REMARK                         _______ _______ _______ _____ _____    ______ ____
ROOT
ATOM      1  C   UNL     1      -2.521  12.470  21.242  0.00  0.00    +0.000 A 
ATOM      2  N   UNL     1      -1.423  11.702  20.942  0.00  0.00    +0.000 NA
ATOM      3  C   UNL     1      -1.606  11.324  19.656  0.00  0.00    +0.000 A 
ATOM      4  C   UNL     1      -0.807  10.544  18.776  0.00  0.00    +0.000 A 
ATOM      5  N   UNL     1       0.453   9.951  19.125  0.00  0.00    +0.000 N 
ATOM      6  C   UNL     1       1.465   9.723  18.101  0.00  0.00    +0.000 C 
ATOM      7  C   UNL     1       1.881   8.253  18.097  0.00  0.00    +0.000 C 
ATOM      8  N   UNL     1       2.335   7.885  19.452  0.00  0.00    +0.000 NA
ATOM      9  C   UNL     1       2.892   6.525  19.463  0.00  0.00    +0.000 C 
ATOM     10  C   UNL     1       1.216   8.030  20.410  0.00  0.00    +0.000 C 
ATOM     11  C   UNL     1       0.784   9.511  20.473  0.00  0.00    +0.000 C 
ATOM     12  N   UNL     1      -1.273  10.390  17.495  0.00  0.00    +0.000 NA
ATOM     13  C   UNL     1      -2.454  10.938  17.082  0.00  0.00    +0.000 A 
ATOM     14  C   UNL     1      -2.983  10.728  15.708  0.00  0.00    +0.000 C 
ATOM     15  N   UNL     1      -3.185  11.685  17.938  0.00  0.00    +0.000 NA
ATOM     16  C   UNL     1      -2.758  11.873  19.199  0.00  0.00    +0.000 A 
ATOM     17  N   UNL     1      -3.357  12.616  20.154  0.00  0.00    +0.000 N 
ENDROOT
BRANCH   1  22
ATOM     18  C   UNL     1      -1.998  14.653  24.342  0.00  0.00    +0.000 A 
ATOM     19  C   UNL     1      -3.021  14.206  25.181  0.00  0.00    +0.000 A 
ATOM     20  C   UNL     1      -3.882  13.202  24.758  0.00  0.00    +0.000 A 
ATOM     21  C   UNL     1      -3.733  12.636  23.497  0.00  0.00    +0.000 A 
ATOM     22  C   UNL     1      -2.721  13.063  22.610  0.00  0.00    +0.000 A 
ATOM     23  C   UNL     1      -1.849  14.074  23.058  0.00  0.00    +0.000 A 
BRANCH  18  25
ATOM     24  C   UNL     1      -0.913  15.891  26.127  0.00  0.00    +0.000 C 
ATOM     25  O   UNL     1      -1.177  15.630  24.802  0.00  0.00    +0.000 OA
ENDBRANCH  18  25
ENDBRANCH   1  22
BRANCH  17  26
ATOM     26  C   UNL     1      -4.596  13.426  19.992  0.00  0.00    +0.000 C 
ATOM     27  C   UNL     1      -4.521  14.825  20.641  0.00  0.00    +0.000 C 
ATOM     28  C   UNL     1      -5.848  15.561  20.479  0.00  0.00    +0.000 C 
ATOM     29  O   UNL     1      -6.895  14.841  21.104  0.00  0.00    +0.000 OA
ATOM     30  C   UNL     1      -7.063  13.589  20.466  0.00  0.00    +0.000 C 
ATOM     31  C   UNL     1      -5.814  12.711  20.631  0.00  0.00    +0.000 C 
ENDBRANCH  17  26
TORSDOF 3
ENDMDL
MODEL 2
REMARK VINA RESULT:      -6.4      2.623      5.099
REMARK  Name = 
REMARK  6 active torsions:
REMARK  status: ('A' for Active; 'I' for Inactive)
REMARK    1  A    between atoms: C_1  and  O_2
REMARK    2  A    between atoms: O_2  and  C_3
REMARK    3  A    between atoms: C_7  and  C_8
REMARK    4  A    between atoms: N_15  and  C_16
REMARK    5  A    between atoms: C_20  and  C_21
REMARK    6  A    between atoms: N_24  and  C_25
REMARK                            x       y       z     vdW  Elec       q    Type
REMARK                         _______ _______ _______ _____ _____    ______ ____
ROOT
ATOM      1  C   UNL     1      -4.159  13.530  21.825  0.00  0.00    +0.000 A 
ATOM      2  N   UNL     1      -4.145  12.704  20.728  0.00  0.00    +0.000 NA
ATOM      3  C   UNL     1      -2.863  12.721  20.299  0.00  0.00    +0.000 A 
ATOM      4  C   UNL     1      -2.215  12.053  19.224  0.00  0.00    +0.000 A 
ATOM      5  N   UNL     1      -2.866  11.160  18.308  0.00  0.00    +0.000 N 
ATOM      6  C   UNL     1      -2.113  10.083  17.674  0.00  0.00    +0.000 C 
ATOM      7  C   UNL     1      -2.246  10.177  16.155  0.00  0.00    +0.000 C 
ATOM      8  N   UNL     1      -3.678  10.169  15.803  0.00  0.00    +0.000 NA
ATOM      9  C   UNL     1      -3.856  10.101  14.345  0.00  0.00    +0.000 C 
ATOM     10  C   UNL     1      -4.343  11.356  16.383  0.00  0.00    +0.000 C 
ATOM     11  C   UNL     1      -4.264  11.286  17.924  0.00  0.00    +0.000 C 
ATOM     12  N   UNL     1      -0.865  12.258  19.095  0.00  0.00    +0.000 NA
ATOM     13  C   UNL     1      -0.173  13.080  19.939  0.00  0.00    +0.000 A 
ATOM     14  C   UNL     1       1.281  13.342  19.766  0.00  0.00    +0.000 C 
ATOM     15  N   UNL     1      -0.813  13.692  20.958  0.00  0.00    +0.000 NA
ATOM     16  C   UNL     1      -2.134  13.507  21.129  0.00  0.00    +0.000 A 
ATOM     17  N   UNL     1      -2.902  14.020  22.114  0.00  0.00    +0.000 N 
ENDROOT
BRANCH   1  22
ATOM     18  C   UNL     1      -7.245  15.373  23.142  0.00  0.00    +0.000 A 
ATOM     19  C   UNL     1      -7.798  14.422  24.003  0.00  0.00    +0.000 A 
ATOM     20  C   UNL     1      -7.185  13.187  24.166  0.00  0.00    +0.000 A 
ATOM     21  C   UNL     1      -6.016  12.887  23.474  0.00  0.00    +0.000 A 
ATOM     22  C   UNL     1      -5.426  13.812  22.585  0.00  0.00    +0.000 A 
ATOM     23  C   UNL     1      -6.054  15.064  22.440  0.00  0.00    +0.000 A 
BRANCH  18  25
ATOM     24  C   UNL     1      -7.915  17.336  21.881  0.00  0.00    +0.000 C 
ATOM     25  O   UNL     1      -7.875  16.567  23.021  0.00  0.00    +0.000 OA
ENDBRANCH  18  25
ENDBRANCH   1  22
BRANCH  17  26
ATOM     26  C   UNL     1      -2.433  14.863  23.249  0.00  0.00    +0.000 C 
ATOM     27  C   UNL     1      -2.987  14.430  24.623  0.00  0.00    +0.000 C 
ATOM     28  C   UNL     1      -2.504  15.379  25.716  0.00  0.00    +0.000 C 
ATOM     29  O   UNL     1      -2.948  16.699  25.459  0.00  0.00    +0.000 OA
ATOM     30  C   UNL     1      -2.376  17.171  24.253  0.00  0.00    +0.000 C 
ATOM     31  C   UNL     1      -2.855  16.342  23.053  0.00  0.00    +0.000 C 
ENDBRANCH  17  26
TORSDOF 3
ENDMDL
MODEL 3
REMARK VINA RESULT:      -6.4      4.226      7.002
REMARK  Name = 
REMARK  6 active torsions:
REMARK  status: ('A' for Active; 'I' for Inactive)
REMARK    1  A    between atoms: C_1  and  O_2
REMARK    2  A    between atoms: O_2  and  C_3
REMARK    3  A    between atoms: C_7  and  C_8
REMARK    4  A    between atoms: N_15  and  C_16
REMARK    5  A    between atoms: C_20  and  C_21
REMARK    6  A    between atoms: N_24  and  C_25
REMARK                            x       y       z     vdW  Elec       q    Type
REMARK                         _______ _______ _______ _____ _____    ______ ____
ROOT
ATOM      1  C   UNL     1       1.556   9.226  19.050  0.00  0.00    +0.000 A 
ATOM      2  N   UNL     1       2.307   8.437  18.214  0.00  0.00    +0.000 NA
ATOM      3  C   UNL     1       2.427   7.259  18.866  0.00  0.00    +0.000 A 
ATOM      4  C   UNL     1       3.066   6.040  18.510  0.00  0.00    +0.000 A 
ATOM      5  N   UNL     1       3.776   5.819  17.282  0.00  0.00    +0.000 N 
ATOM      6  C   UNL     1       3.857   4.479  16.713  0.00  0.00    +0.000 C 
ATOM      7  C   UNL     1       5.319   4.094  16.491  0.00  0.00    +0.000 C 
ATOM      8  N   UNL     1       5.957   5.122  15.647  0.00  0.00    +0.000 NA
ATOM      9  C   UNL     1       7.320   4.718  15.276  0.00  0.00    +0.000 C 
ATOM     10  C   UNL     1       5.940   6.425  16.347  0.00  0.00    +0.000 C 
ATOM     11  C   UNL     1       4.478   6.872  16.562  0.00  0.00    +0.000 C 
ATOM     12  N   UNL     1       2.953   5.002  19.399  0.00  0.00    +0.000 NA
ATOM     13  C   UNL     1       2.279   5.129  20.580  0.00  0.00    +0.000 A 
ATOM     14  C   UNL     1       2.201   4.019  21.567  0.00  0.00    +0.000 C 
ATOM     15  N   UNL     1       1.671   6.296  20.886  0.00  0.00    +0.000 NA
ATOM     16  C   UNL     1       1.746   7.335  20.036  0.00  0.00    +0.000 A 
ATOM     17  N   UNL     1       1.166   8.546  20.185  0.00  0.00    +0.000 N 
ENDROOT
BRANCH   1  22
ATOM     18  C   UNL     1       1.976  12.968  18.356  0.00  0.00    +0.000 A 
ATOM     19  C   UNL     1       0.662  13.355  18.080  0.00  0.00    +0.000 A 
ATOM     20  C   UNL     1      -0.364  12.420  18.117  0.00  0.00    +0.000 A 
ATOM     21  C   UNL     1      -0.092  11.092  18.427  0.00  0.00    +0.000 A 
ATOM     22  C   UNL     1       1.221  10.652  18.702  0.00  0.00    +0.000 A 
ATOM     23  C   UNL     1       2.249  11.614  18.672  0.00  0.00    +0.000 A 
BRANCH  18  25
ATOM     24  C   UNL     1       2.729  15.275  18.373  0.00  0.00    +0.000 C 
ATOM     25  O   UNL     1       2.942  13.917  18.316  0.00  0.00    +0.000 OA
ENDBRANCH  18  25
ENDBRANCH   1  22
BRANCH  17  26
ATOM     26  C   UNL     1       0.279   8.966  21.305  0.00  0.00    +0.000 C 
ATOM     27  C   UNL     1      -0.383  10.346  21.098  0.00  0.00    +0.000 C 
ATOM     28  C   UNL     1      -1.224  10.722  22.314  0.00  0.00    +0.000 C 
ATOM     29  O   UNL     1      -0.416  10.792  23.474  0.00  0.00    +0.000 OA
ATOM     30  C   UNL     1       0.128   9.515  23.757  0.00  0.00    +0.000 C 
ATOM     31  C   UNL     1       1.070   9.055  22.635  0.00  0.00    +0.000 C 
ENDBRANCH  17  26
TORSDOF 3
ENDMDL
MODEL 4
REMARK VINA RESULT:      -6.3      5.238      6.668
REMARK  Name = 
REMARK  6 active torsions:
REMARK  status: ('A' for Active; 'I' for Inactive)
REMARK    1  A    between atoms: C_1  and  O_2
REMARK    2  A    between atoms: O_2  and  C_3
REMARK    3  A    between atoms: C_7  and  C_8
REMARK    4  A    between atoms: N_15  and  C_16
REMARK    5  A    between atoms: C_20  and  C_21
REMARK    6  A    between atoms: N_24  and  C_25
REMARK                            x       y       z     vdW  Elec       q    Type
REMARK                         _______ _______ _______ _____ _____    ______ ____
ROOT
ATOM      1  C   UNL     1       0.755  12.705  20.853  0.00  0.00    +0.000 A 
ATOM      2  N   UNL     1       1.880  13.384  21.251  0.00  0.00    +0.000 NA
ATOM      3  C   UNL     1       1.915  14.486  20.468  0.00  0.00    +0.000 A 
ATOM      4  C   UNL     1       2.818  15.582  20.417  0.00  0.00    +0.000 A 
ATOM      5  N   UNL     1       3.971  15.731  21.259  0.00  0.00    +0.000 N 
ATOM      6  C   UNL     1       4.466  17.061  21.596  0.00  0.00    +0.000 C 
ATOM      7  C   UNL     1       5.941  17.181  21.212  0.00  0.00    +0.000 C 
ATOM      8  N   UNL     1       6.692  16.098  21.873  0.00  0.00    +0.000 NA
ATOM      9  C   UNL     1       8.137  16.262  21.661  0.00  0.00    +0.000 C 
ATOM     10  C   UNL     1       6.211  14.786  21.387  0.00  0.00    +0.000 C 
ATOM     11  C   UNL     1       4.729  14.605  21.784  0.00  0.00    +0.000 C 
ATOM     12  N   UNL     1       2.528  16.578  19.518  0.00  0.00    +0.000 NA
ATOM     13  C   UNL     1       1.439  16.516  18.695  0.00  0.00    +0.000 A 
ATOM     14  C   UNL     1       1.155  17.571  17.686  0.00  0.00    +0.000 C 
ATOM     15  N   UNL     1       0.593  15.467  18.775  0.00  0.00    +0.000 NA
ATOM     16  C   UNL     1       0.832  14.476  19.653  0.00  0.00    +0.000 A 
ATOM     17  N   UNL     1       0.065  13.387  19.872  0.00  0.00    +0.000 N 
ENDROOT
BRANCH   1  22
ATOM     18  C   UNL     1       0.577   8.934  21.484  0.00  0.00    +0.000 A 
ATOM     19  C   UNL     1      -0.326   8.865  22.547  0.00  0.00    +0.000 A 
ATOM     20  C   UNL     1      -0.883  10.027  23.066  0.00  0.00    +0.000 A 
ATOM     21  C   UNL     1      -0.546  11.266  22.531  0.00  0.00    +0.000 A 
ATOM     22  C   UNL     1       0.371  11.385  21.464  0.00  0.00    +0.000 A 
ATOM     23  C   UNL     1       0.918  10.197  20.942  0.00  0.00    +0.000 A 
BRANCH  18  25
ATOM     24  C   UNL     1       1.975   7.662  19.960  0.00  0.00    +0.000 C 
ATOM     25  O   UNL     1       1.088   7.772  21.006  0.00  0.00    +0.000 OA
ENDBRANCH  18  25
ENDBRANCH   1  22
BRANCH  17  26
ATOM     26  C   UNL     1      -1.238  13.081  19.219  0.00  0.00    +0.000 C 
ATOM     27  C   UNL     1      -2.389  12.810  20.211  0.00  0.00    +0.000 C 
ATOM     28  C   UNL     1      -3.667  12.448  19.459  0.00  0.00    +0.000 C 
ATOM     29  O   UNL     1      -3.473  11.281  18.682  0.00  0.00    +0.000 OA
ATOM     30  C   UNL     1      -2.493  11.524  17.689  0.00  0.00    +0.000 C 
ATOM     31  C   UNL     1      -1.126  11.821  18.323  0.00  0.00    +0.000 C 
ENDBRANCH  17  26
TORSDOF 3
ENDMDL
MODEL 5
REMARK VINA RESULT:      -6.3      3.948      7.203
REMARK  Name = 
REMARK  6 active torsions:
REMARK  status: ('A' for Active; 'I' for Inactive)
REMARK    1  A    between atoms: C_1  and  O_2
REMARK    2  A    between atoms: O_2  and  C_3
REMARK    3  A    between atoms: C_7  and  C_8
REMARK    4  A    between atoms: N_15  and  C_16
REMARK    5  A    between atoms: C_20  and  C_21
REMARK    6  A    between atoms: N_24  and  C_25
REMARK                            x       y       z     vdW  Elec       q    Type
REMARK                         _______ _______ _______ _____ _____    ______ ____
ROOT
ATOM      1  C   UNL     1       1.575   9.017  19.156  0.00  0.00    +0.000 A 
ATOM      2  N   UNL     1       2.305   8.241  18.290  0.00  0.00    +0.000 NA
ATOM      3  C   UNL     1       2.465   7.062  18.932  0.00  0.00    +0.000 A 
ATOM      4  C   UNL     1       3.108   5.854  18.546  0.00  0.00    +0.000 A 
ATOM      5  N   UNL     1       3.774   5.647  17.292  0.00  0.00    +0.000 N 
ATOM      6  C   UNL     1       3.852   4.310  16.714  0.00  0.00    +0.000 C 
ATOM      7  C   UNL     1       5.310   3.947  16.436  0.00  0.00    +0.000 C 
ATOM      8  N   UNL     1       5.902   4.986  15.573  0.00  0.00    +0.000 NA
ATOM      9  C   UNL     1       7.256   4.603  15.150  0.00  0.00    +0.000 C 
ATOM     10  C   UNL     1       5.893   6.286  16.279  0.00  0.00    +0.000 C 
ATOM     11  C   UNL     1       4.434   6.713  16.551  0.00  0.00    +0.000 C 
ATOM     12  N   UNL     1       3.042   4.810  19.435  0.00  0.00    +0.000 NA
ATOM     13  C   UNL     1       2.411   4.924  20.641  0.00  0.00    +0.000 A 
ATOM     14  C   UNL     1       2.385   3.809  21.625  0.00  0.00    +0.000 C 
ATOM     15  N   UNL     1       1.799   6.081  20.975  0.00  0.00    +0.000 NA
ATOM     16  C   UNL     1       1.828   7.125  20.126  0.00  0.00    +0.000 A 
ATOM     17  N   UNL     1       1.238   8.326  20.302  0.00  0.00    +0.000 N 
ENDROOT
BRANCH   1  22
ATOM     18  C   UNL     1      -0.503  12.068  18.145  0.00  0.00    +0.000 A 
ATOM     19  C   UNL     1       0.453  13.086  18.172  0.00  0.00    +0.000 A 
ATOM     20  C   UNL     1       1.769  12.798  18.513  0.00  0.00    +0.000 A 
ATOM     21  C   UNL     1       2.143  11.497  18.831  0.00  0.00    +0.000 A 
ATOM     22  C   UNL     1       1.209  10.438  18.828  0.00  0.00    +0.000 A 
ATOM     23  C   UNL     1      -0.118  10.744  18.468  0.00  0.00    +0.000 A 
BRANCH  18  25
ATOM     24  C   UNL     1      -2.810  11.506  17.640  0.00  0.00    +0.000 C 
ATOM     25  O   UNL     1      -1.772  12.395  17.798  0.00  0.00    +0.000 OA
ENDBRANCH  18  25
ENDBRANCH   1  22
BRANCH  17  26
ATOM     26  C   UNL     1       0.388   8.730  21.457  0.00  0.00    +0.000 C 
ATOM     27  C   UNL     1      -0.454   9.999  21.203  0.00  0.00    +0.000 C 
ATOM     28  C   UNL     1      -1.246  10.373  22.452  0.00  0.00    +0.000 C 
ATOM     29  O   UNL     1      -0.373  10.635  23.535  0.00  0.00    +0.000 OA
ATOM     30  C   UNL     1       0.345   9.460  23.866  0.00  0.00    +0.000 C 
ATOM     31  C   UNL     1       1.255   9.023  22.708  0.00  0.00    +0.000 C 
ENDBRANCH  17  26
TORSDOF 3
ENDMDL
MODEL 6
REMARK VINA RESULT:      -6.2      1.424      2.033
REMARK  Name = 
REMARK  6 active torsions:
REMARK  status: ('A' for Active; 'I' for Inactive)
REMARK    1  A    between atoms: C_1  and  O_2
REMARK    2  A    between atoms: O_2  and  C_3
REMARK    3  A    between atoms: C_7  and  C_8
REMARK    4  A    between atoms: N_15  and  C_16
REMARK    5  A    between atoms: C_20  and  C_21
REMARK    6  A    between atoms: N_24  and  C_25
REMARK                            x       y       z     vdW  Elec       q    Type
REMARK                         _______ _______ _______ _____ _____    ______ ____
ROOT
ATOM      1  C   UNL     1      -2.955  12.321  20.568  0.00  0.00    +0.000 A 
ATOM      2  N   UNL     1      -1.790  11.621  20.376  0.00  0.00    +0.000 NA
ATOM      3  C   UNL     1      -1.883  11.131  19.119  0.00  0.00    +0.000 A 
ATOM      4  C   UNL     1      -0.989  10.349  18.338  0.00  0.00    +0.000 A 
ATOM      5  N   UNL     1       0.295   9.887  18.785  0.00  0.00    +0.000 N 
ATOM      6  C   UNL     1       1.368   9.660  17.824  0.00  0.00    +0.000 C 
ATOM      7  C   UNL     1       1.894   8.232  17.957  0.00  0.00    +0.000 C 
ATOM      8  N   UNL     1       2.310   8.007  19.354  0.00  0.00    +0.000 NA
ATOM      9  C   UNL     1       2.966   6.700  19.498  0.00  0.00    +0.000 C 
ATOM     10  C   UNL     1       1.140   8.137  20.251  0.00  0.00    +0.000 C 
ATOM     11  C   UNL     1       0.595   9.580  20.176  0.00  0.00    +0.000 C 
ATOM     12  N   UNL     1      -1.381  10.060  17.056  0.00  0.00    +0.000 NA
ATOM     13  C   UNL     1      -2.580  10.480  16.553  0.00  0.00    +0.000 A 
ATOM     14  C   UNL     1      -3.027  10.123  15.180  0.00  0.00    +0.000 C 
ATOM     15  N   UNL     1      -3.404  11.231  17.314  0.00  0.00    +0.000 NA
ATOM     16  C   UNL     1      -3.051  11.549  18.573  0.00  0.00    +0.000 A 
ATOM     17  N   UNL     1      -3.748  12.315  19.439  0.00  0.00    +0.000 N 
ENDROOT
BRANCH   1  22
ATOM     18  C   UNL     1      -4.736  13.238  23.830  0.00  0.00    +0.000 A 
ATOM     19  C   UNL     1      -3.916  14.254  24.326  0.00  0.00    +0.000 A 
ATOM     20  C   UNL     1      -2.789  14.650  23.618  0.00  0.00    +0.000 A 
ATOM     21  C   UNL     1      -2.469  14.039  22.410  0.00  0.00    +0.000 A 
ATOM     22  C   UNL     1      -3.262  13.001  21.875  0.00  0.00    +0.000 A 
ATOM     23  C   UNL     1      -4.407  12.618  22.600  0.00  0.00    +0.000 A 
BRANCH  18  25
ATOM     24  C   UNL     1      -7.068  12.594  24.034  0.00  0.00    +0.000 C 
ATOM     25  O   UNL     1      -5.829  12.890  24.553  0.00  0.00    +0.000 OA
ENDBRANCH  18  25
ENDBRANCH   1  22
BRANCH  17  26
ATOM     26  C   UNL     1      -5.036  13.011  19.162  0.00  0.00    +0.000 C 
ATOM     27  C   UNL     1      -5.190  14.362  19.893  0.00  0.00    +0.000 C 
ATOM     28  C   UNL     1      -6.557  14.974  19.600  0.00  0.00    +0.000 C 
ATOM     29  O   UNL     1      -7.591  14.115  20.041  0.00  0.00    +0.000 OA
ATOM     30  C   UNL     1      -7.546  12.899  19.316  0.00  0.00    +0.000 C 
ATOM     31  C   UNL     1      -6.242  12.138  19.594  0.00  0.00    +0.000 C 
ENDBRANCH  17  26
TORSDOF 3
ENDMDL
MODEL 7
REMARK VINA RESULT:      -6.2      5.042      6.270
REMARK  Name = 
REMARK  6 active torsions:
REMARK  status: ('A' for Active; 'I' for Inactive)
REMARK    1  A    between atoms: C_1  and  O_2
REMARK    2  A    between atoms: O_2  and  C_3
REMARK    3  A    between atoms: C_7  and  C_8
REMARK    4  A    between atoms: N_15  and  C_16
REMARK    5  A    between atoms: C_20  and  C_21
REMARK    6  A    between atoms: N_24  and  C_25
REMARK                            x       y       z     vdW  Elec       q    Type
REMARK                         _______ _______ _______ _____ _____    ______ ____
ROOT
ATOM      1  C   UNL     1       0.324  13.088  20.701  0.00  0.00    +0.000 A 
ATOM      2  N   UNL     1       1.541  13.719  20.772  0.00  0.00    +0.000 NA
ATOM      3  C   UNL     1       1.407  14.818  19.996  0.00  0.00    +0.000 A 
ATOM      4  C   UNL     1       2.306  15.876  19.689  0.00  0.00    +0.000 A 
ATOM      5  N   UNL     1       3.649  15.976  20.184  0.00  0.00    +0.000 N 
ATOM      6  C   UNL     1       4.271  17.284  20.359  0.00  0.00    +0.000 C 
ATOM      7  C   UNL     1       5.589  17.342  19.589  0.00  0.00    +0.000 C 
ATOM      8  N   UNL     1       6.447  16.228  20.033  0.00  0.00    +0.000 NA
ATOM      9  C   UNL     1       7.785  16.332  19.435  0.00  0.00    +0.000 C 
ATOM     10  C   UNL     1       5.799  14.938  19.711  0.00  0.00    +0.000 C 
ATOM     11  C   UNL     1       4.475  14.819  20.497  0.00  0.00    +0.000 C 
ATOM     12  N   UNL     1       1.823  16.882  18.892  0.00  0.00    +0.000 NA
ATOM     13  C   UNL     1       0.550  16.867  18.396  0.00  0.00    +0.000 A 
ATOM     14  C   UNL     1       0.044  17.932  17.489  0.00  0.00    +0.000 C 
ATOM     15  N   UNL     1      -0.285  15.854  18.715  0.00  0.00    +0.000 NA
ATOM     16  C   UNL     1       0.144  14.854  19.505  0.00  0.00    +0.000 A 
ATOM     17  N   UNL     1      -0.578  13.798  19.937  0.00  0.00    +0.000 N 
ENDROOT
BRANCH   1  22
ATOM     18  C   UNL     1       0.419   9.353  21.538  0.00  0.00    +0.000 A 
ATOM     19  C   UNL     1      -0.393   9.295  22.674  0.00  0.00    +0.000 A 
ATOM     20  C   UNL     1      -0.975  10.452  23.175  0.00  0.00    +0.000 A 
ATOM     21  C   UNL     1      -0.754  11.676  22.552  0.00  0.00    +0.000 A 
ATOM     22  C   UNL     1       0.067  11.785  21.409  0.00  0.00    +0.000 A 
ATOM     23  C   UNL     1       0.641  10.601  20.906  0.00  0.00    +0.000 A 
BRANCH  18  25
ATOM     24  C   UNL     1       1.756   8.075  19.967  0.00  0.00    +0.000 C 
ATOM     25  O   UNL     1       0.959   8.197  21.081  0.00  0.00    +0.000 OA
ENDBRANCH  18  25
ENDBRANCH   1  22
BRANCH  17  26
ATOM     26  C   UNL     1      -2.021  13.546  19.665  0.00  0.00    +0.000 C 
ATOM     27  C   UNL     1      -2.932  13.722  20.899  0.00  0.00    +0.000 C 
ATOM     28  C   UNL     1      -4.379  13.388  20.546  0.00  0.00    +0.000 C 
ATOM     29  O   UNL     1      -4.486  12.047  20.107  0.00  0.00    +0.000 OA
ATOM     30  C   UNL     1      -3.744  11.872  18.913  0.00  0.00    +0.000 C 
ATOM     31  C   UNL     1      -2.245  12.100  19.157  0.00  0.00    +0.000 C 
ENDBRANCH  17  26
TORSDOF 3
ENDMDL
MODEL 8
REMARK VINA RESULT:      -6.2      4.680      6.993
REMARK  Name = 
REMARK  6 active torsions:
REMARK  status: ('A' for Active; 'I' for Inactive)
REMARK    1  A    between atoms: C_1  and  O_2
REMARK    2  A    between atoms: O_2  and  C_3
REMARK    3  A    between atoms: C_7  and  C_8
REMARK    4  A    between atoms: N_15  and  C_16
REMARK    5  A    between atoms: C_20  and  C_21
REMARK    6  A    between atoms: N_24  and  C_25
REMARK                            x       y       z     vdW  Elec       q    Type
REMARK                         _______ _______ _______ _____ _____    ______ ____
ROOT
ATOM      1  C   UNL     1       0.597  11.975  20.280  0.00  0.00    +0.000 A 
ATOM      2  N   UNL     1       1.441  12.857  20.908  0.00  0.00    +0.000 NA
ATOM      3  C   UNL     1       1.208  14.046  20.307  0.00  0.00    +0.000 A 
ATOM      4  C   UNL     1       1.750  15.341  20.528  0.00  0.00    +0.000 A 
ATOM      5  N   UNL     1       2.744  15.652  21.516  0.00  0.00    +0.000 N 
ATOM      6  C   UNL     1       2.801  16.986  22.104  0.00  0.00    +0.000 C 
ATOM      7  C   UNL     1       4.199  17.576  21.924  0.00  0.00    +0.000 C 
ATOM      8  N   UNL     1       5.185  16.645  22.502  0.00  0.00    +0.000 NA
ATOM      9  C   UNL     1       6.530  17.238  22.493  0.00  0.00    +0.000 C 
ATOM     10  C   UNL     1       5.147  15.358  21.772  0.00  0.00    +0.000 C 
ATOM     11  C   UNL     1       3.759  14.706  21.956  0.00  0.00    +0.000 C 
ATOM     12  N   UNL     1       1.247  16.360  19.759  0.00  0.00    +0.000 NA
ATOM     13  C   UNL     1       0.287  16.145  18.811  0.00  0.00    +0.000 A 
ATOM     14  C   UNL     1      -0.220  17.241  17.942  0.00  0.00    +0.000 C 
ATOM     15  N   UNL     1      -0.218  14.906  18.632  0.00  0.00    +0.000 NA
ATOM     16  C   UNL     1       0.238  13.881  19.375  0.00  0.00    +0.000 A 
ATOM     17  N   UNL     1      -0.189  12.601  19.336  0.00  0.00    +0.000 N 
ENDROOT
BRANCH   1  22
ATOM     18  C   UNL     1       1.487   8.252  20.316  0.00  0.00    +0.000 A 
ATOM     19  C   UNL     1       0.570   7.749  21.243  0.00  0.00    +0.000 A 
ATOM     20  C   UNL     1      -0.338   8.600  21.858  0.00  0.00    +0.000 A 
ATOM     21  C   UNL     1      -0.341   9.958  21.559  0.00  0.00    +0.000 A 
ATOM     22  C   UNL     1       0.574  10.513  20.638  0.00  0.00    +0.000 A 
ATOM     23  C   UNL     1       1.481   9.635  20.013  0.00  0.00    +0.000 A 
BRANCH  18  25
ATOM     24  C   UNL     1       2.601   7.289  18.386  0.00  0.00    +0.000 C 
ATOM     25  O   UNL     1       2.349   7.381  19.735  0.00  0.00    +0.000 OA
ENDBRANCH  18  25
ENDBRANCH   1  22
BRANCH  17  26
ATOM     26  C   UNL     1      -1.294  12.066  18.492  0.00  0.00    +0.000 C 
ATOM     27  C   UNL     1      -2.644  11.940  19.229  0.00  0.00    +0.000 C 
ATOM     28  C   UNL     1      -3.700  11.331  18.311  0.00  0.00    +0.000 C 
ATOM     29  O   UNL     1      -3.306  10.038  17.891  0.00  0.00    +0.000 OA
ATOM     30  C   UNL     1      -2.121  10.124  17.119  0.00  0.00    +0.000 C 
ATOM     31  C   UNL     1      -0.950  10.650  17.962  0.00  0.00    +0.000 C 
ENDBRANCH  17  26
TORSDOF 3
ENDMDL
MODEL 9
REMARK VINA RESULT:      -6.1      2.686      5.167
REMARK  Name = 
REMARK  6 active torsions:
REMARK  status: ('A' for Active; 'I' for Inactive)
REMARK    1  A    between atoms: C_1  and  O_2
REMARK    2  A    between atoms: O_2  and  C_3
REMARK    3  A    between atoms: C_7  and  C_8
REMARK    4  A    between atoms: N_15  and  C_16
REMARK    5  A    between atoms: C_20  and  C_21
REMARK    6  A    between atoms: N_24  and  C_25
REMARK                            x       y       z     vdW  Elec       q    Type
REMARK                         _______ _______ _______ _____ _____    ______ ____
ROOT
ATOM      1  C   UNL     1      -4.264  13.690  21.866  0.00  0.00    +0.000 A 
ATOM      2  N   UNL     1      -4.209  12.832  20.795  0.00  0.00    +0.000 NA
ATOM      3  C   UNL     1      -2.937  12.922  20.344  0.00  0.00    +0.000 A 
ATOM      4  C   UNL     1      -2.261  12.264  19.281  0.00  0.00    +0.000 A 
ATOM      5  N   UNL     1      -2.861  11.300  18.404  0.00  0.00    +0.000 N 
ATOM      6  C   UNL     1      -2.046  10.257  17.792  0.00  0.00    +0.000 C 
ATOM      7  C   UNL     1      -2.207  10.292  16.273  0.00  0.00    +0.000 C 
ATOM      8  N   UNL     1      -3.640  10.175  15.945  0.00  0.00    +0.000 NA
ATOM      9  C   UNL     1      -3.833  10.048  14.494  0.00  0.00    +0.000 C 
ATOM     10  C   UNL     1      -4.376  11.333  16.498  0.00  0.00    +0.000 C 
ATOM     11  C   UNL     1      -4.271  11.318  18.039  0.00  0.00    +0.000 C 
ATOM     12  N   UNL     1      -0.930  12.556  19.123  0.00  0.00    +0.000 NA
ATOM     13  C   UNL     1      -0.283  13.450  19.929  0.00  0.00    +0.000 A 
ATOM     14  C   UNL     1       1.147  13.804  19.725  0.00  0.00    +0.000 C 
ATOM     15  N   UNL     1      -0.949  14.051  20.939  0.00  0.00    +0.000 NA
ATOM     16  C   UNL     1      -2.252  13.782  21.138  0.00  0.00    +0.000 A 
ATOM     17  N   UNL     1      -3.039  14.274  22.118  0.00  0.00    +0.000 N 
ENDROOT
BRANCH   1  22
ATOM     18  C   UNL     1      -7.322  15.441  23.362  0.00  0.00    +0.000 A 
ATOM     19  C   UNL     1      -7.917  14.405  24.086  0.00  0.00    +0.000 A 
ATOM     20  C   UNL     1      -7.340  13.142  24.099  0.00  0.00    +0.000 A 
ATOM     21  C   UNL     1      -6.168  12.898  23.392  0.00  0.00    +0.000 A 
ATOM     22  C   UNL     1      -5.537  13.911  22.637  0.00  0.00    +0.000 A 
ATOM     23  C   UNL     1      -6.127  15.189  22.643  0.00  0.00    +0.000 A 
BRANCH  18  25
ATOM     24  C   UNL     1      -7.351  17.832  22.940  0.00  0.00    +0.000 C 
ATOM     25  O   UNL     1      -7.916  16.659  23.385  0.00  0.00    +0.000 OA
ENDBRANCH  18  25
ENDBRANCH   1  22
BRANCH  17  26
ATOM     26  C   UNL     1      -2.613  15.183  23.218  0.00  0.00    +0.000 C 
ATOM     27  C   UNL     1      -1.855  16.439  22.737  0.00  0.00    +0.000 C 
ATOM     28  C   UNL     1      -1.407  17.281  23.928  0.00  0.00    +0.000 C 
ATOM     29  O   UNL     1      -0.539  16.537  24.764  0.00  0.00    +0.000 OA
ATOM     30  C   UNL     1      -1.232  15.429  25.309  0.00  0.00    +0.000 C 
ATOM     31  C   UNL     1      -1.668  14.453  24.206  0.00  0.00    +0.000 C 
ENDBRANCH  17  26
TORSDOF 3
ENDMDL
