MODEL 1
REMARK VINA RESULT:      -8.0      0.000      0.000
REMARK  Name = 
REMARK  8 active torsions:
REMARK  status: ('A' for Active; 'I' for Inactive)
REMARK    1  A    between atoms: C_1  and  C_2
REMARK    2  A    between atoms: C_6  and  C_7
REMARK    3  A    between atoms: C_10  and  C_11
REMARK    4  A    between atoms: C_12  and  C_13
REMARK    5  A    between atoms: C_13  and  O_14
REMARK    6  A    between atoms: N_20  and  S_21
REMARK    7  A    between atoms: S_21  and  C_24
REMARK    8  A    between atoms: C_28  and  C_29
REMARK                            x       y       z     vdW  Elec       q    Type
REMARK                         _______ _______ _______ _____ _____    ______ ____
ROOT
ATOM      1  C   UNL     1       0.033  11.166  19.198  0.00  0.00    +0.000 C 
ATOM      2  C   UNL     1      -1.275  11.806  18.603  0.00  0.00    +0.000 C 
ATOM      3  N   UNL     1      -1.508  12.445  19.911  0.00  0.00    +0.000 NA
ATOM      4  C   UNL     1      -2.804  12.480  20.541  0.00  0.00    +0.000 C 
ATOM      5  C   UNL     1      -2.718  13.211  21.906  0.00  0.00    +0.000 C 
ATOM      6  C   UNL     1      -2.008  14.583  21.883  0.00  0.00    +0.000 C 
ATOM      7  C   UNL     1      -0.516  14.607  22.236  0.00  0.00    +0.000 C 
ATOM      8  N   UNL     1       0.407  13.951  21.293  0.00  0.00    +0.000 NA
ATOM      9  C   UNL     1       0.438  12.443  21.450  0.00  0.00    +0.000 C 
ATOM     10  C   UNL     1      -0.524  11.611  20.583  0.00  0.00    +0.000 C 
ENDROOT
BRANCH   1  14
ATOM     11  C   UNL     1       2.485   7.389  18.767  0.00  0.00    +0.000 A 
ATOM     12  C   UNL     1       2.199   8.253  17.713  0.00  0.00    +0.000 A 
ATOM     13  C   UNL     1       1.395   9.387  17.910  0.00  0.00    +0.000 A 
ATOM     14  C   UNL     1       0.820   9.773  19.161  0.00  0.00    +0.000 A 
ATOM     15  C   UNL     1       1.109   8.897  20.210  0.00  0.00    +0.000 A 
ATOM     16  C   UNL     1       1.914   7.740  20.013  0.00  0.00    +0.000 A 
BRANCH  11  22
ATOM     17  C   UNL     1       5.388   4.384  15.859  0.00  0.00    +0.000 C 
ATOM     18  C   UNL     1       4.753   4.702  17.184  0.00  0.00    +0.000 A 
ATOM     19  C   UNL     1       4.901   3.819  18.254  0.00  0.00    +0.000 A 
ATOM     20  C   UNL     1       4.312   4.110  19.481  0.00  0.00    +0.000 A 
ATOM     21  C   UNL     1       3.551   5.274  19.641  0.00  0.00    +0.000 A 
ATOM     22  C   UNL     1       3.344   6.180  18.584  0.00  0.00    +0.000 A 
ATOM     23  C   UNL     1       3.987   5.876  17.360  0.00  0.00    +0.000 A 
ENDBRANCH  11  22
ENDBRANCH   1  14
BRANCH   8  24
ATOM     24  S   UNL     1       0.694  14.625  19.748  0.00  0.00    +0.000 S 
ATOM     25  O   UNL     1       1.677  13.794  19.083  0.00  0.00    +0.000 OA
ATOM     26  O   UNL     1      -0.549  14.969  19.087  0.00  0.00    +0.000 OA
BRANCH  24  27
ATOM     27  C   UNL     1       1.497  16.197  20.003  0.00  0.00    +0.000 A 
ATOM     28  C   UNL     1       0.726  17.358  20.065  0.00  0.00    +0.000 A 
ATOM     29  C   UNL     1       1.322  18.556  20.454  0.00  0.00    +0.000 A 
ATOM     30  C   UNL     1       2.665  18.584  20.839  0.00  0.00    +0.000 A 
ATOM     31  C   UNL     1       3.422  17.409  20.870  0.00  0.00    +0.000 A 
ATOM     32  C   UNL     1       4.773  17.401  21.526  0.00  0.00    +0.000 C 
ATOM     33  C   UNL     1       2.837  16.215  20.431  0.00  0.00    +0.000 A 
ENDBRANCH  24  27
ENDBRANCH   8  24
BRANCH   2  34
ATOM     34  C   UNL     1      -2.455  11.647  17.657  0.00  0.00    +0.000 C 
BRANCH  34  35
ATOM     35  O   UNL     1      -2.124  11.777  16.290  0.00  0.00    +0.000 OA
ATOM     36  H   UNL     1      -2.976  11.926  15.826  0.00  0.00    +0.000 HD
ENDBRANCH  34  35
ENDBRANCH   2  34
TORSDOF 6
ENDMDL
MODEL 2
REMARK VINA RESULT:      -8.0      0.821      1.417
REMARK  Name = 
REMARK  8 active torsions:
REMARK  status: ('A' for Active; 'I' for Inactive)
REMARK    1  A    between atoms: C_1  and  C_2
REMARK    2  A    between atoms: C_6  and  C_7
REMARK    3  A    between atoms: C_10  and  C_11
REMARK    4  A    between atoms: C_12  and  C_13
REMARK    5  A    between atoms: C_13  and  O_14
REMARK    6  A    between atoms: N_20  and  S_21
REMARK    7  A    between atoms: S_21  and  C_24
REMARK    8  A    between atoms: C_28  and  C_29
REMARK                            x       y       z     vdW  Elec       q    Type
REMARK                         _______ _______ _______ _____ _____    ______ ____
ROOT
ATOM      1  C   UNL     1       0.282  11.175  19.067  0.00  0.00    +0.000 C 
ATOM      2  C   UNL     1      -1.084  11.775  18.569  0.00  0.00    +0.000 C 
ATOM      3  N   UNL     1      -1.264  12.367  19.908  0.00  0.00    +0.000 NA
ATOM      4  C   UNL     1      -2.520  12.329  20.614  0.00  0.00    +0.000 C 
ATOM      5  C   UNL     1      -2.382  13.024  21.993  0.00  0.00    +0.000 C 
ATOM      6  C   UNL     1      -1.731  14.425  21.971  0.00  0.00    +0.000 C 
ATOM      7  C   UNL     1      -0.223  14.502  22.236  0.00  0.00    +0.000 C 
ATOM      8  N   UNL     1       0.668  13.912  21.221  0.00  0.00    +0.000 NA
ATOM      9  C   UNL     1       0.770  12.403  21.329  0.00  0.00    +0.000 C 
ATOM     10  C   UNL     1      -0.208  11.556  20.495  0.00  0.00    +0.000 C 
ENDROOT
BRANCH   1  14
ATOM     11  C   UNL     1       2.400   7.178  19.011  0.00  0.00    +0.000 A 
ATOM     12  C   UNL     1       1.768   7.705  20.134  0.00  0.00    +0.000 A 
ATOM     13  C   UNL     1       1.165   8.973  20.092  0.00  0.00    +0.000 A 
ATOM     14  C   UNL     1       1.122   9.818  18.940  0.00  0.00    +0.000 A 
ATOM     15  C   UNL     1       1.764   9.282  17.820  0.00  0.00    +0.000 A 
ATOM     16  C   UNL     1       2.385   8.003  17.861  0.00  0.00    +0.000 A 
BRANCH  11  22
ATOM     17  C   UNL     1       2.092   2.097  19.062  0.00  0.00    +0.000 C 
ATOM     18  C   UNL     1       2.913   3.357  19.061  0.00  0.00    +0.000 A 
ATOM     19  C   UNL     1       4.303   3.279  19.153  0.00  0.00    +0.000 A 
ATOM     20  C   UNL     1       5.065   4.443  19.154  0.00  0.00    +0.000 A 
ATOM     21  C   UNL     1       4.442   5.695  19.088  0.00  0.00    +0.000 A 
ATOM     22  C   UNL     1       3.043   5.828  19.029  0.00  0.00    +0.000 A 
ATOM     23  C   UNL     1       2.297   4.626  18.991  0.00  0.00    +0.000 A 
ENDBRANCH  11  22
ENDBRANCH   1  14
BRANCH   8  24
ATOM     24  S   UNL     1       0.834  14.642  19.683  0.00  0.00    +0.000 S 
ATOM     25  O   UNL     1       1.803  13.868  18.933  0.00  0.00    +0.000 OA
ATOM     26  O   UNL     1      -0.459  14.958  19.110  0.00  0.00    +0.000 OA
BRANCH  24  27
ATOM     27  C   UNL     1       1.595  16.235  19.938  0.00  0.00    +0.000 A 
ATOM     28  C   UNL     1       0.788  17.355  20.139  0.00  0.00    +0.000 A 
ATOM     29  C   UNL     1       1.372  18.559  20.529  0.00  0.00    +0.000 A 
ATOM     30  C   UNL     1       2.746  18.630  20.776  0.00  0.00    +0.000 A 
ATOM     31  C   UNL     1       3.549  17.491  20.667  0.00  0.00    +0.000 A 
ATOM     32  C   UNL     1       4.960  17.512  21.181  0.00  0.00    +0.000 C 
ATOM     33  C   UNL     1       2.970  16.293  20.227  0.00  0.00    +0.000 A 
ENDBRANCH  24  27
ENDBRANCH   8  24
BRANCH   2  34
ATOM     34  C   UNL     1      -2.311  11.594  17.690  0.00  0.00    +0.000 C 
BRANCH  34  35
ATOM     35  O   UNL     1      -2.054  11.703  16.306  0.00  0.00    +0.000 OA
ATOM     36  H   UNL     1      -2.551  12.495  16.007  0.00  0.00    +0.000 HD
ENDBRANCH  34  35
ENDBRANCH   2  34
TORSDOF 6
ENDMDL
MODEL 3
REMARK VINA RESULT:      -7.9      1.816      2.289
REMARK  Name = 
REMARK  8 active torsions:
REMARK  status: ('A' for Active; 'I' for Inactive)
REMARK    1  A    between atoms: C_1  and  C_2
REMARK    2  A    between atoms: C_6  and  C_7
REMARK    3  A    between atoms: C_10  and  C_11
REMARK    4  A    between atoms: C_12  and  C_13
REMARK    5  A    between atoms: C_13  and  O_14
REMARK    6  A    between atoms: N_20  and  S_21
REMARK    7  A    between atoms: S_21  and  C_24
REMARK    8  A    between atoms: C_28  and  C_29
REMARK                            x       y       z     vdW  Elec       q    Type
REMARK                         _______ _______ _______ _____ _____    ______ ____
ROOT
ATOM      1  C   UNL     1       0.689  11.172  19.191  0.00  0.00    +0.000 C 
ATOM      2  C   UNL     1      -0.559  11.989  18.692  0.00  0.00    +0.000 C 
ATOM      3  N   UNL     1      -0.428  12.841  19.888  0.00  0.00    +0.000 NA
ATOM      4  C   UNL     1      -1.559  13.243  20.686  0.00  0.00    +0.000 C 
ATOM      5  C   UNL     1      -1.091  14.124  21.874  0.00  0.00    +0.000 C 
ATOM      6  C   UNL     1      -0.150  15.293  21.507  0.00  0.00    +0.000 C 
ATOM      7  C   UNL     1       1.357  15.043  21.629  0.00  0.00    +0.000 C 
ATOM      8  N   UNL     1       1.954  14.077  20.689  0.00  0.00    +0.000 NA
ATOM      9  C   UNL     1       1.727  12.636  21.101  0.00  0.00    +0.000 C 
ATOM     10  C   UNL     1       0.485  11.917  20.543  0.00  0.00    +0.000 C 
ENDROOT
BRANCH   1  14
ATOM     11  C   UNL     1       2.366   6.971  19.154  0.00  0.00    +0.000 A 
ATOM     12  C   UNL     1       2.396   7.827  18.056  0.00  0.00    +0.000 A 
ATOM     13  C   UNL     1       1.818   9.106  18.125  0.00  0.00    +0.000 A 
ATOM     14  C   UNL     1       1.178   9.651  19.282  0.00  0.00    +0.000 A 
ATOM     15  C   UNL     1       1.149   8.781  20.375  0.00  0.00    +0.000 A 
ATOM     16  C   UNL     1       1.724   7.481  20.307  0.00  0.00    +0.000 A 
BRANCH  11  22
ATOM     17  C   UNL     1       1.952   1.900  19.000  0.00  0.00    +0.000 C 
ATOM     18  C   UNL     1       2.799   3.141  19.039  0.00  0.00    +0.000 A 
ATOM     19  C   UNL     1       4.188   3.031  19.109  0.00  0.00    +0.000 A 
ATOM     20  C   UNL     1       4.975   4.178  19.148  0.00  0.00    +0.000 A 
ATOM     21  C   UNL     1       4.377   5.445  19.142  0.00  0.00    +0.000 A 
ATOM     22  C   UNL     1       2.980   5.609  19.107  0.00  0.00    +0.000 A 
ATOM     23  C   UNL     1       2.209   4.424  19.030  0.00  0.00    +0.000 A 
ENDBRANCH  11  22
ENDBRANCH   1  14
BRANCH   8  24
ATOM     24  S   UNL     1       2.081  14.450  19.025  0.00  0.00    +0.000 S 
ATOM     25  O   UNL     1       2.351  13.213  18.319  0.00  0.00    +0.000 OA
ATOM     26  O   UNL     1       1.005  15.322  18.599  0.00  0.00    +0.000 OA
BRANCH  24  27
ATOM     27  C   UNL     1       3.549  15.442  18.820  0.00  0.00    +0.000 A 
ATOM     28  C   UNL     1       3.683  16.623  19.549  0.00  0.00    +0.000 A 
ATOM     29  C   UNL     1       4.903  17.299  19.540  0.00  0.00    +0.000 A 
ATOM     30  C   UNL     1       6.000  16.766  18.857  0.00  0.00    +0.000 A 
ATOM     31  C   UNL     1       5.902  15.535  18.201  0.00  0.00    +0.000 A 
ATOM     32  C   UNL     1       7.140  14.850  17.698  0.00  0.00    +0.000 C 
ATOM     33  C   UNL     1       4.663  14.882  18.169  0.00  0.00    +0.000 A 
ENDBRANCH  24  27
ENDBRANCH   8  24
BRANCH   2  34
ATOM     34  C   UNL     1      -1.898  11.957  17.972  0.00  0.00    +0.000 C 
BRANCH  34  35
ATOM     35  O   UNL     1      -1.799  11.862  16.567  0.00  0.00    +0.000 OA
ATOM     36  H   UNL     1      -1.252  11.064  16.395  0.00  0.00    +0.000 HD
ENDBRANCH  34  35
ENDBRANCH   2  34
TORSDOF 6
ENDMDL
MODEL 4
REMARK VINA RESULT:      -7.9      2.823      5.404
REMARK  Name = 
REMARK  8 active torsions:
REMARK  status: ('A' for Active; 'I' for Inactive)
REMARK    1  A    between atoms: C_1  and  C_2
REMARK    2  A    between atoms: C_6  and  C_7
REMARK    3  A    between atoms: C_10  and  C_11
REMARK    4  A    between atoms: C_12  and  C_13
REMARK    5  A    between atoms: C_13  and  O_14
REMARK    6  A    between atoms: N_20  and  S_21
REMARK    7  A    between atoms: S_21  and  C_24
REMARK    8  A    between atoms: C_28  and  C_29
REMARK                            x       y       z     vdW  Elec       q    Type
REMARK                         _______ _______ _______ _____ _____    ______ ____
ROOT
ATOM      1  C   UNL     1       0.909   9.244  19.821  0.00  0.00    +0.000 C 
ATOM      2  C   UNL     1       0.405   9.709  21.238  0.00  0.00    +0.000 C 
ATOM      3  N   UNL     1       0.434  11.099  20.746  0.00  0.00    +0.000 NA
ATOM      4  C   UNL     1       0.965  12.189  21.526  0.00  0.00    +0.000 C 
ATOM      5  C   UNL     1       0.861  13.516  20.731  0.00  0.00    +0.000 C 
ATOM      6  C   UNL     1      -0.523  13.817  20.114  0.00  0.00    +0.000 C 
ATOM      7  C   UNL     1      -0.746  13.400  18.656  0.00  0.00    +0.000 C 
ATOM      8  N   UNL     1      -0.771  11.955  18.368  0.00  0.00    +0.000 NA
ATOM      9  C   UNL     1       0.615  11.346  18.284  0.00  0.00    +0.000 C 
ATOM     10  C   UNL     1       1.216  10.750  19.570  0.00  0.00    +0.000 C 
ENDROOT
BRANCH   1  14
ATOM     11  C   UNL     1       4.009   6.603  17.854  0.00  0.00    +0.000 A 
ATOM     12  C   UNL     1       3.572   7.813  17.322  0.00  0.00    +0.000 A 
ATOM     13  C   UNL     1       2.574   8.563  17.966  0.00  0.00    +0.000 A 
ATOM     14  C   UNL     1       1.937   8.192  19.191  0.00  0.00    +0.000 A 
ATOM     15  C   UNL     1       2.380   6.974  19.713  0.00  0.00    +0.000 A 
ATOM     16  C   UNL     1       3.382   6.205  19.059  0.00  0.00    +0.000 A 
BRANCH  11  22
ATOM     17  C   UNL     1       5.812   4.042  13.841  0.00  0.00    +0.000 C 
ATOM     18  C   UNL     1       5.966   4.535  15.253  0.00  0.00    +0.000 A 
ATOM     19  C   UNL     1       7.088   4.170  15.996  0.00  0.00    +0.000 A 
ATOM     20  C   UNL     1       7.231   4.623  17.305  0.00  0.00    +0.000 A 
ATOM     21  C   UNL     1       6.242   5.423  17.888  0.00  0.00    +0.000 A 
ATOM     22  C   UNL     1       5.075   5.790  17.191  0.00  0.00    +0.000 A 
ATOM     23  C   UNL     1       4.976   5.346  15.851  0.00  0.00    +0.000 A 
ENDBRANCH  11  22
ENDBRANCH   1  14
BRANCH   8  24
ATOM     24  S   UNL     1      -2.068  10.984  18.915  0.00  0.00    +0.000 S 
ATOM     25  O   UNL     1      -1.990   9.716  18.217  0.00  0.00    +0.000 OA
ATOM     26  O   UNL     1      -2.182  11.024  20.359  0.00  0.00    +0.000 OA
BRANCH  24  27
ATOM     27  C   UNL     1      -3.574  11.747  18.340  0.00  0.00    +0.000 A 
ATOM     28  C   UNL     1      -3.990  11.536  17.026  0.00  0.00    +0.000 A 
ATOM     29  C   UNL     1      -5.255  11.966  16.630  0.00  0.00    +0.000 A 
ATOM     30  C   UNL     1      -6.124  12.550  17.556  0.00  0.00    +0.000 A 
ATOM     31  C   UNL     1      -5.752  12.681  18.897  0.00  0.00    +0.000 A 
ATOM     32  C   UNL     1      -6.775  13.063  19.928  0.00  0.00    +0.000 C 
ATOM     33  C   UNL     1      -4.462  12.294  19.283  0.00  0.00    +0.000 A 
ENDBRANCH  24  27
ENDBRANCH   8  24
BRANCH   2  34
ATOM     34  C   UNL     1       0.431   9.473  22.739  0.00  0.00    +0.000 C 
BRANCH  34  35
ATOM     35  O   UNL     1      -0.810   9.677  23.380  0.00  0.00    +0.000 OA
ATOM     36  H   UNL     1      -1.487   9.324  22.762  0.00  0.00    +0.000 HD
ENDBRANCH  34  35
ENDBRANCH   2  34
TORSDOF 6
ENDMDL
MODEL 5
REMARK VINA RESULT:      -7.9      1.804      2.620
REMARK  Name = 
REMARK  8 active torsions:
REMARK  status: ('A' for Active; 'I' for Inactive)
REMARK    1  A    between atoms: C_1  and  C_2
REMARK    2  A    between atoms: C_6  and  C_7
REMARK    3  A    between atoms: C_10  and  C_11
REMARK    4  A    between atoms: C_12  and  C_13
REMARK    5  A    between atoms: C_13  and  O_14
REMARK    6  A    between atoms: N_20  and  S_21
REMARK    7  A    between atoms: S_21  and  C_24
REMARK    8  A    between atoms: C_28  and  C_29
REMARK                            x       y       z     vdW  Elec       q    Type
REMARK                         _______ _______ _______ _____ _____    ______ ____
ROOT
ATOM      1  C   UNL     1       0.644  11.108  19.076  0.00  0.00    +0.000 C 
ATOM      2  C   UNL     1      -0.665  11.819  18.570  0.00  0.00    +0.000 C 
ATOM      3  N   UNL     1      -0.634  12.652  19.787  0.00  0.00    +0.000 NA
ATOM      4  C   UNL     1      -1.811  12.930  20.570  0.00  0.00    +0.000 C 
ATOM      5  C   UNL     1      -1.447  13.822  21.786  0.00  0.00    +0.000 C 
ATOM      6  C   UNL     1      -0.611  15.080  21.463  0.00  0.00    +0.000 C 
ATOM      7  C   UNL     1       0.911  14.966  21.608  0.00  0.00    +0.000 C 
ATOM      8  N   UNL     1       1.610  14.081  20.660  0.00  0.00    +0.000 NA
ATOM      9  C   UNL     1       1.509  12.616  21.037  0.00  0.00    +0.000 C 
ATOM     10  C   UNL     1       0.348  11.800  20.439  0.00  0.00    +0.000 C 
ENDROOT
BRANCH   1  14
ATOM     11  C   UNL     1       2.131   6.866  19.582  0.00  0.00    +0.000 A 
ATOM     12  C   UNL     1       1.575   7.620  20.611  0.00  0.00    +0.000 A 
ATOM     13  C   UNL     1       1.172   8.948  20.394  0.00  0.00    +0.000 A 
ATOM     14  C   UNL     1       1.269   9.636  19.144  0.00  0.00    +0.000 A 
ATOM     15  C   UNL     1       1.834   8.872  18.119  0.00  0.00    +0.000 A 
ATOM     16  C   UNL     1       2.254   7.530  18.338  0.00  0.00    +0.000 A 
BRANCH  11  22
ATOM     17  C   UNL     1       1.630   2.344  21.864  0.00  0.00    +0.000 C 
ATOM     18  C   UNL     1       2.338   3.245  20.890  0.00  0.00    +0.000 A 
ATOM     19  C   UNL     1       3.467   2.783  20.212  0.00  0.00    +0.000 A 
ATOM     20  C   UNL     1       4.124   3.616  19.312  0.00  0.00    +0.000 A 
ATOM     21  C   UNL     1       3.674   4.925  19.102  0.00  0.00    +0.000 A 
ATOM     22  C   UNL     1       2.561   5.449  19.786  0.00  0.00    +0.000 A 
ATOM     23  C   UNL     1       1.890   4.566  20.666  0.00  0.00    +0.000 A 
ENDBRANCH  11  22
ENDBRANCH   1  14
BRANCH   8  24
ATOM     24  S   UNL     1       1.732  14.502  19.007  0.00  0.00    +0.000 S 
ATOM     25  O   UNL     1       1.957  13.281  18.260  0.00  0.00    +0.000 OA
ATOM     26  O   UNL     1       0.679  15.419  18.621  0.00  0.00    +0.000 OA
BRANCH  24  27
ATOM     27  C   UNL     1       3.227  15.455  18.817  0.00  0.00    +0.000 A 
ATOM     28  C   UNL     1       3.395  16.621  19.565  0.00  0.00    +0.000 A 
ATOM     29  C   UNL     1       4.633  17.262  19.566  0.00  0.00    +0.000 A 
ATOM     30  C   UNL     1       5.715  16.710  18.874  0.00  0.00    +0.000 A 
ATOM     31  C   UNL     1       5.582  15.493  18.198  0.00  0.00    +0.000 A 
ATOM     32  C   UNL     1       6.799  14.781  17.683  0.00  0.00    +0.000 C 
ATOM     33  C   UNL     1       4.324  14.876  18.156  0.00  0.00    +0.000 A 
ENDBRANCH  24  27
ENDBRANCH   8  24
BRANCH   2  34
ATOM     34  C   UNL     1      -1.982  11.681  17.823  0.00  0.00    +0.000 C 
BRANCH  34  35
ATOM     35  O   UNL     1      -1.879  11.863  16.427  0.00  0.00    +0.000 OA
ATOM     36  H   UNL     1      -1.132  12.486  16.297  0.00  0.00    +0.000 HD
ENDBRANCH  34  35
ENDBRANCH   2  34
TORSDOF 6
ENDMDL
MODEL 6
REMARK VINA RESULT:      -7.9      1.964      2.542
REMARK  Name = 
REMARK  8 active torsions:
REMARK  status: ('A' for Active; 'I' for Inactive)
REMARK    1  A    between atoms: C_1  and  C_2
REMARK    2  A    between atoms: C_6  and  C_7
REMARK    3  A    between atoms: C_10  and  C_11
REMARK    4  A    between atoms: C_12  and  C_13
REMARK    5  A    between atoms: C_13  and  O_14
REMARK    6  A    between atoms: N_20  and  S_21
REMARK    7  A    between atoms: S_21  and  C_24
REMARK    8  A    between atoms: C_28  and  C_29
REMARK                            x       y       z     vdW  Elec       q    Type
REMARK                         _______ _______ _______ _____ _____    ______ ____
ROOT
ATOM      1  C   UNL     1       0.882  10.813  19.171  0.00  0.00    +0.000 C 
ATOM      2  C   UNL     1      -0.379  11.612  18.671  0.00  0.00    +0.000 C 
ATOM      3  N   UNL     1      -0.260  12.467  19.867  0.00  0.00    +0.000 NA
ATOM      4  C   UNL     1      -1.398  12.852  20.664  0.00  0.00    +0.000 C 
ATOM      5  C   UNL     1      -0.944  13.740  21.852  0.00  0.00    +0.000 C 
ATOM      6  C   UNL     1      -0.020  14.923  21.484  0.00  0.00    +0.000 C 
ATOM      7  C   UNL     1       1.491  14.696  21.606  0.00  0.00    +0.000 C 
ATOM      8  N   UNL     1       2.103  13.738  20.667  0.00  0.00    +0.000 NA
ATOM      9  C   UNL     1       1.897  12.294  21.080  0.00  0.00    +0.000 C 
ATOM     10  C   UNL     1       0.666  11.556  20.523  0.00  0.00    +0.000 C 
ENDROOT
BRANCH   1  14
ATOM     11  C   UNL     1       2.026   6.473  19.729  0.00  0.00    +0.000 A 
ATOM     12  C   UNL     1       1.471   7.263  20.731  0.00  0.00    +0.000 A 
ATOM     13  C   UNL     1       1.178   8.617  20.501  0.00  0.00    +0.000 A 
ATOM     14  C   UNL     1       1.393   9.300  19.263  0.00  0.00    +0.000 A 
ATOM     15  C   UNL     1       1.956   8.499  18.266  0.00  0.00    +0.000 A 
ATOM     16  C   UNL     1       2.264   7.130  18.498  0.00  0.00    +0.000 A 
BRANCH  11  22
ATOM     17  C   UNL     1       3.475   1.915  17.984  0.00  0.00    +0.000 C 
ATOM     18  C   UNL     1       3.036   2.802  19.117  0.00  0.00    +0.000 A 
ATOM     19  C   UNL     1       2.842   2.260  20.387  0.00  0.00    +0.000 A 
ATOM     20  C   UNL     1       2.433   3.079  21.436  0.00  0.00    +0.000 A 
ATOM     21  C   UNL     1       2.192   4.440  21.217  0.00  0.00    +0.000 A 
ATOM     22  C   UNL     1       2.340   5.028  19.947  0.00  0.00    +0.000 A 
ATOM     23  C   UNL     1       2.793   4.178  18.909  0.00  0.00    +0.000 A 
ENDBRANCH  11  22
ENDBRANCH   1  14
BRANCH   8  24
ATOM     24  S   UNL     1       2.225  14.111  19.003  0.00  0.00    +0.000 S 
ATOM     25  O   UNL     1       2.607  12.898  18.309  0.00  0.00    +0.000 OA
ATOM     26  O   UNL     1       1.087  14.889  18.555  0.00  0.00    +0.000 OA
BRANCH  24  27
ATOM     27  C   UNL     1       3.609  15.220  18.815  0.00  0.00    +0.000 A 
ATOM     28  C   UNL     1       3.641  16.405  19.550  0.00  0.00    +0.000 A 
ATOM     29  C   UNL     1       4.802  17.178  19.554  0.00  0.00    +0.000 A 
ATOM     30  C   UNL     1       5.944  16.739  18.877  0.00  0.00    +0.000 A 
ATOM     31  C   UNL     1       5.951  15.508  18.215  0.00  0.00    +0.000 A 
ATOM     32  C   UNL     1       7.244  14.928  17.719  0.00  0.00    +0.000 C 
ATOM     33  C   UNL     1       4.769  14.757  18.170  0.00  0.00    +0.000 A 
ENDBRANCH  24  27
ENDBRANCH   8  24
BRANCH   2  34
ATOM     34  C   UNL     1      -1.717  11.559  17.951  0.00  0.00    +0.000 C 
BRANCH  34  35
ATOM     35  O   UNL     1      -1.721  12.192  16.688  0.00  0.00    +0.000 OA
ATOM     36  H   UNL     1      -2.613  12.025  16.313  0.00  0.00    +0.000 HD
ENDBRANCH  34  35
ENDBRANCH   2  34
TORSDOF 6
ENDMDL
MODEL 7
REMARK VINA RESULT:      -7.8      0.874      1.068
REMARK  Name = 
REMARK  8 active torsions:
REMARK  status: ('A' for Active; 'I' for Inactive)
REMARK    1  A    between atoms: C_1  and  C_2
REMARK    2  A    between atoms: C_6  and  C_7
REMARK    3  A    between atoms: C_10  and  C_11
REMARK    4  A    between atoms: C_12  and  C_13
REMARK    5  A    between atoms: C_13  and  O_14
REMARK    6  A    between atoms: N_20  and  S_21
REMARK    7  A    between atoms: S_21  and  C_24
REMARK    8  A    between atoms: C_28  and  C_29
REMARK                            x       y       z     vdW  Elec       q    Type
REMARK                         _______ _______ _______ _____ _____    ______ ____
ROOT
ATOM      1  C   UNL     1       0.089  11.108  19.292  0.00  0.00    +0.000 C 
ATOM      2  C   UNL     1      -1.182  11.795  18.667  0.00  0.00    +0.000 C 
ATOM      3  N   UNL     1      -1.398  12.475  19.958  0.00  0.00    +0.000 NA
ATOM      4  C   UNL     1      -2.697  12.585  20.572  0.00  0.00    +0.000 C 
ATOM      5  C   UNL     1      -2.590  13.343  21.921  0.00  0.00    +0.000 C 
ATOM      6  C   UNL     1      -1.816  14.679  21.875  0.00  0.00    +0.000 C 
ATOM      7  C   UNL     1      -0.329  14.640  22.245  0.00  0.00    +0.000 C 
ATOM      8  N   UNL     1       0.571  13.920  21.327  0.00  0.00    +0.000 NA
ATOM      9  C   UNL     1       0.530  12.417  21.519  0.00  0.00    +0.000 C 
ATOM     10  C   UNL     1      -0.461  11.611  20.660  0.00  0.00    +0.000 C 
ENDROOT
BRANCH   1  14
ATOM     11  C   UNL     1       2.355   7.207  18.966  0.00  0.00    +0.000 A 
ATOM     12  C   UNL     1       2.093   8.044  17.885  0.00  0.00    +0.000 A 
ATOM     13  C   UNL     1       1.346   9.222  18.051  0.00  0.00    +0.000 A 
ATOM     14  C   UNL     1       0.810   9.679  19.295  0.00  0.00    +0.000 A 
ATOM     15  C   UNL     1       1.074   8.830  20.372  0.00  0.00    +0.000 A 
ATOM     16  C   UNL     1       1.821   7.630  20.207  0.00  0.00    +0.000 A 
BRANCH  11  22
ATOM     17  C   UNL     1       2.722   2.277  17.754  0.00  0.00    +0.000 C 
ATOM     18  C   UNL     1       3.351   3.554  18.238  0.00  0.00    +0.000 A 
ATOM     19  C   UNL     1       4.690   3.563  18.629  0.00  0.00    +0.000 A 
ATOM     20  C   UNL     1       5.274   4.743  19.080  0.00  0.00    +0.000 A 
ATOM     21  C   UNL     1       4.517   5.918  19.166  0.00  0.00    +0.000 A 
ATOM     22  C   UNL     1       3.154   5.953  18.816  0.00  0.00    +0.000 A 
ATOM     23  C   UNL     1       2.599   4.747  18.326  0.00  0.00    +0.000 A 
ENDBRANCH  11  22
ENDBRANCH   1  14
BRANCH   8  24
ATOM     24  S   UNL     1       0.906  14.545  19.771  0.00  0.00    +0.000 S 
ATOM     25  O   UNL     1       1.766  13.595  19.094  0.00  0.00    +0.000 OA
ATOM     26  O   UNL     1      -0.299  15.035  19.133  0.00  0.00    +0.000 OA
BRANCH  24  27
ATOM     27  C   UNL     1       1.902  16.007  19.996  0.00  0.00    +0.000 A 
ATOM     28  C   UNL     1       1.475  16.996  20.883  0.00  0.00    +0.000 A 
ATOM     29  C   UNL     1       2.337  18.043  21.207  0.00  0.00    +0.000 A 
ATOM     30  C   UNL     1       3.638  18.071  20.697  0.00  0.00    +0.000 A 
ATOM     31  C   UNL     1       4.105  17.036  19.881  0.00  0.00    +0.000 A 
ATOM     32  C   UNL     1       5.568  16.939  19.554  0.00  0.00    +0.000 C 
ATOM     33  C   UNL     1       3.223  16.011  19.516  0.00  0.00    +0.000 A 
ENDBRANCH  24  27
ENDBRANCH   8  24
BRANCH   2  34
ATOM     34  C   UNL     1      -2.357  11.670  17.712  0.00  0.00    +0.000 C 
BRANCH  34  35
ATOM     35  O   UNL     1      -2.002  11.713  16.346  0.00  0.00    +0.000 OA
ATOM     36  H   UNL     1      -1.912  10.776  16.067  0.00  0.00    +0.000 HD
ENDBRANCH  34  35
ENDBRANCH   2  34
TORSDOF 6
ENDMDL
MODEL 8
REMARK VINA RESULT:      -7.7      0.622      1.030
REMARK  Name = 
REMARK  8 active torsions:
REMARK  status: ('A' for Active; 'I' for Inactive)
REMARK    1  A    between atoms: C_1  and  C_2
REMARK    2  A    between atoms: C_6  and  C_7
REMARK    3  A    between atoms: C_10  and  C_11
REMARK    4  A    between atoms: C_12  and  C_13
REMARK    5  A    between atoms: C_13  and  O_14
REMARK    6  A    between atoms: N_20  and  S_21
REMARK    7  A    between atoms: S_21  and  C_24
REMARK    8  A    between atoms: C_28  and  C_29
REMARK                            x       y       z     vdW  Elec       q    Type
REMARK                         _______ _______ _______ _____ _____    ______ ____
ROOT
ATOM      1  C   UNL     1       0.178  11.235  19.062  0.00  0.00    +0.000 C 
ATOM      2  C   UNL     1      -1.204  11.775  18.539  0.00  0.00    +0.000 C 
ATOM      3  N   UNL     1      -1.435  12.357  19.875  0.00  0.00    +0.000 NA
ATOM      4  C   UNL     1      -2.701  12.262  20.557  0.00  0.00    +0.000 C 
ATOM      5  C   UNL     1      -2.620  12.961  21.938  0.00  0.00    +0.000 C 
ATOM      6  C   UNL     1      -2.031  14.390  21.929  0.00  0.00    +0.000 C 
ATOM      7  C   UNL     1      -0.533  14.532  22.223  0.00  0.00    +0.000 C 
ATOM      8  N   UNL     1       0.401  13.984  21.224  0.00  0.00    +0.000 NA
ATOM      9  C   UNL     1       0.568  12.481  21.334  0.00  0.00    +0.000 C 
ATOM     10  C   UNL     1      -0.355  11.593  20.481  0.00  0.00    +0.000 C 
ENDROOT
BRANCH   1  14
ATOM     11  C   UNL     1       2.462   7.331  19.033  0.00  0.00    +0.000 A 
ATOM     12  C   UNL     1       1.752   7.805  20.132  0.00  0.00    +0.000 A 
ATOM     13  C   UNL     1       1.100   9.048  20.086  0.00  0.00    +0.000 A 
ATOM     14  C   UNL     1       1.079   9.917  18.950  0.00  0.00    +0.000 A 
ATOM     15  C   UNL     1       1.799   9.433  17.854  0.00  0.00    +0.000 A 
ATOM     16  C   UNL     1       2.470   8.180  17.901  0.00  0.00    +0.000 A 
BRANCH  11  22
ATOM     17  C   UNL     1       6.457   4.380  17.917  0.00  0.00    +0.000 C 
ATOM     18  C   UNL     1       5.089   4.556  18.516  0.00  0.00    +0.000 A 
ATOM     19  C   UNL     1       4.414   3.453  19.040  0.00  0.00    +0.000 A 
ATOM     20  C   UNL     1       3.147   3.613  19.592  0.00  0.00    +0.000 A 
ATOM     21  C   UNL     1       2.534   4.872  19.602  0.00  0.00    +0.000 A 
ATOM     22  C   UNL     1       3.159   6.008  19.055  0.00  0.00    +0.000 A 
ATOM     23  C   UNL     1       4.462   5.821  18.535  0.00  0.00    +0.000 A 
ENDBRANCH  11  22
ENDBRANCH   1  14
BRANCH   8  24
ATOM     24  S   UNL     1       0.564  14.723  19.691  0.00  0.00    +0.000 S 
ATOM     25  O   UNL     1       1.504  13.933  18.921  0.00  0.00    +0.000 OA
ATOM     26  O   UNL     1      -0.729  15.074  19.138  0.00  0.00    +0.000 OA
BRANCH  24  27
ATOM     27  C   UNL     1       1.366  16.295  19.948  0.00  0.00    +0.000 A 
ATOM     28  C   UNL     1       0.601  17.401  20.317  0.00  0.00    +0.000 A 
ATOM     29  C   UNL     1       1.240  18.577  20.706  0.00  0.00    +0.000 A 
ATOM     30  C   UNL     1       2.634  18.630  20.784  0.00  0.00    +0.000 A 
ATOM     31  C   UNL     1       3.407  17.499  20.505  0.00  0.00    +0.000 A 
ATOM     32  C   UNL     1       4.871  17.486  20.840  0.00  0.00    +0.000 C 
ATOM     33  C   UNL     1       2.766  16.333  20.067  0.00  0.00    +0.000 A 
ENDBRANCH  24  27
ENDBRANCH   8  24
BRANCH   2  34
ATOM     34  C   UNL     1      -2.405  11.541  17.636  0.00  0.00    +0.000 C 
BRANCH  34  35
ATOM     35  O   UNL     1      -2.118  11.628  16.256  0.00  0.00    +0.000 OA
ATOM     36  H   UNL     1      -1.511  12.394  16.161  0.00  0.00    +0.000 HD
ENDBRANCH  34  35
ENDBRANCH   2  34
TORSDOF 6
ENDMDL
MODEL 9
REMARK VINA RESULT:      -7.6      1.460      1.547
REMARK  Name = 
REMARK  8 active torsions:
REMARK  status: ('A' for Active; 'I' for Inactive)
REMARK    1  A    between atoms: C_1  and  C_2
REMARK    2  A    between atoms: C_6  and  C_7
REMARK    3  A    between atoms: C_10  and  C_11
REMARK    4  A    between atoms: C_12  and  C_13
REMARK    5  A    between atoms: C_13  and  O_14
REMARK    6  A    between atoms: N_20  and  S_21
REMARK    7  A    between atoms: S_21  and  C_24
REMARK    8  A    between atoms: C_28  and  C_29
REMARK                            x       y       z     vdW  Elec       q    Type
REMARK                         _______ _______ _______ _____ _____    ______ ____
ROOT
ATOM      1  C   UNL     1       0.288  11.006  19.410  0.00  0.00    +0.000 C 
ATOM      2  C   UNL     1      -0.767  11.921  18.683  0.00  0.00    +0.000 C 
ATOM      3  N   UNL     1      -1.344  12.233  20.004  0.00  0.00    +0.000 NA
ATOM      4  C   UNL     1      -2.765  12.256  20.248  0.00  0.00    +0.000 C 
ATOM      5  C   UNL     1      -3.048  12.608  21.731  0.00  0.00    +0.000 C 
ATOM      6  C   UNL     1      -2.310  13.851  22.275  0.00  0.00    +0.000 C 
ATOM      7  C   UNL     1      -0.985  13.614  23.009  0.00  0.00    +0.000 C 
ATOM      8  N   UNL     1       0.145  13.115  22.206  0.00  0.00    +0.000 NA
ATOM      9  C   UNL     1       0.072  11.623  21.948  0.00  0.00    +0.000 C 
ATOM     10  C   UNL     1      -0.629  11.150  20.661  0.00  0.00    +0.000 C 
ENDROOT
BRANCH   1  14
ATOM     11  C   UNL     1       2.512   7.172  18.509  0.00  0.00    +0.000 A 
ATOM     12  C   UNL     1       2.208   8.135  17.551  0.00  0.00    +0.000 A 
ATOM     13  C   UNL     1       1.477   9.285  17.893  0.00  0.00    +0.000 A 
ATOM     14  C   UNL     1       0.999   9.587  19.206  0.00  0.00    +0.000 A 
ATOM     15  C   UNL     1       1.304   8.611  20.159  0.00  0.00    +0.000 A 
ATOM     16  C   UNL     1       2.036   7.440  19.815  0.00  0.00    +0.000 A 
BRANCH  11  22
ATOM     17  C   UNL     1       6.942   4.774  17.779  0.00  0.00    +0.000 C 
ATOM     18  C   UNL     1       5.439   4.763  17.806  0.00  0.00    +0.000 A 
ATOM     19  C   UNL     1       4.747   3.608  17.437  0.00  0.00    +0.000 A 
ATOM     20  C   UNL     1       3.356   3.596  17.458  0.00  0.00    +0.000 A 
ATOM     21  C   UNL     1       2.645   4.745  17.825  0.00  0.00    +0.000 A 
ATOM     22  C   UNL     1       3.295   5.944  18.172  0.00  0.00    +0.000 A 
ATOM     23  C   UNL     1       4.710   5.914  18.177  0.00  0.00    +0.000 A 
ENDBRANCH  11  22
ENDBRANCH   1  14
BRANCH   8  24
ATOM     24  S   UNL     1       0.892  14.119  21.040  0.00  0.00    +0.000 S 
ATOM     25  O   UNL     1       1.929  13.340  20.392  0.00  0.00    +0.000 OA
ATOM     26  O   UNL     1      -0.093  14.833  20.254  0.00  0.00    +0.000 OA
BRANCH  24  27
ATOM     27  C   UNL     1       1.752  15.404  21.928  0.00  0.00    +0.000 A 
ATOM     28  C   UNL     1       1.016  16.377  22.605  0.00  0.00    +0.000 A 
ATOM     29  C   UNL     1       1.674  17.265  23.455  0.00  0.00    +0.000 A 
ATOM     30  C   UNL     1       3.049  17.145  23.675  0.00  0.00    +0.000 A 
ATOM     31  C   UNL     1       3.779  16.115  23.074  0.00  0.00    +0.000 A 
ATOM     32  C   UNL     1       5.187  15.834  23.514  0.00  0.00    +0.000 C 
ATOM     33  C   UNL     1       3.127  15.254  22.181  0.00  0.00    +0.000 A 
ENDBRANCH  24  27
ENDBRANCH   8  24
BRANCH   2  34
ATOM     34  C   UNL     1      -1.628  12.140  17.449  0.00  0.00    +0.000 C 
BRANCH  34  35
ATOM     35  O   UNL     1      -1.917  10.961  16.727  0.00  0.00    +0.000 OA
ATOM     36  H   UNL     1      -1.331  10.270  17.105  0.00  0.00    +0.000 HD
ENDBRANCH  34  35
ENDBRANCH   2  34
TORSDOF 6
ENDMDL
