MODEL 1
REMARK VINA RESULT:      -6.9      0.000      0.000
REMARK  Name = 
REMARK  3 active torsions:
REMARK  status: ('A' for Active; 'I' for Inactive)
REMARK    1  A    between atoms: N_3  and  C_4
REMARK    2  A    between atoms: C_4  and  C_5
REMARK    3  A    between atoms: C_5  and  N_6
REMARK                            x       y       z     vdW  Elec       q    Type
REMARK                         _______ _______ _______ _____ _____    ______ ____
ROOT
ATOM      1  C   UNL     1       6.553   5.418  19.321  0.00  0.00    +0.000 C 
ENDROOT
BRANCH   1   4
ATOM      2  O   UNL     1       3.896   6.146  19.000  0.00  0.00    +0.000 OA
ATOM      3  C   UNL     1       4.153   4.954  19.135  0.00  0.00    +0.000 C 
ATOM      4  N   UNL     1       5.431   4.487  19.326  0.00  0.00    +0.000 N 
ATOM      5  N   UNL     1       3.184   3.982  19.100  0.00  0.00    +0.000 N 
ATOM      6  C   UNL     1       1.806   4.335  18.814  0.00  0.00    +0.000 C 
ATOM      7  C   UNL     1       0.997   3.425  19.718  0.00  0.00    +0.000 C 
ATOM      8  C   UNL     1       1.836   2.154  19.756  0.00  0.00    +0.000 C 
ATOM      9  C   UNL     1       3.273   2.665  19.708  0.00  0.00    +0.000 C 
ATOM     10  H   UNL     1       5.599   3.553  18.990  0.00  0.00    +0.000 HD
ENDBRANCH   1   4
BRANCH   1  11
ATOM     11  C   UNL     1       7.652   5.045  18.312  0.00  0.00    +0.000 C 
BRANCH  11  12
ATOM     12  N   UNL     1       7.578   5.865  17.109  0.00  0.00    +0.000 N 
ATOM     13  C   UNL     1       7.063   5.177  16.015  0.00  0.00    +0.000 A 
ATOM     14  N   UNL     1       6.189   4.175  16.196  0.00  0.00    +0.000 NA
ATOM     15  C   UNL     1       5.742   3.530  15.106  0.00  0.00    +0.000 A 
ATOM     16  C   UNL     1       6.139   3.847  13.834  0.00  0.00    +0.000 A 
ATOM     17  C   UNL     1       7.036   4.883  13.747  0.00  0.00    +0.000 A 
ATOM     18  N   UNL     1       7.518   5.552  14.813  0.00  0.00    +0.000 NA
ATOM     19  H   UNL     1       8.437   6.297  16.794  0.00  0.00    +0.000 HD
ENDBRANCH  11  12
ENDBRANCH   1  11
TORSDOF 3
ENDMDL
MODEL 2
REMARK VINA RESULT:      -6.7      1.760      3.110
REMARK  Name = 
REMARK  3 active torsions:
REMARK  status: ('A' for Active; 'I' for Inactive)
REMARK    1  A    between atoms: N_3  and  C_4
REMARK    2  A    between atoms: C_4  and  C_5
REMARK    3  A    between atoms: C_5  and  N_6
REMARK                            x       y       z     vdW  Elec       q    Type
REMARK                         _______ _______ _______ _____ _____    ______ ____
ROOT
ATOM      1  C   UNL     1       4.405   3.874  16.170  0.00  0.00    +0.000 C 
ENDROOT
BRANCH   1   4
ATOM      2  O   UNL     1       1.804   3.630  17.103  0.00  0.00    +0.000 OA
ATOM      3  C   UNL     1       2.718   3.333  17.865  0.00  0.00    +0.000 C 
ATOM      4  N   UNL     1       4.041   3.441  17.514  0.00  0.00    +0.000 N 
ATOM      5  N   UNL     1       2.496   2.860  19.135  0.00  0.00    +0.000 N 
ATOM      6  C   UNL     1       1.142   2.613  19.596  0.00  0.00    +0.000 C 
ATOM      7  C   UNL     1       1.163   3.045  21.050  0.00  0.00    +0.000 C 
ATOM      8  C   UNL     1       2.574   2.677  21.491  0.00  0.00    +0.000 C 
ATOM      9  C   UNL     1       3.424   2.941  20.252  0.00  0.00    +0.000 C 
ATOM     10  H   UNL     1       4.661   2.797  17.980  0.00  0.00    +0.000 HD
ENDBRANCH   1   4
BRANCH   1  11
ATOM     11  C   UNL     1       5.900   3.702  15.855  0.00  0.00    +0.000 C 
BRANCH  11  12
ATOM     12  N   UNL     1       6.527   4.973  15.516  0.00  0.00    +0.000 N 
ATOM     13  C   UNL     1       7.081   5.616  16.618  0.00  0.00    +0.000 A 
ATOM     14  N   UNL     1       7.538   4.902  17.659  0.00  0.00    +0.000 NA
ATOM     15  C   UNL     1       8.042   5.575  18.706  0.00  0.00    +0.000 A 
ATOM     16  C   UNL     1       8.104   6.942  18.756  0.00  0.00    +0.000 A 
ATOM     17  C   UNL     1       7.611   7.588  17.649  0.00  0.00    +0.000 A 
ATOM     18  N   UNL     1       7.090   6.954  16.580  0.00  0.00    +0.000 NA
ATOM     19  H   UNL     1       5.949   5.660  15.047  0.00  0.00    +0.000 HD
ENDBRANCH  11  12
ENDBRANCH   1  11
TORSDOF 3
ENDMDL
MODEL 3
REMARK VINA RESULT:      -6.6      1.344      1.703
REMARK  Name = 
REMARK  3 active torsions:
REMARK  status: ('A' for Active; 'I' for Inactive)
REMARK    1  A    between atoms: N_3  and  C_4
REMARK    2  A    between atoms: C_4  and  C_5
REMARK    3  A    between atoms: C_5  and  N_6
REMARK                            x       y       z     vdW  Elec       q    Type
REMARK                         _______ _______ _______ _____ _____    ______ ____
ROOT
ATOM      1  C   UNL     1       6.132   5.745  17.981  0.00  0.00    +0.000 C 
ENDROOT
BRANCH   1   4
ATOM      2  O   UNL     1       5.437   3.598  19.594  0.00  0.00    +0.000 OA
ATOM      3  C   UNL     1       4.545   4.156  18.963  0.00  0.00    +0.000 C 
ATOM      4  N   UNL     1       4.782   5.211  18.117  0.00  0.00    +0.000 N 
ATOM      5  N   UNL     1       3.229   3.777  19.056  0.00  0.00    +0.000 N 
ATOM      6  C   UNL     1       2.832   2.735  19.985  0.00  0.00    +0.000 C 
ATOM      7  C   UNL     1       1.758   1.966  19.240  0.00  0.00    +0.000 C 
ATOM      8  C   UNL     1       1.068   3.052  18.425  0.00  0.00    +0.000 C 
ATOM      9  C   UNL     1       2.202   4.002  18.051  0.00  0.00    +0.000 C 
ATOM     10  H   UNL     1       4.014   5.854  18.008  0.00  0.00    +0.000 HD
ENDBRANCH   1   4
BRANCH   1  11
ATOM     11  C   UNL     1       7.004   4.958  16.989  0.00  0.00    +0.000 C 
BRANCH  11  12
ATOM     12  N   UNL     1       7.338   5.756  15.816  0.00  0.00    +0.000 N 
ATOM     13  C   UNL     1       7.050   5.108  14.619  0.00  0.00    +0.000 A 
ATOM     14  N   UNL     1       6.050   4.215  14.557  0.00  0.00    +0.000 NA
ATOM     15  C   UNL     1       5.830   3.603  13.382  0.00  0.00    +0.000 A 
ATOM     16  C   UNL     1       6.578   3.847  12.260  0.00  0.00    +0.000 A 
ATOM     17  C   UNL     1       7.579   4.772  12.419  0.00  0.00    +0.000 A 
ATOM     18  N   UNL     1       7.841   5.404  13.580  0.00  0.00    +0.000 NA
ATOM     19  H   UNL     1       8.294   6.082  15.739  0.00  0.00    +0.000 HD
ENDBRANCH  11  12
ENDBRANCH   1  11
TORSDOF 3
ENDMDL
MODEL 4
REMARK VINA RESULT:      -6.6      1.065      1.115
REMARK  Name = 
REMARK  3 active torsions:
REMARK  status: ('A' for Active; 'I' for Inactive)
REMARK    1  A    between atoms: N_3  and  C_4
REMARK    2  A    between atoms: C_4  and  C_5
REMARK    3  A    between atoms: C_5  and  N_6
REMARK                            x       y       z     vdW  Elec       q    Type
REMARK                         _______ _______ _______ _____ _____    ______ ____
ROOT
ATOM      1  C   UNL     1       6.034   5.555  18.303  0.00  0.00    +0.000 C 
ENDROOT
BRANCH   1   4
ATOM      2  O   UNL     1       3.401   5.291  17.471  0.00  0.00    +0.000 OA
ATOM      3  C   UNL     1       3.774   4.613  18.422  0.00  0.00    +0.000 C 
ATOM      4  N   UNL     1       5.048   4.684  18.930  0.00  0.00    +0.000 N 
ATOM      5  N   UNL     1       2.950   3.716  19.056  0.00  0.00    +0.000 N 
ATOM      6  C   UNL     1       1.607   3.480  18.559  0.00  0.00    +0.000 C 
ATOM      7  C   UNL     1       0.773   3.309  19.814  0.00  0.00    +0.000 C 
ATOM      8  C   UNL     1       1.741   2.628  20.773  0.00  0.00    +0.000 C 
ATOM      9  C   UNL     1       3.093   3.244  20.424  0.00  0.00    +0.000 C 
ATOM     10  H   UNL     1       5.382   3.839  19.366  0.00  0.00    +0.000 HD
ENDBRANCH   1   4
BRANCH   1  11
ATOM     11  C   UNL     1       6.947   4.825  17.304  0.00  0.00    +0.000 C 
BRANCH  11  12
ATOM     12  N   UNL     1       7.321   5.687  16.189  0.00  0.00    +0.000 N 
ATOM     13  C   UNL     1       7.059   5.113  14.949  0.00  0.00    +0.000 A 
ATOM     14  N   UNL     1       6.053   4.237  14.808  0.00  0.00    +0.000 NA
ATOM     15  C   UNL     1       5.859   3.696  13.594  0.00  0.00    +0.000 A 
ATOM     16  C   UNL     1       6.639   3.997  12.509  0.00  0.00    +0.000 A 
ATOM     17  C   UNL     1       7.644   4.901  12.748  0.00  0.00    +0.000 A 
ATOM     18  N   UNL     1       7.880   5.461  13.950  0.00  0.00    +0.000 NA
ATOM     19  H   UNL     1       8.281   6.006  16.157  0.00  0.00    +0.000 HD
ENDBRANCH  11  12
ENDBRANCH   1  11
TORSDOF 3
ENDMDL
MODEL 5
REMARK VINA RESULT:      -6.6      1.310      1.447
REMARK  Name = 
REMARK  3 active torsions:
REMARK  status: ('A' for Active; 'I' for Inactive)
REMARK    1  A    between atoms: N_3  and  C_4
REMARK    2  A    between atoms: C_4  and  C_5
REMARK    3  A    between atoms: C_5  and  N_6
REMARK                            x       y       z     vdW  Elec       q    Type
REMARK                         _______ _______ _______ _____ _____    ______ ____
ROOT
ATOM      1  C   UNL     1       5.766   5.482  17.790  0.00  0.00    +0.000 C 
ENDROOT
BRANCH   1   4
ATOM      2  O   UNL     1       3.913   5.640  19.848  0.00  0.00    +0.000 OA
ATOM      3  C   UNL     1       3.670   4.885  18.912  0.00  0.00    +0.000 C 
ATOM      4  N   UNL     1       4.530   4.712  17.856  0.00  0.00    +0.000 N 
ATOM      5  N   UNL     1       2.512   4.152  18.838  0.00  0.00    +0.000 N 
ATOM      6  C   UNL     1       1.479   4.313  19.845  0.00  0.00    +0.000 C 
ATOM      7  C   UNL     1       0.941   2.910  20.050  0.00  0.00    +0.000 C 
ATOM      8  C   UNL     1       1.054   2.298  18.659  0.00  0.00    +0.000 C 
ATOM      9  C   UNL     1       2.328   2.917  18.092  0.00  0.00    +0.000 C 
ATOM     10  H   UNL     1       4.092   4.459  16.985  0.00  0.00    +0.000 HD
ENDBRANCH   1   4
BRANCH   1  11
ATOM     11  C   UNL     1       6.849   4.827  16.916  0.00  0.00    +0.000 C 
BRANCH  11  12
ATOM     12  N   UNL     1       7.234   5.687  15.803  0.00  0.00    +0.000 N 
ATOM     13  C   UNL     1       7.041   5.086  14.563  0.00  0.00    +0.000 A 
ATOM     14  N   UNL     1       6.073   4.172  14.397  0.00  0.00    +0.000 NA
ATOM     15  C   UNL     1       5.946   3.608  13.185  0.00  0.00    +0.000 A 
ATOM     16  C   UNL     1       6.755   3.923  12.126  0.00  0.00    +0.000 A 
ATOM     17  C   UNL     1       7.717   4.866  12.389  0.00  0.00    +0.000 A 
ATOM     18  N   UNL     1       7.887   5.451  13.591  0.00  0.00    +0.000 NA
ATOM     19  H   UNL     1       8.182   6.040  15.803  0.00  0.00    +0.000 HD
ENDBRANCH  11  12
ENDBRANCH   1  11
TORSDOF 3
ENDMDL
MODEL 6
REMARK VINA RESULT:      -6.4      1.537      2.066
REMARK  Name = 
REMARK  3 active torsions:
REMARK  status: ('A' for Active; 'I' for Inactive)
REMARK    1  A    between atoms: N_3  and  C_4
REMARK    2  A    between atoms: C_4  and  C_5
REMARK    3  A    between atoms: C_5  and  N_6
REMARK                            x       y       z     vdW  Elec       q    Type
REMARK                         _______ _______ _______ _____ _____    ______ ____
ROOT
ATOM      1  C   UNL     1       4.942   5.924  16.961  0.00  0.00    +0.000 C 
ENDROOT
BRANCH   1   4
ATOM      2  O   UNL     1       3.895   5.813  19.528  0.00  0.00    +0.000 OA
ATOM      3  C   UNL     1       3.344   5.153  18.653  0.00  0.00    +0.000 C 
ATOM      4  N   UNL     1       3.794   5.116  17.356  0.00  0.00    +0.000 N 
ATOM      5  N   UNL     1       2.223   4.398  18.895  0.00  0.00    +0.000 N 
ATOM      6  C   UNL     1       1.594   4.424  20.203  0.00  0.00    +0.000 C 
ATOM      7  C   UNL     1       1.146   2.991  20.425  0.00  0.00    +0.000 C 
ATOM      8  C   UNL     1       0.776   2.532  19.020  0.00  0.00    +0.000 C 
ATOM      9  C   UNL     1       1.788   3.243  18.126  0.00  0.00    +0.000 C 
ATOM     10  H   UNL     1       3.085   4.942  16.662  0.00  0.00    +0.000 HD
ENDBRANCH   1   4
BRANCH   1  11
ATOM     11  C   UNL     1       6.265   5.141  16.947  0.00  0.00    +0.000 C 
BRANCH  11  12
ATOM     12  N   UNL     1       6.182   3.961  16.094  0.00  0.00    +0.000 N 
ATOM     13  C   UNL     1       6.601   4.204  14.790  0.00  0.00    +0.000 A 
ATOM     14  N   UNL     1       7.525   5.145  14.540  0.00  0.00    +0.000 NA
ATOM     15  C   UNL     1       7.876   5.353  13.261  0.00  0.00    +0.000 A 
ATOM     16  C   UNL     1       7.334   4.655  12.214  0.00  0.00    +0.000 A 
ATOM     17  C   UNL     1       6.397   3.715  12.565  0.00  0.00    +0.000 A 
ATOM     18  N   UNL     1       6.008   3.479  13.833  0.00  0.00    +0.000 NA
ATOM     19  H   UNL     1       5.279   3.509  16.023  0.00  0.00    +0.000 HD
ENDBRANCH  11  12
ENDBRANCH   1  11
TORSDOF 3
ENDMDL
MODEL 7
REMARK VINA RESULT:      -6.4      1.442      2.162
REMARK  Name = 
REMARK  3 active torsions:
REMARK  status: ('A' for Active; 'I' for Inactive)
REMARK    1  A    between atoms: N_3  and  C_4
REMARK    2  A    between atoms: C_4  and  C_5
REMARK    3  A    between atoms: C_5  and  N_6
REMARK                            x       y       z     vdW  Elec       q    Type
REMARK                         _______ _______ _______ _____ _____    ______ ____
ROOT
ATOM      1  C   UNL     1       6.660   5.457  18.437  0.00  0.00    +0.000 C 
ENDROOT
BRANCH   1   4
ATOM      2  O   UNL     1       5.208   3.177  19.061  0.00  0.00    +0.000 OA
ATOM      3  C   UNL     1       4.722   4.265  19.351  0.00  0.00    +0.000 C 
ATOM      4  N   UNL     1       5.344   5.456  19.065  0.00  0.00    +0.000 N 
ATOM      5  N   UNL     1       3.515   4.386  19.993  0.00  0.00    +0.000 N 
ATOM      6  C   UNL     1       2.800   3.201  20.433  0.00  0.00    +0.000 C 
ATOM      7  C   UNL     1       1.342   3.535  20.179  0.00  0.00    +0.000 C 
ATOM      8  C   UNL     1       1.287   5.034  20.449  0.00  0.00    +0.000 C 
ATOM      9  C   UNL     1       2.636   5.543  19.951  0.00  0.00    +0.000 C 
ATOM     10  H   UNL     1       5.126   6.213  19.691  0.00  0.00    +0.000 HD
ENDBRANCH   1   4
BRANCH   1  11
ATOM     11  C   UNL     1       6.611   5.646  16.912  0.00  0.00    +0.000 C 
BRANCH  11  12
ATOM     12  N   UNL     1       6.439   4.375  16.219  0.00  0.00    +0.000 N 
ATOM     13  C   UNL     1       6.755   4.449  14.866  0.00  0.00    +0.000 A 
ATOM     14  N   UNL     1       7.671   5.328  14.432  0.00  0.00    +0.000 NA
ATOM     15  C   UNL     1       7.921   5.372  13.113  0.00  0.00    +0.000 A 
ATOM     16  C   UNL     1       7.284   4.568  12.205  0.00  0.00    +0.000 A 
ATOM     17  C   UNL     1       6.362   3.703  12.740  0.00  0.00    +0.000 A 
ATOM     18  N   UNL     1       6.074   3.630  14.054  0.00  0.00    +0.000 NA
ATOM     19  H   UNL     1       5.525   3.942  16.274  0.00  0.00    +0.000 HD
ENDBRANCH  11  12
ENDBRANCH   1  11
TORSDOF 3
ENDMDL
MODEL 8
REMARK VINA RESULT:      -6.4      1.475      2.157
REMARK  Name = 
REMARK  3 active torsions:
REMARK  status: ('A' for Active; 'I' for Inactive)
REMARK    1  A    between atoms: N_3  and  C_4
REMARK    2  A    between atoms: C_4  and  C_5
REMARK    3  A    between atoms: C_5  and  N_6
REMARK                            x       y       z     vdW  Elec       q    Type
REMARK                         _______ _______ _______ _____ _____    ______ ____
ROOT
ATOM      1  C   UNL     1       6.314   6.471  17.913  0.00  0.00    +0.000 C 
ENDROOT
BRANCH   1   4
ATOM      2  O   UNL     1       5.977   4.103  19.318  0.00  0.00    +0.000 OA
ATOM      3  C   UNL     1       5.000   4.579  18.751  0.00  0.00    +0.000 C 
ATOM      4  N   UNL     1       5.060   5.732  18.008  0.00  0.00    +0.000 N 
ATOM      5  N   UNL     1       3.756   4.002  18.816  0.00  0.00    +0.000 N 
ATOM      6  C   UNL     1       3.537   2.830  19.644  0.00  0.00    +0.000 C 
ATOM      7  C   UNL     1       2.572   1.983  18.836  0.00  0.00    +0.000 C 
ATOM      8  C   UNL     1       1.712   3.026  18.135  0.00  0.00    +0.000 C 
ATOM      9  C   UNL     1       2.685   4.165  17.845  0.00  0.00    +0.000 C 
ATOM     10  H   UNL     1       4.204   6.261  17.967  0.00  0.00    +0.000 HD
ENDBRANCH   1   4
BRANCH   1  11
ATOM     11  C   UNL     1       7.157   6.092  16.684  0.00  0.00    +0.000 C 
BRANCH  11  12
ATOM     12  N   UNL     1       6.847   4.747  16.215  0.00  0.00    +0.000 N 
ATOM     13  C   UNL     1       6.950   4.618  14.834  0.00  0.00    +0.000 A 
ATOM     14  N   UNL     1       7.810   5.384  14.145  0.00  0.00    +0.000 NA
ATOM     15  C   UNL     1       7.852   5.232  12.811  0.00  0.00    +0.000 A 
ATOM     16  C   UNL     1       7.062   4.342  12.134  0.00  0.00    +0.000 A 
ATOM     17  C   UNL     1       6.213   3.604  12.921  0.00  0.00    +0.000 A 
ATOM     18  N   UNL     1       6.130   3.728  14.260  0.00  0.00    +0.000 NA
ATOM     19  H   UNL     1       5.942   4.369  16.469  0.00  0.00    +0.000 HD
ENDBRANCH  11  12
ENDBRANCH   1  11
TORSDOF 3
ENDMDL
MODEL 9
REMARK VINA RESULT:      -6.3      1.584      2.244
REMARK  Name = 
REMARK  3 active torsions:
REMARK  status: ('A' for Active; 'I' for Inactive)
REMARK    1  A    between atoms: N_3  and  C_4
REMARK    2  A    between atoms: C_4  and  C_5
REMARK    3  A    between atoms: C_5  and  N_6
REMARK                            x       y       z     vdW  Elec       q    Type
REMARK                         _______ _______ _______ _____ _____    ______ ____
ROOT
ATOM      1  C   UNL     1       5.372   6.063  16.882  0.00  0.00    +0.000 C 
ENDROOT
BRANCH   1   4
ATOM      2  O   UNL     1       3.636   3.901  16.803  0.00  0.00    +0.000 OA
ATOM      3  C   UNL     1       3.705   4.544  17.845  0.00  0.00    +0.000 C 
ATOM      4  N   UNL     1       4.512   5.647  17.984  0.00  0.00    +0.000 N 
ATOM      5  N   UNL     1       2.986   4.212  18.966  0.00  0.00    +0.000 N 
ATOM      6  C   UNL     1       2.165   3.015  18.979  0.00  0.00    +0.000 C 
ATOM      7  C   UNL     1       0.936   3.420  19.770  0.00  0.00    +0.000 C 
ATOM      8  C   UNL     1       1.500   4.395  20.796  0.00  0.00    +0.000 C 
ATOM      9  C   UNL     1       2.610   5.118  20.039  0.00  0.00    +0.000 C 
ATOM     10  H   UNL     1       4.838   5.823  18.921  0.00  0.00    +0.000 HD
ENDBRANCH   1   4
BRANCH   1  11
ATOM     11  C   UNL     1       6.692   5.280  16.806  0.00  0.00    +0.000 C 
BRANCH  11  12
ATOM     12  N   UNL     1       6.555   4.073  16.000  0.00  0.00    +0.000 N 
ATOM     13  C   UNL     1       6.840   4.285  14.655  0.00  0.00    +0.000 A 
ATOM     14  N   UNL     1       7.713   5.236  14.289  0.00  0.00    +0.000 NA
ATOM     15  C   UNL     1       7.933   5.413  12.976  0.00  0.00    +0.000 A 
ATOM     16  C   UNL     1       7.310   4.672  12.008  0.00  0.00    +0.000 A 
ATOM     17  C   UNL     1       6.433   3.724  12.475  0.00  0.00    +0.000 A 
ATOM     18  N   UNL     1       6.175   3.518  13.781  0.00  0.00    +0.000 NA
ATOM     19  H   UNL     1       5.660   3.600  16.029  0.00  0.00    +0.000 HD
ENDBRANCH  11  12
ENDBRANCH   1  11
TORSDOF 3
ENDMDL
