MODEL 1
REMARK VINA RESULT:      -8.5      0.000      0.000
REMARK  Name = 
REMARK  9 active torsions:
REMARK  status: ('A' for Active; 'I' for Inactive)
REMARK    1  A    between atoms: C_1  and  C_2
REMARK    2  A    between atoms: C_3  and  C_4
REMARK    3  A    between atoms: C_4  and  O_5
REMARK    4  A    between atoms: O_5  and  C_6
REMARK    5  A    between atoms: C_9  and  S_10
REMARK    6  A    between atoms: S_10  and  C_13
REMARK    7  A    between atoms: C_13  and  C_14
REMARK    8  A    between atoms: C_14  and  C_15
REMARK    9  A    between atoms: N_17  and  O_18
REMARK                            x       y       z     vdW  Elec       q    Type
REMARK                         _______ _______ _______ _____ _____    ______ ____
ROOT
ATOM      1  C   UNL     1       2.022   5.086  19.288  0.00  0.00    +0.000 C 
ATOM      2  C   UNL     1       2.234   6.220  18.223  0.00  0.00    +0.000 C 
ATOM      3  C   UNL     1       2.642   7.568  18.824  0.00  0.00    +0.000 C 
ATOM      4  N   UNL     1       1.700   7.936  19.865  0.00  0.00    +0.000 N 
ATOM      5  C   UNL     1       0.962   9.103  19.784  0.00  0.00    +0.000 A 
ATOM      6  C   UNL     1       0.567   9.769  20.946  0.00  0.00    +0.000 A 
ATOM      7  C   UNL     1      -0.197  10.936  20.884  0.00  0.00    +0.000 A 
ATOM      8  C   UNL     1      -0.575  11.420  19.648  0.00  0.00    +0.000 A 
ATOM      9  C   UNL     1      -0.151  10.720  18.533  0.00  0.00    +0.000 A 
ATOM     10  N   UNL     1       0.617   9.599  18.574  0.00  0.00    +0.000 NA
ATOM     11  C   UNL     1       1.557   7.006  20.970  0.00  0.00    +0.000 C 
ATOM     12  C   UNL     1       1.112   5.648  20.419  0.00  0.00    +0.000 C 
ENDROOT
BRANCH   1  13
ATOM     13  C   UNL     1       1.328   3.920  18.548  0.00  0.00    +0.000 C 
ATOM     14  O   UNL     1       0.964   4.004  17.346  0.00  0.00    +0.000 OA
ATOM     15  N   UNL     1       0.992   2.789  19.236  0.00  0.00    +0.000 N 
ATOM     16  H   UNL     1       0.885   2.728  20.246  0.00  0.00    +0.000 HD
BRANCH  15  17
ATOM     17  O   UNL     1       0.280   1.825  18.476  0.00  0.00    +0.000 OA
ATOM     18  H   UNL     1      -0.530   1.694  19.028  0.00  0.00    +0.000 HD
ENDBRANCH  15  17
ENDBRANCH   1  13
BRANCH   1  19
ATOM     19  C   UNL     1       3.423   4.651  19.864  0.00  0.00    +0.000 C 
BRANCH  19  20
ATOM     20  S   UNL     1       4.633   4.077  18.637  0.00  0.00    +0.000 S 
ATOM     21  O   UNL     1       4.009   3.899  17.356  0.00  0.00    +0.000 OA
ATOM     22  O   UNL     1       5.422   3.026  19.264  0.00  0.00    +0.000 OA
BRANCH  20  26
ATOM     23  C   UNL     1       7.691   7.363  18.002  0.00  0.00    +0.000 A 
ATOM     24  C   UNL     1       7.850   6.396  18.995  0.00  0.00    +0.000 A 
ATOM     25  C   UNL     1       6.935   5.382  19.134  0.00  0.00    +0.000 A 
ATOM     26  C   UNL     1       5.786   5.393  18.374  0.00  0.00    +0.000 A 
ATOM     27  C   UNL     1       5.587   6.344  17.357  0.00  0.00    +0.000 A 
ATOM     28  C   UNL     1       6.554   7.344  17.180  0.00  0.00    +0.000 A 
BRANCH  23  29
ATOM     29  O   UNL     1       8.675   8.304  17.812  0.00  0.00    +0.000 OA
BRANCH  29  30
ATOM     30  C   UNL     1       8.174   9.661  17.981  0.00  0.00    +0.000 C 
BRANCH  30  33
ATOM     31  C   UNL     1      11.190  11.928  20.134  0.00  0.00    +0.000 C 
ATOM     32  C   UNL     1      10.134  11.135  19.381  0.00  0.00    +0.000 C 
ATOM     33  C   UNL     1       9.229  10.455  18.734  0.00  0.00    +0.000 C 
ENDBRANCH  30  33
ENDBRANCH  29  30
ENDBRANCH  23  29
ENDBRANCH  20  26
ENDBRANCH  19  20
ENDBRANCH   1  19
TORSDOF 8
ENDMDL
MODEL 2
REMARK VINA RESULT:      -8.4      0.674      1.103
REMARK  Name = 
REMARK  9 active torsions:
REMARK  status: ('A' for Active; 'I' for Inactive)
REMARK    1  A    between atoms: C_1  and  C_2
REMARK    2  A    between atoms: C_3  and  C_4
REMARK    3  A    between atoms: C_4  and  O_5
REMARK    4  A    between atoms: O_5  and  C_6
REMARK    5  A    between atoms: C_9  and  S_10
REMARK    6  A    between atoms: S_10  and  C_13
REMARK    7  A    between atoms: C_13  and  C_14
REMARK    8  A    between atoms: C_14  and  C_15
REMARK    9  A    between atoms: N_17  and  O_18
REMARK                            x       y       z     vdW  Elec       q    Type
REMARK                         _______ _______ _______ _____ _____    ______ ____
ROOT
ATOM      1  C   UNL     1       2.119   5.278  19.381  0.00  0.00    +0.000 C 
ATOM      2  C   UNL     1       2.180   6.353  18.236  0.00  0.00    +0.000 C 
ATOM      3  C   UNL     1       2.539   7.759  18.724  0.00  0.00    +0.000 C 
ATOM      4  N   UNL     1       1.652   8.134  19.808  0.00  0.00    +0.000 N 
ATOM      5  C   UNL     1       0.834   9.246  19.713  0.00  0.00    +0.000 A 
ATOM      6  C   UNL     1       0.480   9.961  20.860  0.00  0.00    +0.000 A 
ATOM      7  C   UNL     1      -0.362  11.071  20.786  0.00  0.00    +0.000 A 
ATOM      8  C   UNL     1      -0.858  11.450  19.554  0.00  0.00    +0.000 A 
ATOM      9  C   UNL     1      -0.470  10.707  18.455  0.00  0.00    +0.000 A 
ATOM     10  N   UNL     1       0.372   9.641  18.505  0.00  0.00    +0.000 NA
ATOM     11  C   UNL     1       1.649   7.271  20.975  0.00  0.00    +0.000 C 
ATOM     12  C   UNL     1       1.257   5.855  20.541  0.00  0.00    +0.000 C 
ENDROOT
BRANCH   1  13
ATOM     13  C   UNL     1       1.454   4.027  18.766  0.00  0.00    +0.000 C 
ATOM     14  O   UNL     1       1.264   3.901  17.528  0.00  0.00    +0.000 OA
ATOM     15  N   UNL     1       0.949   3.059  19.588  0.00  0.00    +0.000 N 
ATOM     16  H   UNL     1       0.701   3.192  20.565  0.00  0.00    +0.000 HD
BRANCH  15  17
ATOM     17  O   UNL     1       0.281   2.003  18.915  0.00  0.00    +0.000 OA
ATOM     18  H   UNL     1      -0.477   2.479  18.497  0.00  0.00    +0.000 HD
ENDBRANCH  15  17
ENDBRANCH   1  13
BRANCH   1  19
ATOM     19  C   UNL     1       3.584   4.968  19.875  0.00  0.00    +0.000 C 
BRANCH  19  20
ATOM     20  S   UNL     1       4.718   4.319  18.613  0.00  0.00    +0.000 S 
ATOM     21  O   UNL     1       4.043   4.169  17.355  0.00  0.00    +0.000 OA
ATOM     22  O   UNL     1       5.467   3.230  19.223  0.00  0.00    +0.000 OA
BRANCH  20  26
ATOM     23  C   UNL     1       7.730   7.603  17.779  0.00  0.00    +0.000 A 
ATOM     24  C   UNL     1       6.549   7.489  17.045  0.00  0.00    +0.000 A 
ATOM     25  C   UNL     1       5.630   6.516  17.351  0.00  0.00    +0.000 A 
ATOM     26  C   UNL     1       5.934   5.567  18.302  0.00  0.00    +0.000 A 
ATOM     27  C   UNL     1       7.110   5.646  19.070  0.00  0.00    +0.000 A 
ATOM     28  C   UNL     1       8.019   6.677  18.793  0.00  0.00    +0.000 A 
BRANCH  23  29
ATOM     29  O   UNL     1       8.584   8.650  17.525  0.00  0.00    +0.000 OA
BRANCH  29  30
ATOM     30  C   UNL     1       8.646   9.588  18.637  0.00  0.00    +0.000 C 
BRANCH  30  33
ATOM     31  C   UNL     1      11.223  12.879  17.456  0.00  0.00    +0.000 C 
ATOM     32  C   UNL     1      10.321  11.728  17.869  0.00  0.00    +0.000 C 
ATOM     33  C   UNL     1       9.547  10.740  18.223  0.00  0.00    +0.000 C 
ENDBRANCH  30  33
ENDBRANCH  29  30
ENDBRANCH  23  29
ENDBRANCH  20  26
ENDBRANCH  19  20
ENDBRANCH   1  19
TORSDOF 8
ENDMDL
MODEL 3
REMARK VINA RESULT:      -8.2      2.812      4.185
REMARK  Name = 
REMARK  9 active torsions:
REMARK  status: ('A' for Active; 'I' for Inactive)
REMARK    1  A    between atoms: C_1  and  C_2
REMARK    2  A    between atoms: C_3  and  C_4
REMARK    3  A    between atoms: C_4  and  O_5
REMARK    4  A    between atoms: O_5  and  C_6
REMARK    5  A    between atoms: C_9  and  S_10
REMARK    6  A    between atoms: S_10  and  C_13
REMARK    7  A    between atoms: C_13  and  C_14
REMARK    8  A    between atoms: C_14  and  C_15
REMARK    9  A    between atoms: N_17  and  O_18
REMARK                            x       y       z     vdW  Elec       q    Type
REMARK                         _______ _______ _______ _____ _____    ______ ____
ROOT
ATOM      1  C   UNL     1       1.979   4.720  19.486  0.00  0.00    +0.000 C 
ATOM      2  C   UNL     1       2.510   5.830  18.510  0.00  0.00    +0.000 C 
ATOM      3  C   UNL     1       2.959   7.112  19.215  0.00  0.00    +0.000 C 
ATOM      4  N   UNL     1       1.897   7.582  20.084  0.00  0.00    +0.000 N 
ATOM      5  C   UNL     1       1.327   8.831  19.910  0.00  0.00    +0.000 A 
ATOM      6  C   UNL     1       0.812   9.529  21.005  0.00  0.00    +0.000 A 
ATOM      7  C   UNL     1       0.214  10.780  20.845  0.00  0.00    +0.000 A 
ATOM      8  C   UNL     1       0.123  11.317  19.577  0.00  0.00    +0.000 A 
ATOM      9  C   UNL     1       0.653  10.582  18.533  0.00  0.00    +0.000 A 
ATOM     10  N   UNL     1       1.264   9.376  18.675  0.00  0.00    +0.000 NA
ATOM     11  C   UNL     1       1.450   6.666  21.118  0.00  0.00    +0.000 C 
ATOM     12  C   UNL     1       0.954   5.377  20.456  0.00  0.00    +0.000 C 
ENDROOT
BRANCH   1  13
ATOM     13  C   UNL     1       1.297   3.653  18.599  0.00  0.00    +0.000 C 
ATOM     14  O   UNL     1       1.120   3.813  17.364  0.00  0.00    +0.000 OA
ATOM     15  N   UNL     1       0.762   2.537  19.179  0.00  0.00    +0.000 N 
ATOM     16  H   UNL     1       0.504   2.453  20.158  0.00  0.00    +0.000 HD
BRANCH  15  17
ATOM     17  O   UNL     1       0.082   1.674  18.280  0.00  0.00    +0.000 OA
ATOM     18  H   UNL     1       0.742   1.585  17.550  0.00  0.00    +0.000 HD
ENDBRANCH  15  17
ENDBRANCH   1  13
BRANCH   1  19
ATOM     19  C   UNL     1       3.194   4.112  20.286  0.00  0.00    +0.000 C 
BRANCH  19  20
ATOM     20  S   UNL     1       4.208   2.909  19.380  0.00  0.00    +0.000 S 
ATOM     21  O   UNL     1       3.385   1.878  18.813  0.00  0.00    +0.000 OA
ATOM     22  O   UNL     1       5.365   2.605  20.210  0.00  0.00    +0.000 OA
BRANCH  20  26
ATOM     23  C   UNL     1       6.070   5.037  15.836  0.00  0.00    +0.000 A 
ATOM     24  C   UNL     1       6.524   5.248  17.138  0.00  0.00    +0.000 A 
ATOM     25  C   UNL     1       5.977   4.553  18.188  0.00  0.00    +0.000 A 
ATOM     26  C   UNL     1       4.886   3.740  17.972  0.00  0.00    +0.000 A 
ATOM     27  C   UNL     1       4.398   3.494  16.675  0.00  0.00    +0.000 A 
ATOM     28  C   UNL     1       5.000   4.161  15.599  0.00  0.00    +0.000 A 
BRANCH  23  29
ATOM     29  O   UNL     1       6.705   5.663  14.789  0.00  0.00    +0.000 OA
BRANCH  29  30
ATOM     30  C   UNL     1       7.412   4.719  13.935  0.00  0.00    +0.000 C 
BRANCH  30  33
ATOM     31  C   UNL     1       4.498   2.891  11.283  0.00  0.00    +0.000 C 
ATOM     32  C   UNL     1       5.518   3.531  12.211  0.00  0.00    +0.000 C 
ATOM     33  C   UNL     1       6.393   4.080  13.007  0.00  0.00    +0.000 C 
ENDBRANCH  30  33
ENDBRANCH  29  30
ENDBRANCH  23  29
ENDBRANCH  20  26
ENDBRANCH  19  20
ENDBRANCH   1  19
TORSDOF 8
ENDMDL
MODEL 4
REMARK VINA RESULT:      -7.8      3.000      4.346
REMARK  Name = 
REMARK  9 active torsions:
REMARK  status: ('A' for Active; 'I' for Inactive)
REMARK    1  A    between atoms: C_1  and  C_2
REMARK    2  A    between atoms: C_3  and  C_4
REMARK    3  A    between atoms: C_4  and  O_5
REMARK    4  A    between atoms: O_5  and  C_6
REMARK    5  A    between atoms: C_9  and  S_10
REMARK    6  A    between atoms: S_10  and  C_13
REMARK    7  A    between atoms: C_13  and  C_14
REMARK    8  A    between atoms: C_14  and  C_15
REMARK    9  A    between atoms: N_17  and  O_18
REMARK                            x       y       z     vdW  Elec       q    Type
REMARK                         _______ _______ _______ _____ _____    ______ ____
ROOT
ATOM      1  C   UNL     1       2.091   5.378  19.614  0.00  0.00    +0.000 C 
ATOM      2  C   UNL     1       1.851   6.070  18.224  0.00  0.00    +0.000 C 
ATOM      3  C   UNL     1       2.305   7.531  18.172  0.00  0.00    +0.000 C 
ATOM      4  N   UNL     1       1.713   8.260  19.278  0.00  0.00    +0.000 N 
ATOM      5  C   UNL     1       0.885   9.346  19.060  0.00  0.00    +0.000 A 
ATOM      6  C   UNL     1       0.820  10.382  19.994  0.00  0.00    +0.000 A 
ATOM      7  C   UNL     1      -0.026  11.475  19.801  0.00  0.00    +0.000 A 
ATOM      8  C   UNL     1      -0.818  11.512  18.671  0.00  0.00    +0.000 A 
ATOM      9  C   UNL     1      -0.709  10.461  17.780  0.00  0.00    +0.000 A 
ATOM     10  N   UNL     1       0.131   9.403  17.939  0.00  0.00    +0.000 NA
ATOM     11  C   UNL     1       2.011   7.772  20.612  0.00  0.00    +0.000 C 
ATOM     12  C   UNL     1       1.540   6.318  20.725  0.00  0.00    +0.000 C 
ENDROOT
BRANCH   1  13
ATOM     13  C   UNL     1       1.307   4.047  19.576  0.00  0.00    +0.000 C 
ATOM     14  O   UNL     1       1.164   3.317  20.591  0.00  0.00    +0.000 OA
ATOM     15  N   UNL     1       0.836   3.575  18.383  0.00  0.00    +0.000 N 
ATOM     16  H   UNL     1       1.184   3.849  17.468  0.00  0.00    +0.000 HD
BRANCH  15  17
ATOM     17  O   UNL     1       0.213   2.302  18.457  0.00  0.00    +0.000 OA
ATOM     18  H   UNL     1      -0.621   2.516  18.941  0.00  0.00    +0.000 HD
ENDBRANCH  15  17
ENDBRANCH   1  13
BRANCH   1  19
ATOM     19  C   UNL     1       3.636   5.132  19.808  0.00  0.00    +0.000 C 
BRANCH  19  20
ATOM     20  S   UNL     1       4.302   3.648  19.000  0.00  0.00    +0.000 S 
ATOM     21  O   UNL     1       3.244   2.866  18.424  0.00  0.00    +0.000 OA
ATOM     22  O   UNL     1       5.287   3.069  19.902  0.00  0.00    +0.000 OA
BRANCH  20  26
ATOM     23  C   UNL     1       6.619   5.105  15.386  0.00  0.00    +0.000 A 
ATOM     24  C   UNL     1       5.230   4.976  15.363  0.00  0.00    +0.000 A 
ATOM     25  C   UNL     1       4.548   4.581  16.486  0.00  0.00    +0.000 A 
ATOM     26  C   UNL     1       5.248   4.184  17.604  0.00  0.00    +0.000 A 
ATOM     27  C   UNL     1       6.648   4.303  17.674  0.00  0.00    +0.000 A 
ATOM     28  C   UNL     1       7.337   4.763  16.542  0.00  0.00    +0.000 A 
BRANCH  23  29
ATOM     29  O   UNL     1       7.270   5.605  14.283  0.00  0.00    +0.000 OA
BRANCH  29  30
ATOM     30  C   UNL     1       7.732   4.548  13.394  0.00  0.00    +0.000 C 
BRANCH  30  33
ATOM     31  C   UNL     1       4.278   2.995  11.268  0.00  0.00    +0.000 C 
ATOM     32  C   UNL     1       5.486   3.539  12.012  0.00  0.00    +0.000 C 
ATOM     33  C   UNL     1       6.523   4.005  12.651  0.00  0.00    +0.000 C 
ENDBRANCH  30  33
ENDBRANCH  29  30
ENDBRANCH  23  29
ENDBRANCH  20  26
ENDBRANCH  19  20
ENDBRANCH   1  19
TORSDOF 8
ENDMDL
MODEL 5
REMARK VINA RESULT:      -7.6      3.980      8.383
REMARK  Name = 
REMARK  9 active torsions:
REMARK  status: ('A' for Active; 'I' for Inactive)
REMARK    1  A    between atoms: C_1  and  C_2
REMARK    2  A    between atoms: C_3  and  C_4
REMARK    3  A    between atoms: C_4  and  O_5
REMARK    4  A    between atoms: O_5  and  C_6
REMARK    5  A    between atoms: C_9  and  S_10
REMARK    6  A    between atoms: S_10  and  C_13
REMARK    7  A    between atoms: C_13  and  C_14
REMARK    8  A    between atoms: C_14  and  C_15
REMARK    9  A    between atoms: N_17  and  O_18
REMARK                            x       y       z     vdW  Elec       q    Type
REMARK                         _______ _______ _______ _____ _____    ______ ____
ROOT
ATOM      1  C   UNL     1       5.569   5.490  17.621  0.00  0.00    +0.000 C 
ATOM      2  C   UNL     1       6.656   5.944  16.582  0.00  0.00    +0.000 C 
ATOM      3  C   UNL     1       6.117   6.124  15.160  0.00  0.00    +0.000 C 
ATOM      4  N   UNL     1       5.412   4.922  14.756  0.00  0.00    +0.000 N 
ATOM      5  C   UNL     1       5.813   4.192  13.651  0.00  0.00    +0.000 A 
ATOM      6  C   UNL     1       4.878   3.472  12.904  0.00  0.00    +0.000 A 
ATOM      7  C   UNL     1       5.268   2.713  11.800  0.00  0.00    +0.000 A 
ATOM      8  C   UNL     1       6.606   2.669  11.461  0.00  0.00    +0.000 A 
ATOM      9  C   UNL     1       7.484   3.404  12.235  0.00  0.00    +0.000 A 
ATOM     10  N   UNL     1       7.118   4.172  13.296  0.00  0.00    +0.000 NA
ATOM     11  C   UNL     1       4.291   4.517  15.584  0.00  0.00    +0.000 C 
ATOM     12  C   UNL     1       4.789   4.288  17.014  0.00  0.00    +0.000 C 
ENDROOT
BRANCH   1  13
ATOM     13  C   UNL     1       6.336   5.066  18.894  0.00  0.00    +0.000 C 
ATOM     14  O   UNL     1       5.916   4.169  19.669  0.00  0.00    +0.000 OA
ATOM     15  N   UNL     1       7.457   5.754  19.266  0.00  0.00    +0.000 N 
ATOM     16  H   UNL     1       7.693   6.695  18.963  0.00  0.00    +0.000 HD
BRANCH  15  17
ATOM     17  O   UNL     1       8.025   5.335  20.497  0.00  0.00    +0.000 OA
ATOM     18  H   UNL     1       8.986   5.299  20.272  0.00  0.00    +0.000 HD
ENDBRANCH  15  17
ENDBRANCH   1  13
BRANCH   1  19
ATOM     19  C   UNL     1       4.596   6.696  17.910  0.00  0.00    +0.000 C 
BRANCH  19  20
ATOM     20  S   UNL     1       3.048   6.271  18.759  0.00  0.00    +0.000 S 
ATOM     21  O   UNL     1       3.315   5.762  20.075  0.00  0.00    +0.000 OA
ATOM     22  O   UNL     1       2.214   5.551  17.806  0.00  0.00    +0.000 OA
BRANCH  20  26
ATOM     23  C   UNL     1       0.763  10.138  19.377  0.00  0.00    +0.000 A 
ATOM     24  C   UNL     1       1.373   9.834  18.160  0.00  0.00    +0.000 A 
ATOM     25  C   UNL     1       2.015   8.634  17.982  0.00  0.00    +0.000 A 
ATOM     26  C   UNL     1       2.172   7.781  19.053  0.00  0.00    +0.000 A 
ATOM     27  C   UNL     1       1.570   8.044  20.296  0.00  0.00    +0.000 A 
ATOM     28  C   UNL     1       0.864   9.246  20.455  0.00  0.00    +0.000 A 
BRANCH  23  29
ATOM     29  O   UNL     1       0.034  11.298  19.496  0.00  0.00    +0.000 OA
BRANCH  29  30
ATOM     30  C   UNL     1      -1.395  11.038  19.599  0.00  0.00    +0.000 C 
BRANCH  30  33
ATOM     31  C   UNL     1      -2.811   9.841  15.671  0.00  0.00    +0.000 C 
ATOM     32  C   UNL     1      -2.315  10.260  17.045  0.00  0.00    +0.000 C 
ATOM     33  C   UNL     1      -1.891  10.619  18.224  0.00  0.00    +0.000 C 
ENDBRANCH  30  33
ENDBRANCH  29  30
ENDBRANCH  23  29
ENDBRANCH  20  26
ENDBRANCH  19  20
ENDBRANCH   1  19
TORSDOF 8
ENDMDL
MODEL 6
REMARK VINA RESULT:      -7.6      3.113      4.772
REMARK  Name = 
REMARK  9 active torsions:
REMARK  status: ('A' for Active; 'I' for Inactive)
REMARK    1  A    between atoms: C_1  and  C_2
REMARK    2  A    between atoms: C_3  and  C_4
REMARK    3  A    between atoms: C_4  and  O_5
REMARK    4  A    between atoms: O_5  and  C_6
REMARK    5  A    between atoms: C_9  and  S_10
REMARK    6  A    between atoms: S_10  and  C_13
REMARK    7  A    between atoms: C_13  and  C_14
REMARK    8  A    between atoms: C_14  and  C_15
REMARK    9  A    between atoms: N_17  and  O_18
REMARK                            x       y       z     vdW  Elec       q    Type
REMARK                         _______ _______ _______ _____ _____    ______ ____
ROOT
ATOM      1  C   UNL     1       2.498   6.300  19.056  0.00  0.00    +0.000 C 
ATOM      2  C   UNL     1       2.083   7.150  17.801  0.00  0.00    +0.000 C 
ATOM      3  C   UNL     1       2.140   8.662  18.031  0.00  0.00    +0.000 C 
ATOM      4  N   UNL     1       1.381   8.998  19.221  0.00  0.00    +0.000 N 
ATOM      5  C   UNL     1       0.298   9.856  19.162  0.00  0.00    +0.000 A 
ATOM      6  C   UNL     1      -0.033  10.652  20.262  0.00  0.00    +0.000 A 
ATOM      7  C   UNL     1      -1.135  11.507  20.228  0.00  0.00    +0.000 A 
ATOM      8  C   UNL     1      -1.912  11.546  19.088  0.00  0.00    +0.000 A 
ATOM      9  C   UNL     1      -1.535  10.740  18.030  0.00  0.00    +0.000 A 
ATOM     10  N   UNL     1      -0.448   9.923  18.036  0.00  0.00    +0.000 NA
ATOM     11  C   UNL     1       1.800   8.367  20.459  0.00  0.00    +0.000 C 
ATOM     12  C   UNL     1       1.724   6.847  20.290  0.00  0.00    +0.000 C 
ENDROOT
BRANCH   1  13
ATOM     13  C   UNL     1       2.088   4.842  18.746  0.00  0.00    +0.000 C 
ATOM     14  O   UNL     1       2.031   4.390  17.574  0.00  0.00    +0.000 OA
ATOM     15  N   UNL     1       1.664   4.031  19.762  0.00  0.00    +0.000 N 
ATOM     16  H   UNL     1       1.312   4.353  20.659  0.00  0.00    +0.000 HD
BRANCH  15  17
ATOM     17  O   UNL     1       1.228   2.746  19.347  0.00  0.00    +0.000 OA
ATOM     18  H   UNL     1       1.412   2.776  18.377  0.00  0.00    +0.000 HD
ENDBRANCH  15  17
ENDBRANCH   1  13
BRANCH   1  19
ATOM     19  C   UNL     1       4.054   6.427  19.273  0.00  0.00    +0.000 C 
BRANCH  19  20
ATOM     20  S   UNL     1       5.002   4.888  19.088  0.00  0.00    +0.000 S 
ATOM     21  O   UNL     1       4.137   3.746  19.189  0.00  0.00    +0.000 OA
ATOM     22  O   UNL     1       6.205   5.020  19.897  0.00  0.00    +0.000 OA
BRANCH  20  26
ATOM     23  C   UNL     1       6.456   4.855  14.794  0.00  0.00    +0.000 A 
ATOM     24  C   UNL     1       5.188   5.325  15.134  0.00  0.00    +0.000 A 
ATOM     25  C   UNL     1       4.790   5.372  16.447  0.00  0.00    +0.000 A 
ATOM     26  C   UNL     1       5.598   4.830  17.422  0.00  0.00    +0.000 A 
ATOM     27  C   UNL     1       6.887   4.351  17.126  0.00  0.00    +0.000 A 
ATOM     28  C   UNL     1       7.312   4.360  15.790  0.00  0.00    +0.000 A 
BRANCH  23  29
ATOM     29  O   UNL     1       6.871   4.919  13.485  0.00  0.00    +0.000 OA
BRANCH  29  30
ATOM     30  C   UNL     1       6.885   3.609  12.850  0.00  0.00    +0.000 C 
BRANCH  30  33
ATOM     31  C   UNL     1       3.195   3.190  10.598  0.00  0.00    +0.000 C 
ATOM     32  C   UNL     1       4.486   3.336  11.386  0.00  0.00    +0.000 C 
ATOM     33  C   UNL     1       5.594   3.462  12.062  0.00  0.00    +0.000 C 
ENDBRANCH  30  33
ENDBRANCH  29  30
ENDBRANCH  23  29
ENDBRANCH  20  26
ENDBRANCH  19  20
ENDBRANCH   1  19
TORSDOF 8
ENDMDL
MODEL 7
REMARK VINA RESULT:      -7.5      3.137      4.651
REMARK  Name = 
REMARK  9 active torsions:
REMARK  status: ('A' for Active; 'I' for Inactive)
REMARK    1  A    between atoms: C_1  and  C_2
REMARK    2  A    between atoms: C_3  and  C_4
REMARK    3  A    between atoms: C_4  and  O_5
REMARK    4  A    between atoms: O_5  and  C_6
REMARK    5  A    between atoms: C_9  and  S_10
REMARK    6  A    between atoms: S_10  and  C_13
REMARK    7  A    between atoms: C_13  and  C_14
REMARK    8  A    between atoms: C_14  and  C_15
REMARK    9  A    between atoms: N_17  and  O_18
REMARK                            x       y       z     vdW  Elec       q    Type
REMARK                         _______ _______ _______ _____ _____    ______ ____
ROOT
ATOM      1  C   UNL     1       2.536   6.145  19.237  0.00  0.00    +0.000 C 
ATOM      2  C   UNL     1       2.191   6.935  17.924  0.00  0.00    +0.000 C 
ATOM      3  C   UNL     1       2.261   8.457  18.080  0.00  0.00    +0.000 C 
ATOM      4  N   UNL     1       1.454   8.863  19.216  0.00  0.00    +0.000 N 
ATOM      5  C   UNL     1       0.388   9.731  19.064  0.00  0.00    +0.000 A 
ATOM      6  C   UNL     1       0.021  10.585  20.107  0.00  0.00    +0.000 A 
ATOM      7  C   UNL     1      -1.065  11.452  19.980  0.00  0.00    +0.000 A 
ATOM      8  C   UNL     1      -1.790  11.444  18.805  0.00  0.00    +0.000 A 
ATOM      9  C   UNL     1      -1.377  10.581  17.807  0.00  0.00    +0.000 A 
ATOM     10  N   UNL     1      -0.305   9.751  17.904  0.00  0.00    +0.000 NA
ATOM     11  C   UNL     1       1.807   8.290  20.502  0.00  0.00    +0.000 C 
ATOM     12  C   UNL     1       1.715   6.764  20.406  0.00  0.00    +0.000 C 
ENDROOT
BRANCH   1  13
ATOM     13  C   UNL     1       2.117   4.679  18.983  0.00  0.00    +0.000 C 
ATOM     14  O   UNL     1       1.975   3.845  19.914  0.00  0.00    +0.000 OA
ATOM     15  N   UNL     1       1.999   4.224  17.699  0.00  0.00    +0.000 N 
ATOM     16  H   UNL     1       2.429   4.654  16.885  0.00  0.00    +0.000 HD
BRANCH  15  17
ATOM     17  O   UNL     1       1.699   2.841  17.588  0.00  0.00    +0.000 OA
ATOM     18  H   UNL     1       0.712   2.849  17.609  0.00  0.00    +0.000 HD
ENDBRANCH  15  17
ENDBRANCH   1  13
BRANCH   1  19
ATOM     19  C   UNL     1       4.082   6.262  19.518  0.00  0.00    +0.000 C 
BRANCH  19  20
ATOM     20  S   UNL     1       5.068   4.791  19.114  0.00  0.00    +0.000 S 
ATOM     21  O   UNL     1       4.243   3.616  19.103  0.00  0.00    +0.000 OA
ATOM     22  O   UNL     1       6.297   4.866  19.891  0.00  0.00    +0.000 OA
BRANCH  20  26
ATOM     23  C   UNL     1       6.512   5.098  14.827  0.00  0.00    +0.000 A 
ATOM     24  C   UNL     1       7.320   4.576  15.837  0.00  0.00    +0.000 A 
ATOM     25  C   UNL     1       6.841   4.447  17.117  0.00  0.00    +0.000 A 
ATOM     26  C   UNL     1       5.602   4.957  17.434  0.00  0.00    +0.000 A 
ATOM     27  C   UNL     1       4.750   5.486  16.448  0.00  0.00    +0.000 A 
ATOM     28  C   UNL     1       5.223   5.561  15.129  0.00  0.00    +0.000 A 
BRANCH  23  29
ATOM     29  O   UNL     1       6.975   5.116  13.533  0.00  0.00    +0.000 OA
BRANCH  29  30
ATOM     30  C   UNL     1       7.027   3.783  12.951  0.00  0.00    +0.000 C 
BRANCH  30  33
ATOM     31  C   UNL     1       3.324   3.141  10.774  0.00  0.00    +0.000 C 
ATOM     32  C   UNL     1       4.620   3.365  11.536  0.00  0.00    +0.000 C 
ATOM     33  C   UNL     1       5.731   3.558  12.189  0.00  0.00    +0.000 C 
ENDBRANCH  30  33
ENDBRANCH  29  30
ENDBRANCH  23  29
ENDBRANCH  20  26
ENDBRANCH  19  20
ENDBRANCH   1  19
TORSDOF 8
ENDMDL
MODEL 8
REMARK VINA RESULT:      -7.4      2.982      4.295
REMARK  Name = 
REMARK  9 active torsions:
REMARK  status: ('A' for Active; 'I' for Inactive)
REMARK    1  A    between atoms: C_1  and  C_2
REMARK    2  A    between atoms: C_3  and  C_4
REMARK    3  A    between atoms: C_4  and  O_5
REMARK    4  A    between atoms: O_5  and  C_6
REMARK    5  A    between atoms: C_9  and  S_10
REMARK    6  A    between atoms: S_10  and  C_13
REMARK    7  A    between atoms: C_13  and  C_14
REMARK    8  A    between atoms: C_14  and  C_15
REMARK    9  A    between atoms: N_17  and  O_18
REMARK                            x       y       z     vdW  Elec       q    Type
REMARK                         _______ _______ _______ _____ _____    ______ ____
ROOT
ATOM      1  C   UNL     1       2.112   5.382  19.609  0.00  0.00    +0.000 C 
ATOM      2  C   UNL     1       1.868   6.078  18.222  0.00  0.00    +0.000 C 
ATOM      3  C   UNL     1       2.327   7.538  18.172  0.00  0.00    +0.000 C 
ATOM      4  N   UNL     1       1.744   8.266  19.283  0.00  0.00    +0.000 N 
ATOM      5  C   UNL     1       0.918   9.356  19.072  0.00  0.00    +0.000 A 
ATOM      6  C   UNL     1       0.863  10.390  20.010  0.00  0.00    +0.000 A 
ATOM      7  C   UNL     1       0.020  11.486  19.825  0.00  0.00    +0.000 A 
ATOM      8  C   UNL     1      -0.778  11.530  18.699  0.00  0.00    +0.000 A 
ATOM      9  C   UNL     1      -0.678  10.481  17.805  0.00  0.00    +0.000 A 
ATOM     10  N   UNL     1       0.158   9.419  17.956  0.00  0.00    +0.000 NA
ATOM     11  C   UNL     1       2.048   7.773  20.614  0.00  0.00    +0.000 C 
ATOM     12  C   UNL     1       1.571   6.322  20.725  0.00  0.00    +0.000 C 
ENDROOT
BRANCH   1  13
ATOM     13  C   UNL     1       1.323   4.054  19.573  0.00  0.00    +0.000 C 
ATOM     14  O   UNL     1       1.145   3.345  20.597  0.00  0.00    +0.000 OA
ATOM     15  N   UNL     1       0.888   3.561  18.374  0.00  0.00    +0.000 N 
ATOM     16  H   UNL     1       1.266   3.815  17.465  0.00  0.00    +0.000 HD
BRANCH  15  17
ATOM     17  O   UNL     1       0.256   2.293  18.453  0.00  0.00    +0.000 OA
ATOM     18  H   UNL     1      -0.329   2.409  19.240  0.00  0.00    +0.000 HD
ENDBRANCH  15  17
ENDBRANCH   1  13
BRANCH   1  19
ATOM     19  C   UNL     1       3.657   5.129  19.793  0.00  0.00    +0.000 C 
BRANCH  19  20
ATOM     20  S   UNL     1       4.303   3.617  19.022  0.00  0.00    +0.000 S 
ATOM     21  O   UNL     1       3.234   2.835  18.467  0.00  0.00    +0.000 OA
ATOM     22  O   UNL     1       5.282   3.048  19.937  0.00  0.00    +0.000 OA
BRANCH  20  26
ATOM     23  C   UNL     1       6.852   4.809  15.466  0.00  0.00    +0.000 A 
ATOM     24  C   UNL     1       7.382   4.732  16.755  0.00  0.00    +0.000 A 
ATOM     25  C   UNL     1       6.601   4.320  17.806  0.00  0.00    +0.000 A 
ATOM     26  C   UNL     1       5.254   4.106  17.612  0.00  0.00    +0.000 A 
ATOM     27  C   UNL     1       4.678   4.167  16.329  0.00  0.00    +0.000 A 
ATOM     28  C   UNL     1       5.494   4.531  15.248  0.00  0.00    +0.000 A 
BRANCH  23  29
ATOM     29  O   UNL     1       7.679   5.120  14.413  0.00  0.00    +0.000 OA
BRANCH  29  30
ATOM     30  C   UNL     1       6.940   5.305  13.173  0.00  0.00    +0.000 C 
BRANCH  30  33
ATOM     31  C   UNL     1       6.955   1.520  11.042  0.00  0.00    +0.000 C 
ATOM     32  C   UNL     1       6.950   2.845  11.787  0.00  0.00    +0.000 C 
ATOM     33  C   UNL     1       6.946   3.981  12.427  0.00  0.00    +0.000 C 
ENDBRANCH  30  33
ENDBRANCH  29  30
ENDBRANCH  23  29
ENDBRANCH  20  26
ENDBRANCH  19  20
ENDBRANCH   1  19
TORSDOF 8
ENDMDL
MODEL 9
REMARK VINA RESULT:      -7.3      3.934      8.332
REMARK  Name = 
REMARK  9 active torsions:
REMARK  status: ('A' for Active; 'I' for Inactive)
REMARK    1  A    between atoms: C_1  and  C_2
REMARK    2  A    between atoms: C_3  and  C_4
REMARK    3  A    between atoms: C_4  and  O_5
REMARK    4  A    between atoms: O_5  and  C_6
REMARK    5  A    between atoms: C_9  and  S_10
REMARK    6  A    between atoms: S_10  and  C_13
REMARK    7  A    between atoms: C_13  and  C_14
REMARK    8  A    between atoms: C_14  and  C_15
REMARK    9  A    between atoms: N_17  and  O_18
REMARK                            x       y       z     vdW  Elec       q    Type
REMARK                         _______ _______ _______ _____ _____    ______ ____
ROOT
ATOM      1  C   UNL     1       5.552   5.540  17.881  0.00  0.00    +0.000 C 
ATOM      2  C   UNL     1       6.578   6.116  16.842  0.00  0.00    +0.000 C 
ATOM      3  C   UNL     1       6.002   6.296  15.435  0.00  0.00    +0.000 C 
ATOM      4  N   UNL     1       5.392   5.053  15.001  0.00  0.00    +0.000 N 
ATOM      5  C   UNL     1       5.834   4.395  13.867  0.00  0.00    +0.000 A 
ATOM      6  C   UNL     1       4.949   3.624  13.110  0.00  0.00    +0.000 A 
ATOM      7  C   UNL     1       5.382   2.936  11.976  0.00  0.00    +0.000 A 
ATOM      8  C   UNL     1       6.712   3.015  11.615  0.00  0.00    +0.000 A 
ATOM      9  C   UNL     1       7.539   3.796  12.400  0.00  0.00    +0.000 A 
ATOM     10  N   UNL     1       7.129   4.496  13.491  0.00  0.00    +0.000 NA
ATOM     11  C   UNL     1       4.324   4.529  15.832  0.00  0.00    +0.000 C 
ATOM     12  C   UNL     1       4.865   4.296  17.246  0.00  0.00    +0.000 C 
ENDROOT
BRANCH   1  13
ATOM     13  C   UNL     1       6.374   5.141  19.128  0.00  0.00    +0.000 C 
ATOM     14  O   UNL     1       5.952   4.319  19.981  0.00  0.00    +0.000 OA
ATOM     15  N   UNL     1       7.557   5.775  19.386  0.00  0.00    +0.000 N 
ATOM     16  H   UNL     1       7.829   6.681  19.012  0.00  0.00    +0.000 HD
BRANCH  15  17
ATOM     17  O   UNL     1       8.178   5.392  20.603  0.00  0.00    +0.000 OA
ATOM     18  H   UNL     1       9.001   5.938  20.588  0.00  0.00    +0.000 HD
ENDBRANCH  15  17
ENDBRANCH   1  13
BRANCH   1  19
ATOM     19  C   UNL     1       4.487   6.650  18.224  0.00  0.00    +0.000 C 
BRANCH  19  20
ATOM     20  S   UNL     1       2.954   6.057  18.997  0.00  0.00    +0.000 S 
ATOM     21  O   UNL     1       3.232   5.437  20.263  0.00  0.00    +0.000 OA
ATOM     22  O   UNL     1       2.178   5.387  17.963  0.00  0.00    +0.000 OA
BRANCH  20  26
ATOM     23  C   UNL     1       0.522   9.685  20.211  0.00  0.00    +0.000 A 
ATOM     24  C   UNL     1       0.719   8.612  21.079  0.00  0.00    +0.000 A 
ATOM     25  C   UNL     1       1.501   7.547  20.706  0.00  0.00    +0.000 A 
ATOM     26  C   UNL     1       1.988   7.478  19.419  0.00  0.00    +0.000 A 
ATOM     27  C   UNL     1       1.819   8.540  18.512  0.00  0.00    +0.000 A 
ATOM     28  C   UNL     1       1.067   9.652  18.919  0.00  0.00    +0.000 A 
BRANCH  23  29
ATOM     29  O   UNL     1      -0.176  10.787  20.646  0.00  0.00    +0.000 OA
BRANCH  29  30
ATOM     30  C   UNL     1       0.085  11.081  22.049  0.00  0.00    +0.000 C 
BRANCH  30  33
ATOM     31  C   UNL     1      -3.648  12.380  23.849  0.00  0.00    +0.000 C 
ATOM     32  C   UNL     1      -2.342  11.925  23.219  0.00  0.00    +0.000 C 
ATOM     33  C   UNL     1      -1.221  11.536  22.678  0.00  0.00    +0.000 C 
ENDBRANCH  30  33
ENDBRANCH  29  30
ENDBRANCH  23  29
ENDBRANCH  20  26
ENDBRANCH  19  20
ENDBRANCH   1  19
TORSDOF 8
ENDMDL
