MODEL 1
REMARK VINA RESULT:      -7.7      0.000      0.000
REMARK  Name = 
REMARK  9 active torsions:
REMARK  status: ('A' for Active; 'I' for Inactive)
REMARK    1  A    between atoms: C_2  and  C_3
REMARK    2  A    between atoms: C_10  and  C_11
REMARK    3  A    between atoms: C_11  and  O_12
REMARK    4  A    between atoms: O_12  and  C_13
REMARK    5  A    between atoms: C_17  and  C_18
REMARK    6  A    between atoms: C_18  and  C_20
REMARK    7  A    between atoms: C_21  and  O_22
REMARK    8  A    between atoms: C_21  and  C_23
REMARK    9  A    between atoms: C_23  and  O_25
REMARK                            x       y       z     vdW  Elec       q    Type
REMARK                         _______ _______ _______ _____ _____    ______ ____
ROOT
ATOM      1  C   UNL     1       5.514   6.572  17.349  0.00  0.00    +0.000 A 
ATOM      2  C   UNL     1       6.200   5.950  18.391  0.00  0.00    +0.000 A 
ATOM      3  C   UNL     1       7.134   4.950  18.113  0.00  0.00    +0.000 A 
ATOM      4  C   UNL     1       7.388   4.578  16.790  0.00  0.00    +0.000 A 
ATOM      5  C   UNL     1       6.682   5.178  15.741  0.00  0.00    +0.000 A 
ATOM      6  C   UNL     1       5.731   6.162  16.031  0.00  0.00    +0.000 A 
ENDROOT
BRANCH   5   7
ATOM      7  C   UNL     1       7.014   4.801  14.342  0.00  0.00    +0.000 C 
ATOM      8  O   UNL     1       7.983   5.297  13.771  0.00  0.00    +0.000 OA
BRANCH   7   9
ATOM      9  C   UNL     1       6.163   3.811  13.635  0.00  0.00    +0.000 C 
ATOM     10  C   UNL     1       6.329   3.572  12.323  0.00  0.00    +0.000 C 
BRANCH  10  11
ATOM     11  O   UNL     1       7.278   4.188  11.518  0.00  0.00    +0.000 OA
ATOM     12  H   UNL     1       7.695   3.478  10.972  0.00  0.00    +0.000 HD
ENDBRANCH  10  11
BRANCH  10  13
ATOM     13  C   UNL     1       5.429   2.571  11.678  0.00  0.00    +0.000 C 
ATOM     14  O   UNL     1       4.319   2.808  11.234  0.00  0.00    +0.000 OA
BRANCH  13  15
ATOM     15  O   UNL     1       6.029   1.362  11.643  0.00  0.00    +0.000 OA
ATOM     16  H   UNL     1       6.572   1.292  10.824  0.00  0.00    +0.000 HD
ENDBRANCH  13  15
ENDBRANCH  10  13
ENDBRANCH   7   9
ENDBRANCH   5   7
BRANCH   1  17
ATOM     17  O   UNL     1       4.650   7.584  17.696  0.00  0.00    +0.000 OA
BRANCH  17  18
ATOM     18  C   UNL     1       3.282   7.306  17.391  0.00  0.00    +0.000 C 
BRANCH  18  26
ATOM     19  C   UNL     1       2.302   5.472  18.891  0.00  0.00    +0.000 A 
ATOM     20  C   UNL     1       1.659   5.116  20.089  0.00  0.00    +0.000 A 
ATOM     21 CL   UNL     1       1.319   3.468  20.496  0.00  0.00    +0.000 Cl
ATOM     22  C   UNL     1       1.270   6.091  21.013  0.00  0.00    +0.000 A 
ATOM     23  C   UNL     1       1.521   7.432  20.749  0.00  0.00    +0.000 A 
ATOM     24 CL   UNL     1       1.046   8.635  21.880  0.00  0.00    +0.000 Cl
ATOM     25  C   UNL     1       2.161   7.806  19.572  0.00  0.00    +0.000 A 
ATOM     26  C   UNL     1       2.554   6.837  18.629  0.00  0.00    +0.000 A 
BRANCH  19  28
ATOM     27  N   UNL     1       3.016   3.621  17.210  0.00  0.00    +0.000 NA
ATOM     28  C   UNL     1       2.705   4.447  17.961  0.00  0.00    +0.000 C 
ENDBRANCH  19  28
ENDBRANCH  18  26
ENDBRANCH  17  18
ENDBRANCH   1  17
TORSDOF 9
ENDMDL
MODEL 2
REMARK VINA RESULT:      -7.5      4.948      8.531
REMARK  Name = 
REMARK  9 active torsions:
REMARK  status: ('A' for Active; 'I' for Inactive)
REMARK    1  A    between atoms: C_2  and  C_3
REMARK    2  A    between atoms: C_10  and  C_11
REMARK    3  A    between atoms: C_11  and  O_12
REMARK    4  A    between atoms: O_12  and  C_13
REMARK    5  A    between atoms: C_17  and  C_18
REMARK    6  A    between atoms: C_18  and  C_20
REMARK    7  A    between atoms: C_21  and  O_22
REMARK    8  A    between atoms: C_21  and  C_23
REMARK    9  A    between atoms: C_23  and  O_25
REMARK                            x       y       z     vdW  Elec       q    Type
REMARK                         _______ _______ _______ _____ _____    ______ ____
ROOT
ATOM      1  C   UNL     1       1.427   8.607  20.274  0.00  0.00    +0.000 A 
ATOM      2  C   UNL     1       1.377   8.485  21.663  0.00  0.00    +0.000 A 
ATOM      3  C   UNL     1       0.486   9.267  22.400  0.00  0.00    +0.000 A 
ATOM      4  C   UNL     1      -0.362  10.166  21.748  0.00  0.00    +0.000 A 
ATOM      5  C   UNL     1      -0.298  10.313  20.358  0.00  0.00    +0.000 A 
ATOM      6  C   UNL     1       0.615   9.544  19.629  0.00  0.00    +0.000 A 
ENDROOT
BRANCH   5   7
ATOM      7  C   UNL     1      -1.250  11.237  19.688  0.00  0.00    +0.000 C 
ATOM      8  O   UNL     1      -1.397  12.388  20.092  0.00  0.00    +0.000 OA
BRANCH   7   9
ATOM      9  C   UNL     1      -2.026  10.758  18.517  0.00  0.00    +0.000 C 
ATOM     10  C   UNL     1      -2.007  11.432  17.354  0.00  0.00    +0.000 C 
BRANCH  10  11
ATOM     11  O   UNL     1      -1.286  12.595  17.123  0.00  0.00    +0.000 OA
ATOM     12  H   UNL     1      -0.373  12.320  16.863  0.00  0.00    +0.000 HD
ENDBRANCH  10  11
BRANCH  10  13
ATOM     13  C   UNL     1      -2.822  10.895  16.224  0.00  0.00    +0.000 C 
ATOM     14  O   UNL     1      -2.596   9.858  15.626  0.00  0.00    +0.000 OA
BRANCH  13  15
ATOM     15  O   UNL     1      -3.859  11.721  15.968  0.00  0.00    +0.000 OA
ATOM     16  H   UNL     1      -4.628  11.189  15.656  0.00  0.00    +0.000 HD
ENDBRANCH  13  15
ENDBRANCH  10  13
ENDBRANCH   7   9
ENDBRANCH   5   7
BRANCH   1  17
ATOM     17  O   UNL     1       2.289   7.767  19.612  0.00  0.00    +0.000 OA
BRANCH  17  18
ATOM     18  C   UNL     1       2.191   6.400  20.017  0.00  0.00    +0.000 C 
BRANCH  18  26
ATOM     19  C   UNL     1       2.821   4.098  19.081  0.00  0.00    +0.000 A 
ATOM     20  C   UNL     1       3.482   3.340  18.098  0.00  0.00    +0.000 A 
ATOM     21 CL   UNL     1       3.422   1.611  18.076  0.00  0.00    +0.000 Cl
ATOM     22  C   UNL     1       4.218   3.964  17.085  0.00  0.00    +0.000 A 
ATOM     23  C   UNL     1       4.298   5.350  17.043  0.00  0.00    +0.000 A 
ATOM     24 CL   UNL     1       5.200   6.121  15.800  0.00  0.00    +0.000 Cl
ATOM     25  C   UNL     1       3.647   6.119  18.002  0.00  0.00    +0.000 A 
ATOM     26  C   UNL     1       2.908   5.507  19.032  0.00  0.00    +0.000 A 
BRANCH  19  28
ATOM     27  N   UNL     1       1.436   2.901  20.927  0.00  0.00    +0.000 NA
ATOM     28  C   UNL     1       2.059   3.432  20.108  0.00  0.00    +0.000 C 
ENDBRANCH  19  28
ENDBRANCH  18  26
ENDBRANCH  17  18
ENDBRANCH   1  17
TORSDOF 9
ENDMDL
MODEL 3
REMARK VINA RESULT:      -7.4      3.924      5.963
REMARK  Name = 
REMARK  9 active torsions:
REMARK  status: ('A' for Active; 'I' for Inactive)
REMARK    1  A    between atoms: C_2  and  C_3
REMARK    2  A    between atoms: C_10  and  C_11
REMARK    3  A    between atoms: C_11  and  O_12
REMARK    4  A    between atoms: O_12  and  C_13
REMARK    5  A    between atoms: C_17  and  C_18
REMARK    6  A    between atoms: C_18  and  C_20
REMARK    7  A    between atoms: C_21  and  O_22
REMARK    8  A    between atoms: C_21  and  C_23
REMARK    9  A    between atoms: C_23  and  O_25
REMARK                            x       y       z     vdW  Elec       q    Type
REMARK                         _______ _______ _______ _____ _____    ______ ____
ROOT
ATOM      1  C   UNL     1       1.979   7.994  19.042  0.00  0.00    +0.000 A 
ATOM      2  C   UNL     1       1.631   7.557  20.321  0.00  0.00    +0.000 A 
ATOM      3  C   UNL     1       1.846   6.227  20.686  0.00  0.00    +0.000 A 
ATOM      4  C   UNL     1       2.417   5.334  19.775  0.00  0.00    +0.000 A 
ATOM      5  C   UNL     1       2.743   5.759  18.482  0.00  0.00    +0.000 A 
ATOM      6  C   UNL     1       2.501   7.087  18.116  0.00  0.00    +0.000 A 
ENDROOT
BRANCH   5   7
ATOM      7  C   UNL     1       3.399   4.801  17.554  0.00  0.00    +0.000 C 
ATOM      8  O   UNL     1       2.846   3.747  17.245  0.00  0.00    +0.000 OA
BRANCH   7   9
ATOM      9  C   UNL     1       4.735   5.127  16.997  0.00  0.00    +0.000 C 
ATOM     10  C   UNL     1       5.854   4.636  17.557  0.00  0.00    +0.000 C 
BRANCH  10  11
ATOM     11  O   UNL     1       5.887   3.800  18.664  0.00  0.00    +0.000 OA
ATOM     12  H   UNL     1       6.670   3.208  18.555  0.00  0.00    +0.000 HD
ENDBRANCH  10  11
BRANCH  10  13
ATOM     13  C   UNL     1       7.163   5.017  16.947  0.00  0.00    +0.000 C 
ATOM     14  O   UNL     1       7.374   6.038  16.318  0.00  0.00    +0.000 OA
BRANCH  13  15
ATOM     15  O   UNL     1       8.088   4.068  17.206  0.00  0.00    +0.000 OA
ATOM     16  H   UNL     1       8.807   4.123  16.535  0.00  0.00    +0.000 HD
ENDBRANCH  13  15
ENDBRANCH  10  13
ENDBRANCH   7   9
ENDBRANCH   5   7
BRANCH   1  17
ATOM     17  O   UNL     1       1.789   9.328  18.773  0.00  0.00    +0.000 OA
BRANCH  17  18
ATOM     18  C   UNL     1       0.660   9.594  17.937  0.00  0.00    +0.000 C 
BRANCH  18  26
ATOM     19  C   UNL     1      -1.630  10.721  18.172  0.00  0.00    +0.000 A 
ATOM     20  C   UNL     1      -2.497  11.536  18.920  0.00  0.00    +0.000 A 
ATOM     21 CL   UNL     1      -4.120  11.860  18.414  0.00  0.00    +0.000 Cl
ATOM     22  C   UNL     1      -2.078  12.118  20.120  0.00  0.00    +0.000 A 
ATOM     23  C   UNL     1      -0.788  11.891  20.585  0.00  0.00    +0.000 A 
ATOM     24 CL   UNL     1      -0.268  12.603  22.060  0.00  0.00    +0.000 Cl
ATOM     25  C   UNL     1       0.084  11.082  19.864  0.00  0.00    +0.000 A 
ATOM     26  C   UNL     1      -0.321  10.494  18.650  0.00  0.00    +0.000 A 
BRANCH  19  28
ATOM     27  N   UNL     1      -2.463   9.651  15.953  0.00  0.00    +0.000 NA
ATOM     28  C   UNL     1      -2.090  10.121  16.944  0.00  0.00    +0.000 C 
ENDBRANCH  19  28
ENDBRANCH  18  26
ENDBRANCH  17  18
ENDBRANCH   1  17
TORSDOF 9
ENDMDL
MODEL 4
REMARK VINA RESULT:      -7.4      1.714      2.835
REMARK  Name = 
REMARK  9 active torsions:
REMARK  status: ('A' for Active; 'I' for Inactive)
REMARK    1  A    between atoms: C_2  and  C_3
REMARK    2  A    between atoms: C_10  and  C_11
REMARK    3  A    between atoms: C_11  and  O_12
REMARK    4  A    between atoms: O_12  and  C_13
REMARK    5  A    between atoms: C_17  and  C_18
REMARK    6  A    between atoms: C_18  and  C_20
REMARK    7  A    between atoms: C_21  and  O_22
REMARK    8  A    between atoms: C_21  and  C_23
REMARK    9  A    between atoms: C_23  and  O_25
REMARK                            x       y       z     vdW  Elec       q    Type
REMARK                         _______ _______ _______ _____ _____    ______ ____
ROOT
ATOM      1  C   UNL     1       5.016   6.178  17.556  0.00  0.00    +0.000 A 
ATOM      2  C   UNL     1       5.930   5.893  18.570  0.00  0.00    +0.000 A 
ATOM      3  C   UNL     1       7.135   5.258  18.265  0.00  0.00    +0.000 A 
ATOM      4  C   UNL     1       7.431   4.915  16.943  0.00  0.00    +0.000 A 
ATOM      5  C   UNL     1       6.507   5.174  15.925  0.00  0.00    +0.000 A 
ATOM      6  C   UNL     1       5.291   5.788  16.243  0.00  0.00    +0.000 A 
ENDROOT
BRANCH   5   7
ATOM      7  C   UNL     1       6.873   4.848  14.522  0.00  0.00    +0.000 C 
ATOM      8  O   UNL     1       7.876   5.338  14.005  0.00  0.00    +0.000 OA
BRANCH   7   9
ATOM      9  C   UNL     1       6.016   3.920  13.742  0.00  0.00    +0.000 C 
ATOM     10  C   UNL     1       6.290   3.645  12.456  0.00  0.00    +0.000 C 
BRANCH  10  11
ATOM     11  O   UNL     1       7.360   4.167  11.743  0.00  0.00    +0.000 OA
ATOM     12  H   UNL     1       7.429   5.122  11.987  0.00  0.00    +0.000 HD
ENDBRANCH  10  11
BRANCH  10  13
ATOM     13  C   UNL     1       5.376   2.710  11.734  0.00  0.00    +0.000 C 
ATOM     14  O   UNL     1       4.254   2.983  11.347  0.00  0.00    +0.000 OA
BRANCH  13  15
ATOM     15  O   UNL     1       5.981   1.515  11.559  0.00  0.00    +0.000 OA
ATOM     16  H   UNL     1       6.877   1.542  11.967  0.00  0.00    +0.000 HD
ENDBRANCH  13  15
ENDBRANCH  10  13
ENDBRANCH   7   9
ENDBRANCH   5   7
BRANCH   1  17
ATOM     17  O   UNL     1       3.877   6.853  17.924  0.00  0.00    +0.000 OA
BRANCH  17  18
ATOM     18  C   UNL     1       2.675   6.101  17.741  0.00  0.00    +0.000 C 
BRANCH  18  26
ATOM     19  C   UNL     1       2.277   4.715  19.861  0.00  0.00    +0.000 A 
ATOM     20  C   UNL     1       2.327   3.467  20.508  0.00  0.00    +0.000 A 
ATOM     21 CL   UNL     1       1.778   3.253  22.135  0.00  0.00    +0.000 Cl
ATOM     22  C   UNL     1       2.823   2.337  19.851  0.00  0.00    +0.000 A 
ATOM     23  C   UNL     1       3.273   2.441  18.540  0.00  0.00    +0.000 A 
ATOM     24 CL   UNL     1       3.882   1.055  17.728  0.00  0.00    +0.000 Cl
ATOM     25  C   UNL     1       3.227   3.664  17.879  0.00  0.00    +0.000 A 
ATOM     26  C   UNL     1       2.737   4.813  18.529  0.00  0.00    +0.000 A 
BRANCH  19  28
ATOM     27  N   UNL     1       1.328   6.792  21.103  0.00  0.00    +0.000 NA
ATOM     28  C   UNL     1       1.750   5.862  20.555  0.00  0.00    +0.000 C 
ENDBRANCH  19  28
ENDBRANCH  18  26
ENDBRANCH  17  18
ENDBRANCH   1  17
TORSDOF 9
ENDMDL
MODEL 5
REMARK VINA RESULT:      -7.4      3.483      5.377
REMARK  Name = 
REMARK  9 active torsions:
REMARK  status: ('A' for Active; 'I' for Inactive)
REMARK    1  A    between atoms: C_2  and  C_3
REMARK    2  A    between atoms: C_10  and  C_11
REMARK    3  A    between atoms: C_11  and  O_12
REMARK    4  A    between atoms: O_12  and  C_13
REMARK    5  A    between atoms: C_17  and  C_18
REMARK    6  A    between atoms: C_18  and  C_20
REMARK    7  A    between atoms: C_21  and  O_22
REMARK    8  A    between atoms: C_21  and  C_23
REMARK    9  A    between atoms: C_23  and  O_25
REMARK                            x       y       z     vdW  Elec       q    Type
REMARK                         _______ _______ _______ _____ _____    ______ ____
ROOT
ATOM      1  C   UNL     1       1.657   5.042  20.321  0.00  0.00    +0.000 A 
ATOM      2  C   UNL     1       0.924   3.934  20.746  0.00  0.00    +0.000 A 
ATOM      3  C   UNL     1       1.158   2.682  20.174  0.00  0.00    +0.000 A 
ATOM      4  C   UNL     1       2.131   2.536  19.182  0.00  0.00    +0.000 A 
ATOM      5  C   UNL     1       2.850   3.649  18.731  0.00  0.00    +0.000 A 
ATOM      6  C   UNL     1       2.592   4.904  19.292  0.00  0.00    +0.000 A 
ENDROOT
BRANCH   5   7
ATOM      7  C   UNL     1       3.916   3.452  17.714  0.00  0.00    +0.000 C 
ATOM      8  O   UNL     1       4.244   2.322  17.359  0.00  0.00    +0.000 OA
BRANCH   7   9
ATOM      9  C   UNL     1       4.585   4.638  17.123  0.00  0.00    +0.000 C 
ATOM     10  C   UNL     1       5.884   4.887  17.362  0.00  0.00    +0.000 C 
BRANCH  10  11
ATOM     11  O   UNL     1       6.712   4.097  18.146  0.00  0.00    +0.000 OA
ATOM     12  H   UNL     1       6.218   3.263  18.337  0.00  0.00    +0.000 HD
ENDBRANCH  10  11
BRANCH  10  13
ATOM     13  C   UNL     1       6.485   6.105  16.741  0.00  0.00    +0.000 C 
ATOM     14  O   UNL     1       6.075   7.243  16.887  0.00  0.00    +0.000 OA
BRANCH  13  15
ATOM     15  O   UNL     1       7.562   5.764  16.002  0.00  0.00    +0.000 OA
ATOM     16  H   UNL     1       7.883   4.877  16.285  0.00  0.00    +0.000 HD
ENDBRANCH  13  15
ENDBRANCH  10  13
ENDBRANCH   7   9
ENDBRANCH   5   7
BRANCH   1  17
ATOM     17  O   UNL     1       1.410   6.230  20.967  0.00  0.00    +0.000 OA
BRANCH  17  18
ATOM     18  C   UNL     1       2.088   7.351  20.395  0.00  0.00    +0.000 C 
BRANCH  18  26
ATOM     19  C   UNL     1       1.063   9.513  19.474  0.00  0.00    +0.000 A 
ATOM     20  C   UNL     1       0.229  10.626  19.673  0.00  0.00    +0.000 A 
ATOM     21 CL   UNL     1      -0.062  11.791  18.426  0.00  0.00    +0.000 Cl
ATOM     22  C   UNL     1      -0.410  10.835  20.899  0.00  0.00    +0.000 A 
ATOM     23  C   UNL     1      -0.224   9.932  21.938  0.00  0.00    +0.000 A 
ATOM     24 CL   UNL     1      -1.007  10.184  23.447  0.00  0.00    +0.000 Cl
ATOM     25  C   UNL     1       0.593   8.820  21.762  0.00  0.00    +0.000 A 
ATOM     26  C   UNL     1       1.249   8.599  20.535  0.00  0.00    +0.000 A 
BRANCH  19  28
ATOM     27  N   UNL     1       2.221   9.144  17.176  0.00  0.00    +0.000 NA
ATOM     28  C   UNL     1       1.701   9.313  18.197  0.00  0.00    +0.000 C 
ENDBRANCH  19  28
ENDBRANCH  18  26
ENDBRANCH  17  18
ENDBRANCH   1  17
TORSDOF 9
ENDMDL
MODEL 6
REMARK VINA RESULT:      -7.3      4.851      8.517
REMARK  Name = 
REMARK  9 active torsions:
REMARK  status: ('A' for Active; 'I' for Inactive)
REMARK    1  A    between atoms: C_2  and  C_3
REMARK    2  A    between atoms: C_10  and  C_11
REMARK    3  A    between atoms: C_11  and  O_12
REMARK    4  A    between atoms: O_12  and  C_13
REMARK    5  A    between atoms: C_17  and  C_18
REMARK    6  A    between atoms: C_18  and  C_20
REMARK    7  A    between atoms: C_21  and  O_22
REMARK    8  A    between atoms: C_21  and  C_23
REMARK    9  A    between atoms: C_23  and  O_25
REMARK                            x       y       z     vdW  Elec       q    Type
REMARK                         _______ _______ _______ _____ _____    ______ ____
ROOT
ATOM      1  C   UNL     1       1.464   8.402  20.214  0.00  0.00    +0.000 A 
ATOM      2  C   UNL     1       1.022   8.449  21.535  0.00  0.00    +0.000 A 
ATOM      3  C   UNL     1       0.067   9.392  21.919  0.00  0.00    +0.000 A 
ATOM      4  C   UNL     1      -0.452  10.285  20.978  0.00  0.00    +0.000 A 
ATOM      5  C   UNL     1       0.008  10.263  19.656  0.00  0.00    +0.000 A 
ATOM      6  C   UNL     1       0.983   9.330  19.286  0.00  0.00    +0.000 A 
ENDROOT
BRANCH   5   7
ATOM      7  C   UNL     1      -0.603  11.187  18.666  0.00  0.00    +0.000 C 
ATOM      8  O   UNL     1      -0.399  12.398  18.729  0.00  0.00    +0.000 OA
BRANCH   7   9
ATOM      9  C   UNL     1      -1.465  10.636  17.591  0.00  0.00    +0.000 C 
ATOM     10  C   UNL     1      -2.706  11.112  17.390  0.00  0.00    +0.000 C 
BRANCH  10  11
ATOM     11  O   UNL     1      -3.293  12.132  18.125  0.00  0.00    +0.000 OA
ATOM     12  H   UNL     1      -3.319  12.930  17.541  0.00  0.00    +0.000 HD
ENDBRANCH  10  11
BRANCH  10  13
ATOM     13  C   UNL     1      -3.518  10.501  16.296  0.00  0.00    +0.000 C 
ATOM     14  O   UNL     1      -3.145   9.602  15.563  0.00  0.00    +0.000 OA
BRANCH  13  15
ATOM     15  O   UNL     1      -4.737  11.080  16.245  0.00  0.00    +0.000 OA
ATOM     16  H   UNL     1      -5.344  10.612  16.864  0.00  0.00    +0.000 HD
ENDBRANCH  13  15
ENDBRANCH  10  13
ENDBRANCH   7   9
ENDBRANCH   5   7
BRANCH   1  17
ATOM     17  O   UNL     1       2.365   7.413  19.899  0.00  0.00    +0.000 OA
BRANCH  17  18
ATOM     18  C   UNL     1       2.715   7.369  18.514  0.00  0.00    +0.000 C 
BRANCH  18  26
ATOM     19  C   UNL     1       4.026   5.517  17.321  0.00  0.00    +0.000 A 
ATOM     20  C   UNL     1       4.148   4.158  16.982  0.00  0.00    +0.000 A 
ATOM     21 CL   UNL     1       5.495   3.552  16.081  0.00  0.00    +0.000 Cl
ATOM     22  C   UNL     1       3.175   3.231  17.370  0.00  0.00    +0.000 A 
ATOM     23  C   UNL     1       2.072   3.653  18.102  0.00  0.00    +0.000 A 
ATOM     24 CL   UNL     1       0.874   2.519  18.582  0.00  0.00    +0.000 Cl
ATOM     25  C   UNL     1       1.934   4.992  18.454  0.00  0.00    +0.000 A 
ATOM     26  C   UNL     1       2.902   5.939  18.065  0.00  0.00    +0.000 A 
BRANCH  19  28
ATOM     27  N   UNL     1       5.864   7.210  16.602  0.00  0.00    +0.000 NA
ATOM     28  C   UNL     1       5.049   6.450  16.920  0.00  0.00    +0.000 C 
ENDBRANCH  19  28
ENDBRANCH  18  26
ENDBRANCH  17  18
ENDBRANCH   1  17
TORSDOF 9
ENDMDL
MODEL 7
REMARK VINA RESULT:      -7.2      3.647      5.514
REMARK  Name = 
REMARK  9 active torsions:
REMARK  status: ('A' for Active; 'I' for Inactive)
REMARK    1  A    between atoms: C_2  and  C_3
REMARK    2  A    between atoms: C_10  and  C_11
REMARK    3  A    between atoms: C_11  and  O_12
REMARK    4  A    between atoms: O_12  and  C_13
REMARK    5  A    between atoms: C_17  and  C_18
REMARK    6  A    between atoms: C_18  and  C_20
REMARK    7  A    between atoms: C_21  and  O_22
REMARK    8  A    between atoms: C_21  and  C_23
REMARK    9  A    between atoms: C_23  and  O_25
REMARK                            x       y       z     vdW  Elec       q    Type
REMARK                         _______ _______ _______ _____ _____    ______ ____
ROOT
ATOM      1  C   UNL     1       1.756   5.200  20.185  0.00  0.00    +0.000 A 
ATOM      2  C   UNL     1       1.160   3.976  20.486  0.00  0.00    +0.000 A 
ATOM      3  C   UNL     1       1.640   2.803  19.900  0.00  0.00    +0.000 A 
ATOM      4  C   UNL     1       2.723   2.854  19.018  0.00  0.00    +0.000 A 
ATOM      5  C   UNL     1       3.307   4.082  18.689  0.00  0.00    +0.000 A 
ATOM      6  C   UNL     1       2.804   5.255  19.262  0.00  0.00    +0.000 A 
ENDROOT
BRANCH   5   7
ATOM      7  C   UNL     1       4.491   4.098  17.792  0.00  0.00    +0.000 C 
ATOM      8  O   UNL     1       4.483   3.477  16.731  0.00  0.00    +0.000 OA
BRANCH   7   9
ATOM      9  C   UNL     1       5.693   4.876  18.185  0.00  0.00    +0.000 C 
ATOM     10  C   UNL     1       6.133   5.894  17.426  0.00  0.00    +0.000 C 
BRANCH  10  11
ATOM     11  O   UNL     1       5.539   6.320  16.247  0.00  0.00    +0.000 OA
ATOM     12  H   UNL     1       4.755   6.866  16.501  0.00  0.00    +0.000 HD
ENDBRANCH  10  11
BRANCH  10  13
ATOM     13  C   UNL     1       7.355   6.623  17.881  0.00  0.00    +0.000 C 
ATOM     14  O   UNL     1       7.977   6.385  18.900  0.00  0.00    +0.000 OA
BRANCH  13  15
ATOM     15  O   UNL     1       7.681   7.581  16.987  0.00  0.00    +0.000 OA
ATOM     16  H   UNL     1       8.661   7.677  16.956  0.00  0.00    +0.000 HD
ENDBRANCH  13  15
ENDBRANCH  10  13
ENDBRANCH   7   9
ENDBRANCH   5   7
BRANCH   1  17
ATOM     17  O   UNL     1       1.264   6.304  20.841  0.00  0.00    +0.000 OA
BRANCH  17  18
ATOM     18  C   UNL     1       2.041   7.487  20.643  0.00  0.00    +0.000 C 
BRANCH  18  26
ATOM     19  C   UNL     1       0.946   9.520  19.530  0.00  0.00    +0.000 A 
ATOM     20  C   UNL     1       0.066  10.612  19.624  0.00  0.00    +0.000 A 
ATOM     21 CL   UNL     1      -0.253  11.654  18.279  0.00  0.00    +0.000 Cl
ATOM     22  C   UNL     1      -0.598  10.899  20.821  0.00  0.00    +0.000 A 
ATOM     23  C   UNL     1      -0.390  10.096  21.935  0.00  0.00    +0.000 A 
ATOM     24 CL   UNL     1      -1.204  10.444  23.408  0.00  0.00    +0.000 Cl
ATOM     25  C   UNL     1       0.471   9.007  21.863  0.00  0.00    +0.000 A 
ATOM     26  C   UNL     1       1.152   8.708  20.667  0.00  0.00    +0.000 A 
BRANCH  19  28
ATOM     27  N   UNL     1       2.148   9.020  17.279  0.00  0.00    +0.000 NA
ATOM     28  C   UNL     1       1.608   9.238  18.281  0.00  0.00    +0.000 C 
ENDBRANCH  19  28
ENDBRANCH  18  26
ENDBRANCH  17  18
ENDBRANCH   1  17
TORSDOF 9
ENDMDL
MODEL 8
REMARK VINA RESULT:      -7.2      4.880      8.737
REMARK  Name = 
REMARK  9 active torsions:
REMARK  status: ('A' for Active; 'I' for Inactive)
REMARK    1  A    between atoms: C_2  and  C_3
REMARK    2  A    between atoms: C_10  and  C_11
REMARK    3  A    between atoms: C_11  and  O_12
REMARK    4  A    between atoms: O_12  and  C_13
REMARK    5  A    between atoms: C_17  and  C_18
REMARK    6  A    between atoms: C_18  and  C_20
REMARK    7  A    between atoms: C_21  and  O_22
REMARK    8  A    between atoms: C_21  and  C_23
REMARK    9  A    between atoms: C_23  and  O_25
REMARK                            x       y       z     vdW  Elec       q    Type
REMARK                         _______ _______ _______ _____ _____    ______ ____
ROOT
ATOM      1  C   UNL     1       1.487   8.330  20.372  0.00  0.00    +0.000 A 
ATOM      2  C   UNL     1       1.004   8.247  21.677  0.00  0.00    +0.000 A 
ATOM      3  C   UNL     1       0.082   9.188  22.141  0.00  0.00    +0.000 A 
ATOM      4  C   UNL     1      -0.361  10.209  21.297  0.00  0.00    +0.000 A 
ATOM      5  C   UNL     1       0.141  10.315  19.995  0.00  0.00    +0.000 A 
ATOM      6  C   UNL     1       1.082   9.382  19.546  0.00  0.00    +0.000 A 
ENDROOT
BRANCH   5   7
ATOM      7  C   UNL     1      -0.391  11.378  19.103  0.00  0.00    +0.000 C 
ATOM      8  O   UNL     1       0.371  12.117  18.484  0.00  0.00    +0.000 OA
BRANCH   7   9
ATOM      9  C   UNL     1      -1.860  11.541  18.961  0.00  0.00    +0.000 C 
ATOM     10  C   UNL     1      -2.466  11.329  17.780  0.00  0.00    +0.000 C 
BRANCH  10  11
ATOM     11  O   UNL     1      -1.820  10.942  16.615  0.00  0.00    +0.000 OA
ATOM     12  H   UNL     1      -2.103  10.015  16.423  0.00  0.00    +0.000 HD
ENDBRANCH  10  11
BRANCH  10  13
ATOM     13  C   UNL     1      -3.945  11.524  17.712  0.00  0.00    +0.000 C 
ATOM     14  O   UNL     1      -4.730  11.262  18.606  0.00  0.00    +0.000 OA
BRANCH  13  15
ATOM     15  O   UNL     1      -4.288  12.047  16.516  0.00  0.00    +0.000 OA
ATOM     16  H   UNL     1      -4.228  11.347  15.825  0.00  0.00    +0.000 HD
ENDBRANCH  13  15
ENDBRANCH  10  13
ENDBRANCH   7   9
ENDBRANCH   5   7
BRANCH   1  17
ATOM     17  O   UNL     1       2.349   7.339  19.968  0.00  0.00    +0.000 OA
BRANCH  17  18
ATOM     18  C   UNL     1       2.555   7.291  18.555  0.00  0.00    +0.000 C 
BRANCH  18  26
ATOM     19  C   UNL     1       3.916   5.476  17.360  0.00  0.00    +0.000 A 
ATOM     20  C   UNL     1       4.074   4.121  17.021  0.00  0.00    +0.000 A 
ATOM     21 CL   UNL     1       5.437   3.552  16.118  0.00  0.00    +0.000 Cl
ATOM     22  C   UNL     1       3.127   3.168  17.410  0.00  0.00    +0.000 A 
ATOM     23  C   UNL     1       2.014   3.559  18.143  0.00  0.00    +0.000 A 
ATOM     24 CL   UNL     1       0.848   2.392  18.625  0.00  0.00    +0.000 Cl
ATOM     25  C   UNL     1       1.841   4.894  18.495  0.00  0.00    +0.000 A 
ATOM     26  C   UNL     1       2.781   5.867  18.105  0.00  0.00    +0.000 A 
BRANCH  19  28
ATOM     27  N   UNL     1       5.717   7.202  16.626  0.00  0.00    +0.000 NA
ATOM     28  C   UNL     1       4.912   6.437  16.958  0.00  0.00    +0.000 C 
ENDBRANCH  19  28
ENDBRANCH  18  26
ENDBRANCH  17  18
ENDBRANCH   1  17
TORSDOF 9
ENDMDL
MODEL 9
REMARK VINA RESULT:      -7.2      4.017      6.102
REMARK  Name = 
REMARK  9 active torsions:
REMARK  status: ('A' for Active; 'I' for Inactive)
REMARK    1  A    between atoms: C_2  and  C_3
REMARK    2  A    between atoms: C_10  and  C_11
REMARK    3  A    between atoms: C_11  and  O_12
REMARK    4  A    between atoms: O_12  and  C_13
REMARK    5  A    between atoms: C_17  and  C_18
REMARK    6  A    between atoms: C_18  and  C_20
REMARK    7  A    between atoms: C_21  and  O_22
REMARK    8  A    between atoms: C_21  and  C_23
REMARK    9  A    between atoms: C_23  and  O_25
REMARK                            x       y       z     vdW  Elec       q    Type
REMARK                         _______ _______ _______ _____ _____    ______ ____
ROOT
ATOM      1  C   UNL     1       1.925   7.751  19.672  0.00  0.00    +0.000 A 
ATOM      2  C   UNL     1       1.416   7.025  20.748  0.00  0.00    +0.000 A 
ATOM      3  C   UNL     1       1.580   5.639  20.795  0.00  0.00    +0.000 A 
ATOM      4  C   UNL     1       2.262   4.980  19.768  0.00  0.00    +0.000 A 
ATOM      5  C   UNL     1       2.751   5.700  18.672  0.00  0.00    +0.000 A 
ATOM      6  C   UNL     1       2.560   7.085  18.621  0.00  0.00    +0.000 A 
ENDROOT
BRANCH   5   7
ATOM      7  C   UNL     1       3.519   4.979  17.624  0.00  0.00    +0.000 C 
ATOM      8  O   UNL     1       3.008   4.055  16.994  0.00  0.00    +0.000 OA
BRANCH   7   9
ATOM      9  C   UNL     1       4.918   5.386  17.337  0.00  0.00    +0.000 C 
ATOM     10  C   UNL     1       5.812   4.499  16.869  0.00  0.00    +0.000 C 
BRANCH  10  11
ATOM     11  O   UNL     1       5.542   3.164  16.605  0.00  0.00    +0.000 OA
ATOM     12  H   UNL     1       4.621   2.989  16.920  0.00  0.00    +0.000 HD
ENDBRANCH  10  11
BRANCH  10  13
ATOM     13  C   UNL     1       7.202   4.980  16.615  0.00  0.00    +0.000 C 
ATOM     14  O   UNL     1       7.495   5.990  16.000  0.00  0.00    +0.000 OA
BRANCH  13  15
ATOM     15  O   UNL     1       8.094   4.137  17.178  0.00  0.00    +0.000 OA
ATOM     16  H   UNL     1       7.634   3.573  17.842  0.00  0.00    +0.000 HD
ENDBRANCH  13  15
ENDBRANCH  10  13
ENDBRANCH   7   9
ENDBRANCH   5   7
BRANCH   1  17
ATOM     17  O   UNL     1       1.772   9.116  19.722  0.00  0.00    +0.000 OA
BRANCH  17  18
ATOM     18  C   UNL     1       1.456   9.709  18.461  0.00  0.00    +0.000 C 
BRANCH  18  26
ATOM     19  C   UNL     1      -0.285  11.356  19.371  0.00  0.00    +0.000 A 
ATOM     20  C   UNL     1      -1.585  11.888  19.306  0.00  0.00    +0.000 A 
ATOM     21 CL   UNL     1      -2.102  13.179  20.335  0.00  0.00    +0.000 Cl
ATOM     22  C   UNL     1      -2.519  11.391  18.392  0.00  0.00    +0.000 A 
ATOM     23  C   UNL     1      -2.163  10.359  17.532  0.00  0.00    +0.000 A 
ATOM     24 CL   UNL     1      -3.307   9.746  16.406  0.00  0.00    +0.000 Cl
ATOM     25  C   UNL     1      -0.881   9.822  17.575  0.00  0.00    +0.000 A 
ATOM     26  C   UNL     1       0.070  10.307  18.494  0.00  0.00    +0.000 A 
BRANCH  19  28
ATOM     27  N   UNL     1       1.432  12.315  21.072  0.00  0.00    +0.000 NA
ATOM     28  C   UNL     1       0.664  11.894  20.314  0.00  0.00    +0.000 C 
ENDBRANCH  19  28
ENDBRANCH  18  26
ENDBRANCH  17  18
ENDBRANCH   1  17
TORSDOF 9
ENDMDL
