MODEL 1
REMARK VINA RESULT:      -8.1      0.000      0.000
REMARK  Name = 
REMARK  5 active torsions:
REMARK  status: ('A' for Active; 'I' for Inactive)
REMARK    1  A    between atoms: C_1  and  C_2
REMARK    2  A    between atoms: N_7  and  C_8
REMARK    3  A    between atoms: C_8  and  C_9
REMARK    4  A    between atoms: C_9  and  N_10
REMARK    5  A    between atoms: C_11  and  C_13
REMARK                            x       y       z     vdW  Elec       q    Type
REMARK                         _______ _______ _______ _____ _____    ______ ____
ROOT
ATOM      1  C   UNL     1       2.142   7.016  19.438  0.00  0.00    +0.000 A 
ATOM      2  C   UNL     1       2.251   8.084  18.569  0.00  0.00    +0.000 A 
ATOM      3  C   UNL     1       1.594   9.270  19.047  0.00  0.00    +0.000 A 
ATOM      4  C   UNL     1       1.038   9.066  20.297  0.00  0.00    +0.000 A 
ATOM      5  S   UNL     1       1.291   7.465  20.840  0.00  0.00    +0.000 S 
ATOM      6  C   UNL     1       0.297  10.052  21.101  0.00  0.00    +0.000 A 
ATOM      7  C   UNL     1      -0.245   9.725  22.365  0.00  0.00    +0.000 A 
ATOM      8  C   UNL     1      -0.951  10.663  23.117  0.00  0.00    +0.000 A 
ATOM      9  C   UNL     1      -1.130  11.943  22.617  0.00  0.00    +0.000 A 
ATOM     10 CL   UNL     1      -2.002  13.105  23.538  0.00  0.00    +0.000 Cl
ATOM     11  C   UNL     1      -0.600  12.295  21.377  0.00  0.00    +0.000 A 
ATOM     12  C   UNL     1       0.121  11.358  20.614  0.00  0.00    +0.000 A 
ATOM     13  S   UNL     1       0.780  11.980  19.066  0.00  0.00    +0.000 S 
ATOM     14  C   UNL     1       1.521  10.532  18.258  0.00  0.00    +0.000 C 
ENDROOT
BRANCH   1  16
ATOM     15  N   UNL     1       2.481   5.125  18.000  0.00  0.00    +0.000 N 
ATOM     16  C   UNL     1       2.668   5.671  19.255  0.00  0.00    +0.000 C 
ATOM     17  O   UNL     1       3.248   5.054  20.144  0.00  0.00    +0.000 OA
ATOM     18  H   UNL     1       2.187   5.734  17.244  0.00  0.00    +0.000 HD
BRANCH  15  19
ATOM     19  C   UNL     1       2.983   3.816  17.663  0.00  0.00    +0.000 C 
BRANCH  19  20
ATOM     20  C   UNL     1       4.510   3.803  17.454  0.00  0.00    +0.000 C 
BRANCH  20  27
ATOM     21  C   UNL     1       6.740   4.538  14.459  0.00  0.00    +0.000 C 
ATOM     22  C   UNL     1       6.375   4.115  15.894  0.00  0.00    +0.000 C 
ATOM     23  C   UNL     1       7.412   4.656  16.899  0.00  0.00    +0.000 C 
ATOM     24  C   UNL     1       7.293   6.165  17.102  0.00  0.00    +0.000 C 
ATOM     25  C   UNL     1       5.852   6.579  17.383  0.00  0.00    +0.000 C 
ATOM     26  C   UNL     1       4.875   5.977  16.370  0.00  0.00    +0.000 C 
ATOM     27  N   UNL     1       4.983   4.512  16.237  0.00  0.00    +0.000 NA
ENDBRANCH  20  27
ENDBRANCH  19  20
ENDBRANCH  15  19
ENDBRANCH   1  16
TORSDOF 4
ENDMDL
MODEL 2
REMARK VINA RESULT:      -8.0      0.983      1.752
REMARK  Name = 
REMARK  5 active torsions:
REMARK  status: ('A' for Active; 'I' for Inactive)
REMARK    1  A    between atoms: C_1  and  C_2
REMARK    2  A    between atoms: N_7  and  C_8
REMARK    3  A    between atoms: C_8  and  C_9
REMARK    4  A    between atoms: C_9  and  N_10
REMARK    5  A    between atoms: C_11  and  C_13
REMARK                            x       y       z     vdW  Elec       q    Type
REMARK                         _______ _______ _______ _____ _____    ______ ____
ROOT
ATOM      1  C   UNL     1       2.171   7.134  19.399  0.00  0.00    +0.000 A 
ATOM      2  C   UNL     1       2.187   8.204  18.525  0.00  0.00    +0.000 A 
ATOM      3  C   UNL     1       1.475   9.349  19.023  0.00  0.00    +0.000 A 
ATOM      4  C   UNL     1       0.973   9.117  20.291  0.00  0.00    +0.000 A 
ATOM      5  S   UNL     1       1.340   7.535  20.828  0.00  0.00    +0.000 S 
ATOM      6  C   UNL     1       0.202  10.059  21.118  0.00  0.00    +0.000 A 
ATOM      7  C   UNL     1      -0.279   9.704  22.399  0.00  0.00    +0.000 A 
ATOM      8  C   UNL     1      -1.015  10.600  23.172  0.00  0.00    +0.000 A 
ATOM      9  C   UNL     1      -1.287  11.866  22.677  0.00  0.00    +0.000 A 
ATOM     10 CL   UNL     1      -2.198  12.976  23.624  0.00  0.00    +0.000 Cl
ATOM     11  C   UNL     1      -0.819  12.245  21.420  0.00  0.00    +0.000 A 
ATOM     12  C   UNL     1      -0.068  11.350  20.634  0.00  0.00    +0.000 A 
ATOM     13  S   UNL     1       0.501  12.006  19.066  0.00  0.00    +0.000 S 
ATOM     14  C   UNL     1       1.301  10.603  18.235  0.00  0.00    +0.000 C 
ENDROOT
BRANCH   1  16
ATOM     15  N   UNL     1       4.030   5.658  19.744  0.00  0.00    +0.000 N 
ATOM     16  C   UNL     1       2.771   5.822  19.201  0.00  0.00    +0.000 C 
ATOM     17  O   UNL     1       2.206   4.913  18.602  0.00  0.00    +0.000 OA
ATOM     18  H   UNL     1       4.372   6.353  20.400  0.00  0.00    +0.000 HD
BRANCH  15  19
ATOM     19  C   UNL     1       4.732   4.401  19.659  0.00  0.00    +0.000 C 
BRANCH  19  20
ATOM     20  C   UNL     1       5.277   4.123  18.245  0.00  0.00    +0.000 C 
BRANCH  20  27
ATOM     21  C   UNL     1       7.093   7.336  17.314  0.00  0.00    +0.000 C 
ATOM     22  C   UNL     1       5.935   6.324  17.387  0.00  0.00    +0.000 C 
ATOM     23  C   UNL     1       5.176   6.271  16.046  0.00  0.00    +0.000 C 
ATOM     24  C   UNL     1       5.979   5.573  14.950  0.00  0.00    +0.000 C 
ATOM     25  C   UNL     1       6.529   4.233  15.428  0.00  0.00    +0.000 C 
ATOM     26  C   UNL     1       7.236   4.353  16.780  0.00  0.00    +0.000 C 
ATOM     27  N   UNL     1       6.413   4.986  17.829  0.00  0.00    +0.000 NA
ENDBRANCH  20  27
ENDBRANCH  19  20
ENDBRANCH  15  19
ENDBRANCH   1  16
TORSDOF 4
ENDMDL
MODEL 3
REMARK VINA RESULT:      -8.0      3.583      5.097
REMARK  Name = 
REMARK  5 active torsions:
REMARK  status: ('A' for Active; 'I' for Inactive)
REMARK    1  A    between atoms: C_1  and  C_2
REMARK    2  A    between atoms: N_7  and  C_8
REMARK    3  A    between atoms: C_8  and  C_9
REMARK    4  A    between atoms: C_9  and  N_10
REMARK    5  A    between atoms: C_11  and  C_13
REMARK                            x       y       z     vdW  Elec       q    Type
REMARK                         _______ _______ _______ _____ _____    ______ ____
ROOT
ATOM      1  C   UNL     1       0.341  10.030  18.644  0.00  0.00    +0.000 A 
ATOM      2  C   UNL     1       0.186  10.735  19.822  0.00  0.00    +0.000 A 
ATOM      3  C   UNL     1      -1.095  11.380  19.929  0.00  0.00    +0.000 A 
ATOM      4  C   UNL     1      -1.890  11.101  18.831  0.00  0.00    +0.000 A 
ATOM      5  S   UNL     1      -1.072  10.112  17.702  0.00  0.00    +0.000 S 
ATOM      6  C   UNL     1      -3.262  11.578  18.597  0.00  0.00    +0.000 A 
ATOM      7  C   UNL     1      -3.976  11.243  17.424  0.00  0.00    +0.000 A 
ATOM      8  C   UNL     1      -5.274  11.705  17.207  0.00  0.00    +0.000 A 
ATOM      9  C   UNL     1      -5.879  12.512  18.157  0.00  0.00    +0.000 A 
ATOM     10 CL   UNL     1      -7.479  13.088  17.895  0.00  0.00    +0.000 Cl
ATOM     11  C   UNL     1      -5.201  12.852  19.327  0.00  0.00    +0.000 A 
ATOM     12  C   UNL     1      -3.894  12.384  19.559  0.00  0.00    +0.000 A 
ATOM     13  S   UNL     1      -3.179  12.869  21.130  0.00  0.00    +0.000 S 
ATOM     14  C   UNL     1      -1.473  12.248  21.079  0.00  0.00    +0.000 C 
ENDROOT
BRANCH   1  16
ATOM     15  N   UNL     1       1.813   8.161  18.955  0.00  0.00    +0.000 N 
ATOM     16  C   UNL     1       1.513   9.284  18.209  0.00  0.00    +0.000 C 
ATOM     17  O   UNL     1       2.194   9.614  17.243  0.00  0.00    +0.000 OA
ATOM     18  H   UNL     1       1.119   7.811  19.607  0.00  0.00    +0.000 HD
BRANCH  15  19
ATOM     19  C   UNL     1       2.923   7.305  18.618  0.00  0.00    +0.000 C 
BRANCH  19  20
ATOM     20  C   UNL     1       2.470   5.932  18.084  0.00  0.00    +0.000 C 
BRANCH  20  27
ATOM     21  C   UNL     1       3.580   2.316  18.509  0.00  0.00    +0.000 C 
ATOM     22  C   UNL     1       2.662   3.488  18.114  0.00  0.00    +0.000 C 
ATOM     23  C   UNL     1       1.191   3.157  18.437  0.00  0.00    +0.000 C 
ATOM     24  C   UNL     1       0.906   3.181  19.937  0.00  0.00    +0.000 C 
ATOM     25  C   UNL     1       1.434   4.456  20.586  0.00  0.00    +0.000 C 
ATOM     26  C   UNL     1       2.885   4.742  20.192  0.00  0.00    +0.000 C 
ATOM     27  N   UNL     1       3.114   4.761  18.735  0.00  0.00    +0.000 NA
ENDBRANCH  20  27
ENDBRANCH  19  20
ENDBRANCH  15  19
ENDBRANCH   1  16
TORSDOF 4
ENDMDL
MODEL 4
REMARK VINA RESULT:      -7.9      2.826      4.086
REMARK  Name = 
REMARK  5 active torsions:
REMARK  status: ('A' for Active; 'I' for Inactive)
REMARK    1  A    between atoms: C_1  and  C_2
REMARK    2  A    between atoms: N_7  and  C_8
REMARK    3  A    between atoms: C_8  and  C_9
REMARK    4  A    between atoms: C_9  and  N_10
REMARK    5  A    between atoms: C_11  and  C_13
REMARK                            x       y       z     vdW  Elec       q    Type
REMARK                         _______ _______ _______ _____ _____    ______ ____
ROOT
ATOM      1  C   UNL     1       0.630   9.751  18.684  0.00  0.00    +0.000 A 
ATOM      2  C   UNL     1      -0.565  10.022  18.045  0.00  0.00    +0.000 A 
ATOM      3  C   UNL     1      -1.450  10.842  18.826  0.00  0.00    +0.000 A 
ATOM      4  C   UNL     1      -0.869  11.203  20.029  0.00  0.00    +0.000 A 
ATOM      5  S   UNL     1       0.692  10.526  20.197  0.00  0.00    +0.000 S 
ATOM      6  C   UNL     1      -1.469  12.042  21.079  0.00  0.00    +0.000 A 
ATOM      7  C   UNL     1      -0.786  12.331  22.281  0.00  0.00    +0.000 A 
ATOM      8  C   UNL     1      -1.366  13.121  23.273  0.00  0.00    +0.000 A 
ATOM      9  C   UNL     1      -2.639  13.634  23.081  0.00  0.00    +0.000 A 
ATOM     10 CL   UNL     1      -3.361  14.607  24.302  0.00  0.00    +0.000 Cl
ATOM     11  C   UNL     1      -3.332  13.370  21.901  0.00  0.00    +0.000 A 
ATOM     12  C   UNL     1      -2.754  12.580  20.890  0.00  0.00    +0.000 A 
ATOM     13  S   UNL     1      -3.753  12.376  19.416  0.00  0.00    +0.000 S 
ATOM     14  C   UNL     1      -2.820  11.216  18.375  0.00  0.00    +0.000 C 
ENDROOT
BRANCH   1  16
ATOM     15  N   UNL     1       1.983   7.782  18.899  0.00  0.00    +0.000 N 
ATOM     16  C   UNL     1       1.733   8.940  18.189  0.00  0.00    +0.000 C 
ATOM     17  O   UNL     1       2.399   9.247  17.206  0.00  0.00    +0.000 OA
ATOM     18  H   UNL     1       1.291   7.463  19.569  0.00  0.00    +0.000 HD
BRANCH  15  19
ATOM     19  C   UNL     1       3.020   6.862  18.503  0.00  0.00    +0.000 C 
BRANCH  19  20
ATOM     20  C   UNL     1       2.458   5.518  17.999  0.00  0.00    +0.000 C 
BRANCH  20  27
ATOM     21  C   UNL     1       3.285   1.827  18.425  0.00  0.00    +0.000 C 
ATOM     22  C   UNL     1       2.431   3.069  18.106  0.00  0.00    +0.000 C 
ATOM     23  C   UNL     1       0.994   2.889  18.636  0.00  0.00    +0.000 C 
ATOM     24  C   UNL     1       0.919   2.985  20.158  0.00  0.00    +0.000 C 
ATOM     25  C   UNL     1       1.643   4.222  20.677  0.00  0.00    +0.000 C 
ATOM     26  C   UNL     1       3.047   4.357  20.082  0.00  0.00    +0.000 C 
ATOM     27  N   UNL     1       3.076   4.311  18.608  0.00  0.00    +0.000 NA
ENDBRANCH  20  27
ENDBRANCH  19  20
ENDBRANCH  15  19
ENDBRANCH   1  16
TORSDOF 4
ENDMDL
MODEL 5
REMARK VINA RESULT:      -7.7      4.063      8.549
REMARK  Name = 
REMARK  5 active torsions:
REMARK  status: ('A' for Active; 'I' for Inactive)
REMARK    1  A    between atoms: C_1  and  C_2
REMARK    2  A    between atoms: N_7  and  C_8
REMARK    3  A    between atoms: C_8  and  C_9
REMARK    4  A    between atoms: C_9  and  N_10
REMARK    5  A    between atoms: C_11  and  C_13
REMARK                            x       y       z     vdW  Elec       q    Type
REMARK                         _______ _______ _______ _____ _____    ______ ____
ROOT
ATOM      1  C   UNL     1       1.461   7.062  20.498  0.00  0.00    +0.000 A 
ATOM      2  C   UNL     1       1.588   5.716  20.781  0.00  0.00    +0.000 A 
ATOM      3  C   UNL     1       2.441   5.023  19.854  0.00  0.00    +0.000 A 
ATOM      4  C   UNL     1       2.969   5.889  18.914  0.00  0.00    +0.000 A 
ATOM      5  S   UNL     1       2.406   7.486  19.149  0.00  0.00    +0.000 S 
ATOM      6  C   UNL     1       3.887   5.542  17.817  0.00  0.00    +0.000 A 
ATOM      7  C   UNL     1       4.350   6.512  16.900  0.00  0.00    +0.000 A 
ATOM      8  C   UNL     1       5.215   6.173  15.859  0.00  0.00    +0.000 A 
ATOM      9  C   UNL     1       5.629   4.858  15.716  0.00  0.00    +0.000 A 
ATOM     10 CL   UNL     1       6.692   4.432  14.433  0.00  0.00    +0.000 Cl
ATOM     11  C   UNL     1       5.193   3.882  16.611  0.00  0.00    +0.000 A 
ATOM     12  C   UNL     1       4.326   4.215  17.669  0.00  0.00    +0.000 A 
ATOM     13  S   UNL     1       3.899   2.858  18.760  0.00  0.00    +0.000 S 
ATOM     14  C   UNL     1       2.683   3.553  19.916  0.00  0.00    +0.000 C 
ENDROOT
BRANCH   1  16
ATOM     15  N   UNL     1       1.308   9.228  21.519  0.00  0.00    +0.000 N 
ATOM     16  C   UNL     1       0.663   8.044  21.217  0.00  0.00    +0.000 C 
ATOM     17  O   UNL     1      -0.507   7.852  21.534  0.00  0.00    +0.000 OA
ATOM     18  H   UNL     1       2.194   9.428  21.066  0.00  0.00    +0.000 HD
BRANCH  15  19
ATOM     19  C   UNL     1       0.631  10.307  22.194  0.00  0.00    +0.000 C 
BRANCH  19  20
ATOM     20  C   UNL     1       0.180  11.420  21.228  0.00  0.00    +0.000 C 
BRANCH  20  27
ATOM     21  C   UNL     1       2.429  12.478  18.346  0.00  0.00    +0.000 C 
ATOM     22  C   UNL     1       1.486  12.643  19.552  0.00  0.00    +0.000 C 
ATOM     23  C   UNL     1       0.502  13.807  19.316  0.00  0.00    +0.000 C 
ATOM     24  C   UNL     1      -0.564  13.465  18.277  0.00  0.00    +0.000 C 
ATOM     25  C   UNL     1      -1.222  12.121  18.572  0.00  0.00    +0.000 C 
ATOM     26  C   UNL     1      -0.188  11.023  18.832  0.00  0.00    +0.000 C 
ATOM     27  N   UNL     1       0.796  11.366  19.877  0.00  0.00    +0.000 NA
ENDBRANCH  20  27
ENDBRANCH  19  20
ENDBRANCH  15  19
ENDBRANCH   1  16
TORSDOF 4
ENDMDL
MODEL 6
REMARK VINA RESULT:      -7.7      2.758      3.938
REMARK  Name = 
REMARK  5 active torsions:
REMARK  status: ('A' for Active; 'I' for Inactive)
REMARK    1  A    between atoms: C_1  and  C_2
REMARK    2  A    between atoms: N_7  and  C_8
REMARK    3  A    between atoms: C_8  and  C_9
REMARK    4  A    between atoms: C_9  and  N_10
REMARK    5  A    between atoms: C_11  and  C_13
REMARK                            x       y       z     vdW  Elec       q    Type
REMARK                         _______ _______ _______ _____ _____    ______ ____
ROOT
ATOM      1  C   UNL     1       0.797   9.497  18.716  0.00  0.00    +0.000 A 
ATOM      2  C   UNL     1      -0.331   9.852  18.002  0.00  0.00    +0.000 A 
ATOM      3  C   UNL     1      -1.235  10.682  18.752  0.00  0.00    +0.000 A 
ATOM      4  C   UNL     1      -0.732  10.962  20.010  0.00  0.00    +0.000 A 
ATOM      5  S   UNL     1       0.779  10.203  20.263  0.00  0.00    +0.000 S 
ATOM      6  C   UNL     1      -1.372  11.785  21.049  0.00  0.00    +0.000 A 
ATOM      7  C   UNL     1      -0.771  11.989  22.312  0.00  0.00    +0.000 A 
ATOM      8  C   UNL     1      -1.388  12.765  23.292  0.00  0.00    +0.000 A 
ATOM      9  C   UNL     1      -2.618  13.347  23.029  0.00  0.00    +0.000 A 
ATOM     10 CL   UNL     1      -3.387  14.302  24.236  0.00  0.00    +0.000 Cl
ATOM     11  C   UNL     1      -3.230  13.168  21.790  0.00  0.00    +0.000 A 
ATOM     12  C   UNL     1      -2.612  12.393  20.790  0.00  0.00    +0.000 A 
ATOM     13  S   UNL     1      -3.504  12.302  19.237  0.00  0.00    +0.000 S 
ATOM     14  C   UNL     1      -2.548  11.142  18.217  0.00  0.00    +0.000 C 
ENDROOT
BRANCH   1  16
ATOM     15  N   UNL     1       2.172   7.563  19.070  0.00  0.00    +0.000 N 
ATOM     16  C   UNL     1       1.896   8.654  18.269  0.00  0.00    +0.000 C 
ATOM     17  O   UNL     1       2.538   8.880  17.248  0.00  0.00    +0.000 OA
ATOM     18  H   UNL     1       1.498   7.298  19.780  0.00  0.00    +0.000 HD
BRANCH  15  19
ATOM     19  C   UNL     1       3.209   6.619  18.731  0.00  0.00    +0.000 C 
BRANCH  19  20
ATOM     20  C   UNL     1       2.650   5.325  18.109  0.00  0.00    +0.000 C 
BRANCH  20  27
ATOM     21  C   UNL     1       2.246   3.286  21.297  0.00  0.00    +0.000 C 
ATOM     22  C   UNL     1       2.970   3.933  20.102  0.00  0.00    +0.000 C 
ATOM     23  C   UNL     1       4.037   2.978  19.532  0.00  0.00    +0.000 C 
ATOM     24  C   UNL     1       3.422   1.803  18.776  0.00  0.00    +0.000 C 
ATOM     25  C   UNL     1       2.379   2.272  17.767  0.00  0.00    +0.000 C 
ATOM     26  C   UNL     1       1.375   3.244  18.392  0.00  0.00    +0.000 C 
ATOM     27  N   UNL     1       2.003   4.394  19.070  0.00  0.00    +0.000 NA
ENDBRANCH  20  27
ENDBRANCH  19  20
ENDBRANCH  15  19
ENDBRANCH   1  16
TORSDOF 4
ENDMDL
MODEL 7
REMARK VINA RESULT:      -7.6      0.598      1.125
REMARK  Name = 
REMARK  5 active torsions:
REMARK  status: ('A' for Active; 'I' for Inactive)
REMARK    1  A    between atoms: C_1  and  C_2
REMARK    2  A    between atoms: N_7  and  C_8
REMARK    3  A    between atoms: C_8  and  C_9
REMARK    4  A    between atoms: C_9  and  N_10
REMARK    5  A    between atoms: C_11  and  C_13
REMARK                            x       y       z     vdW  Elec       q    Type
REMARK                         _______ _______ _______ _____ _____    ______ ____
ROOT
ATOM      1  C   UNL     1       2.164   6.903  19.589  0.00  0.00    +0.000 A 
ATOM      2  C   UNL     1       2.232   7.939  18.677  0.00  0.00    +0.000 A 
ATOM      3  C   UNL     1       1.540   9.121  19.113  0.00  0.00    +0.000 A 
ATOM      4  C   UNL     1       1.000   8.949  20.376  0.00  0.00    +0.000 A 
ATOM      5  S   UNL     1       1.309   7.380  20.979  0.00  0.00    +0.000 S 
ATOM      6  C   UNL     1       0.234   9.941  21.146  0.00  0.00    +0.000 A 
ATOM      7  C   UNL     1      -0.288   9.648  22.426  0.00  0.00    +0.000 A 
ATOM      8  C   UNL     1      -1.019  10.592  23.146  0.00  0.00    +0.000 A 
ATOM      9  C   UNL     1      -1.244  11.845  22.598  0.00  0.00    +0.000 A 
ATOM     10 CL   UNL     1      -2.147  13.013  23.479  0.00  0.00    +0.000 Cl
ATOM     11  C   UNL     1      -0.734  12.164  21.341  0.00  0.00    +0.000 A 
ATOM     12  C   UNL     1       0.012  11.221  20.609  0.00  0.00    +0.000 A 
ATOM     13  S   UNL     1       0.638  11.802  19.032  0.00  0.00    +0.000 S 
ATOM     14  C   UNL     1       1.420  10.348  18.275  0.00  0.00    +0.000 C 
ENDROOT
BRANCH   1  16
ATOM     15  N   UNL     1       2.430   4.909  18.280  0.00  0.00    +0.000 N 
ATOM     16  C   UNL     1       2.734   5.570  19.455  0.00  0.00    +0.000 C 
ATOM     17  O   UNL     1       3.442   5.057  20.315  0.00  0.00    +0.000 OA
ATOM     18  H   UNL     1       2.020   5.438  17.517  0.00  0.00    +0.000 HD
BRANCH  15  19
ATOM     19  C   UNL     1       2.954   3.598  17.993  0.00  0.00    +0.000 C 
BRANCH  19  20
ATOM     20  C   UNL     1       4.315   3.649  17.271  0.00  0.00    +0.000 C 
BRANCH  20  27
ATOM     21  C   UNL     1       5.212   6.764  15.277  0.00  0.00    +0.000 C 
ATOM     22  C   UNL     1       5.030   5.264  15.570  0.00  0.00    +0.000 C 
ATOM     23  C   UNL     1       6.196   4.450  14.973  0.00  0.00    +0.000 C 
ATOM     24  C   UNL     1       7.498   4.645  15.747  0.00  0.00    +0.000 C 
ATOM     25  C   UNL     1       7.290   4.461  17.246  0.00  0.00    +0.000 C 
ATOM     26  C   UNL     1       6.096   5.267  17.762  0.00  0.00    +0.000 C 
ATOM     27  N   UNL     1       4.844   5.016  17.025  0.00  0.00    +0.000 NA
ENDBRANCH  20  27
ENDBRANCH  19  20
ENDBRANCH  15  19
ENDBRANCH   1  16
TORSDOF 4
ENDMDL
MODEL 8
REMARK VINA RESULT:      -7.6      2.767      4.457
REMARK  Name = 
REMARK  5 active torsions:
REMARK  status: ('A' for Active; 'I' for Inactive)
REMARK    1  A    between atoms: C_1  and  C_2
REMARK    2  A    between atoms: N_7  and  C_8
REMARK    3  A    between atoms: C_8  and  C_9
REMARK    4  A    between atoms: C_9  and  N_10
REMARK    5  A    between atoms: C_11  and  C_13
REMARK                            x       y       z     vdW  Elec       q    Type
REMARK                         _______ _______ _______ _____ _____    ______ ____
ROOT
ATOM      1  C   UNL     1       1.334   9.251  19.320  0.00  0.00    +0.000 A 
ATOM      2  C   UNL     1       0.771   9.002  20.557  0.00  0.00    +0.000 A 
ATOM      3  C   UNL     1       0.105  10.147  21.115  0.00  0.00    +0.000 A 
ATOM      4  C   UNL     1       0.154  11.227  20.250  0.00  0.00    +0.000 A 
ATOM      5  S   UNL     1       1.015  10.846  18.823  0.00  0.00    +0.000 S 
ATOM      6  C   UNL     1      -0.425  12.561  20.476  0.00  0.00    +0.000 A 
ATOM      7  C   UNL     1      -0.298  13.598  19.525  0.00  0.00    +0.000 A 
ATOM      8  C   UNL     1      -0.844  14.861  19.751  0.00  0.00    +0.000 A 
ATOM      9  C   UNL     1      -1.524  15.110  20.933  0.00  0.00    +0.000 A 
ATOM     10 CL   UNL     1      -2.197  16.667  21.219  0.00  0.00    +0.000 Cl
ATOM     11  C   UNL     1      -1.671  14.103  21.885  0.00  0.00    +0.000 A 
ATOM     12  C   UNL     1      -1.130  12.822  21.664  0.00  0.00    +0.000 A 
ATOM     13  S   UNL     1      -1.448  11.626  22.961  0.00  0.00    +0.000 S 
ATOM     14  C   UNL     1      -0.524  10.143  22.466  0.00  0.00    +0.000 C 
ENDROOT
BRANCH   1  16
ATOM     15  N   UNL     1       2.403   7.116  19.085  0.00  0.00    +0.000 N 
ATOM     16  C   UNL     1       2.093   8.325  18.492  0.00  0.00    +0.000 C 
ATOM     17  O   UNL     1       2.434   8.583  17.342  0.00  0.00    +0.000 OA
ATOM     18  H   UNL     1       1.933   6.863  19.948  0.00  0.00    +0.000 HD
BRANCH  15  19
ATOM     19  C   UNL     1       3.118   6.087  18.372  0.00  0.00    +0.000 C 
BRANCH  19  20
ATOM     20  C   UNL     1       3.571   4.936  19.292  0.00  0.00    +0.000 C 
BRANCH  20  27
ATOM     21  C   UNL     1       0.754   2.501  18.503  0.00  0.00    +0.000 C 
ATOM     22  C   UNL     1       1.446   3.722  19.135  0.00  0.00    +0.000 C 
ATOM     23  C   UNL     1       0.974   3.921  20.590  0.00  0.00    +0.000 C 
ATOM     24  C   UNL     1       1.541   2.863  21.534  0.00  0.00    +0.000 C 
ATOM     25  C   UNL     1       3.049   2.713  21.365  0.00  0.00    +0.000 C 
ATOM     26  C   UNL     1       3.448   2.558  19.896  0.00  0.00    +0.000 C 
ATOM     27  N   UNL     1       2.926   3.625  19.021  0.00  0.00    +0.000 NA
ENDBRANCH  20  27
ENDBRANCH  19  20
ENDBRANCH  15  19
ENDBRANCH   1  16
TORSDOF 4
ENDMDL
MODEL 9
REMARK VINA RESULT:      -7.6      2.858      4.415
REMARK  Name = 
REMARK  5 active torsions:
REMARK  status: ('A' for Active; 'I' for Inactive)
REMARK    1  A    between atoms: C_1  and  C_2
REMARK    2  A    between atoms: N_7  and  C_8
REMARK    3  A    between atoms: C_8  and  C_9
REMARK    4  A    between atoms: C_9  and  N_10
REMARK    5  A    between atoms: C_11  and  C_13
REMARK                            x       y       z     vdW  Elec       q    Type
REMARK                         _______ _______ _______ _____ _____    ______ ____
ROOT
ATOM      1  C   UNL     1       1.069   9.723  19.316  0.00  0.00    +0.000 A 
ATOM      2  C   UNL     1       0.520   9.389  20.539  0.00  0.00    +0.000 A 
ATOM      3  C   UNL     1      -0.157  10.488  21.173  0.00  0.00    +0.000 A 
ATOM      4  C   UNL     1      -0.131  11.620  20.377  0.00  0.00    +0.000 A 
ATOM      5  S   UNL     1       0.724  11.341  18.923  0.00  0.00    +0.000 S 
ATOM      6  C   UNL     1      -0.726  12.928  20.690  0.00  0.00    +0.000 A 
ATOM      7  C   UNL     1      -0.621  14.025  19.804  0.00  0.00    +0.000 A 
ATOM      8  C   UNL     1      -1.183  15.263  20.112  0.00  0.00    +0.000 A 
ATOM      9  C   UNL     1      -1.856  15.428  21.312  0.00  0.00    +0.000 A 
ATOM     10 CL   UNL     1      -2.549  16.954  21.700  0.00  0.00    +0.000 Cl
ATOM     11  C   UNL     1      -1.982  14.362  22.200  0.00  0.00    +0.000 A 
ATOM     12  C   UNL     1      -1.425  13.105  21.896  0.00  0.00    +0.000 A 
ATOM     13  S   UNL     1      -1.716  11.827  23.118  0.00  0.00    +0.000 S 
ATOM     14  C   UNL     1      -0.776  10.390  22.525  0.00  0.00    +0.000 C 
ENDROOT
BRANCH   1  16
ATOM     15  N   UNL     1       2.289   7.683  18.987  0.00  0.00    +0.000 N 
ATOM     16  C   UNL     1       1.834   8.861  18.427  0.00  0.00    +0.000 C 
ATOM     17  O   UNL     1       2.061   9.144  17.255  0.00  0.00    +0.000 OA
ATOM     18  H   UNL     1       1.911   7.393  19.883  0.00  0.00    +0.000 HD
BRANCH  15  19
ATOM     19  C   UNL     1       3.027   6.715  18.216  0.00  0.00    +0.000 C 
BRANCH  19  20
ATOM     20  C   UNL     1       2.275   5.378  18.068  0.00  0.00    +0.000 C 
BRANCH  20  27
ATOM     21  C   UNL     1       3.187   1.705  18.476  0.00  0.00    +0.000 C 
ATOM     22  C   UNL     1       2.285   2.933  18.254  0.00  0.00    +0.000 C 
ATOM     23  C   UNL     1       0.947   2.766  19.003  0.00  0.00    +0.000 C 
ATOM     24  C   UNL     1       1.106   2.909  20.515  0.00  0.00    +0.000 C 
ATOM     25  C   UNL     1       1.891   4.165  20.878  0.00  0.00    +0.000 C 
ATOM     26  C   UNL     1       3.186   4.285  20.071  0.00  0.00    +0.000 C 
ATOM     27  N   UNL     1       2.989   4.193  18.612  0.00  0.00    +0.000 NA
ENDBRANCH  20  27
ENDBRANCH  19  20
ENDBRANCH  15  19
ENDBRANCH   1  16
TORSDOF 4
ENDMDL
