MODEL 1
REMARK VINA RESULT:      -9.4      0.000      0.000
REMARK  Name = 
REMARK  5 active torsions:
REMARK  status: ('A' for Active; 'I' for Inactive)
REMARK    1  A    between atoms: C_2  and  C_16
REMARK    2  A    between atoms: N_3  and  C_4
REMARK    3  A    between atoms: C_7  and  C_8
REMARK    4  A    between atoms: C_20  and  C_21
REMARK    5  A    between atoms: C_21  and  C_22
REMARK                            x       y       z     vdW  Elec       q    Type
REMARK                         _______ _______ _______ _____ _____    ______ ____
ROOT
ATOM      1  C   UNL     1       1.829   5.492  20.333  0.00  0.00    +0.000 A 
ATOM      2  C   UNL     1       0.845   4.540  20.608  0.00  0.00    +0.000 A 
ATOM      3  C   UNL     1       1.133   3.185  20.432  0.00  0.00    +0.000 A 
ATOM      4  C   UNL     1       2.399   2.790  19.987  0.00  0.00    +0.000 A 
ATOM      5  C   UNL     1       3.390   3.739  19.698  0.00  0.00    +0.000 A 
ATOM      6  C   UNL     1       3.092   5.094  19.872  0.00  0.00    +0.000 A 
ENDROOT
BRANCH   1   8
ATOM      7  O   UNL     1       2.379   7.701  19.923  0.00  0.00    +0.000 OA
ATOM      8  C   UNL     1       1.581   6.946  20.469  0.00  0.00    +0.000 C 
ATOM      9  N   UNL     1       0.504   7.307  21.263  0.00  0.00    +0.000 N 
ATOM     10  H   UNL     1       0.063   6.582  21.814  0.00  0.00    +0.000 HD
BRANCH   9  11
ATOM     11  C   UNL     1       0.106   8.635  21.531  0.00  0.00    +0.000 A 
ATOM     12  C   UNL     1       0.039   9.607  20.540  0.00  0.00    +0.000 A 
ATOM     13  C   UNL     1      -0.289  10.927  20.852  0.00  0.00    +0.000 A 
ATOM     14  C   UNL     1      -0.595  11.320  22.163  0.00  0.00    +0.000 A 
ATOM     15  C   UNL     1      -0.565  10.322  23.152  0.00  0.00    +0.000 A 
ATOM     16  C   UNL     1      -0.223   8.992  22.840  0.00  0.00    +0.000 A 
BRANCH  14  17
ATOM     17  C   UNL     1      -0.908  12.739  22.458  0.00  0.00    +0.000 A 
ATOM     18  C   UNL     1      -0.029  13.767  22.064  0.00  0.00    +0.000 A 
ATOM     19  C   UNL     1      -0.257  15.101  22.410  0.00  0.00    +0.000 A 
ATOM     20  C   UNL     1      -1.388  15.443  23.141  0.00  0.00    +0.000 A 
ATOM     21  C   UNL     1      -2.291  14.452  23.518  0.00  0.00    +0.000 A 
ATOM     22  C   UNL     1      -2.050  13.114  23.183  0.00  0.00    +0.000 A 
ENDBRANCH  14  17
ENDBRANCH   9  11
ENDBRANCH   1   8
BRANCH   5  23
ATOM     23  C   UNL     1       4.777   3.309  19.276  0.00  0.00    +0.000 C 
BRANCH  23  24
ATOM     24  C   UNL     1       5.209   4.003  17.983  0.00  0.00    +0.000 A 
ATOM     25  N   UNL     1       4.612   3.615  16.895  0.00  0.00    +0.000 NA
ATOM     26  N   UNL     1       4.996   4.186  15.726  0.00  0.00    +0.000 N 
ATOM     27  C   UNL     1       5.967   5.138  15.579  0.00  0.00    +0.000 A 
ATOM     28  O   UNL     1       6.298   5.571  14.481  0.00  0.00    +0.000 OA
ATOM     29  C   UNL     1       6.586   5.628  16.836  0.00  0.00    +0.000 A 
ATOM     30  C   UNL     1       6.251   5.078  18.018  0.00  0.00    +0.000 A 
ATOM     31  C   UNL     1       6.866   5.530  19.313  0.00  0.00    +0.000 C 
ATOM     32  C   UNL     1       8.076   6.453  19.132  0.00  0.00    +0.000 C 
ATOM     33  C   UNL     1       7.834   7.472  18.025  0.00  0.00    +0.000 C 
ATOM     34  C   UNL     1       7.559   6.766  16.697  0.00  0.00    +0.000 C 
ATOM     35  H   UNL     1       4.560   3.835  14.881  0.00  0.00    +0.000 HD
ENDBRANCH  23  24
ENDBRANCH   5  23
TORSDOF 5
ENDMDL
MODEL 2
REMARK VINA RESULT:      -9.4      3.702     10.570
REMARK  Name = 
REMARK  5 active torsions:
REMARK  status: ('A' for Active; 'I' for Inactive)
REMARK    1  A    between atoms: C_2  and  C_16
REMARK    2  A    between atoms: N_3  and  C_4
REMARK    3  A    between atoms: C_7  and  C_8
REMARK    4  A    between atoms: C_20  and  C_21
REMARK    5  A    between atoms: C_21  and  C_22
REMARK                            x       y       z     vdW  Elec       q    Type
REMARK                         _______ _______ _______ _____ _____    ______ ____
ROOT
ATOM      1  C   UNL     1      -0.130  10.211  21.785  0.00  0.00    +0.000 A 
ATOM      2  C   UNL     1      -0.645  10.112  23.080  0.00  0.00    +0.000 A 
ATOM      3  C   UNL     1      -1.626  11.013  23.499  0.00  0.00    +0.000 A 
ATOM      4  C   UNL     1      -2.086  12.003  22.626  0.00  0.00    +0.000 A 
ATOM      5  C   UNL     1      -1.567  12.118  21.328  0.00  0.00    +0.000 A 
ATOM      6  C   UNL     1      -0.582  11.215  20.917  0.00  0.00    +0.000 A 
ENDROOT
BRANCH   1   8
ATOM      7  O   UNL     1       1.780   8.944  22.096  0.00  0.00    +0.000 OA
ATOM      8  C   UNL     1       0.933   9.308  21.286  0.00  0.00    +0.000 C 
ATOM      9  N   UNL     1       0.900   9.020  19.931  0.00  0.00    +0.000 N 
ATOM     10  H   UNL     1       0.265   9.556  19.353  0.00  0.00    +0.000 HD
BRANCH   9  11
ATOM     11  C   UNL     1       1.826   8.194  19.257  0.00  0.00    +0.000 A 
ATOM     12  C   UNL     1       2.221   6.958  19.754  0.00  0.00    +0.000 A 
ATOM     13  C   UNL     1       3.191   6.199  19.099  0.00  0.00    +0.000 A 
ATOM     14  C   UNL     1       3.782   6.632  17.902  0.00  0.00    +0.000 A 
ATOM     15  C   UNL     1       3.346   7.864  17.386  0.00  0.00    +0.000 A 
ATOM     16  C   UNL     1       2.375   8.636  18.052  0.00  0.00    +0.000 A 
BRANCH  14  17
ATOM     17  C   UNL     1       4.832   5.811  17.254  0.00  0.00    +0.000 A 
ATOM     18  C   UNL     1       6.155   6.285  17.149  0.00  0.00    +0.000 A 
ATOM     19  C   UNL     1       7.139   5.571  16.463  0.00  0.00    +0.000 A 
ATOM     20  C   UNL     1       6.828   4.347  15.883  0.00  0.00    +0.000 A 
ATOM     21  C   UNL     1       5.537   3.838  15.997  0.00  0.00    +0.000 A 
ATOM     22  C   UNL     1       4.549   4.566  16.671  0.00  0.00    +0.000 A 
ENDBRANCH  14  17
ENDBRANCH   9  11
ENDBRANCH   1   8
BRANCH   5  23
ATOM     23  C   UNL     1      -2.109  13.150  20.363  0.00  0.00    +0.000 C 
BRANCH  23  24
ATOM     24  C   UNL     1      -2.799  12.491  19.168  0.00  0.00    +0.000 A 
ATOM     25  N   UNL     1      -2.042  12.214  18.147  0.00  0.00    +0.000 NA
ATOM     26  N   UNL     1      -2.630  11.660  17.057  0.00  0.00    +0.000 N 
ATOM     27  C   UNL     1      -3.959  11.366  16.925  0.00  0.00    +0.000 A 
ATOM     28  O   UNL     1      -4.429  10.914  15.886  0.00  0.00    +0.000 OA
ATOM     29  C   UNL     1      -4.798  11.614  18.124  0.00  0.00    +0.000 A 
ATOM     30  C   UNL     1      -4.263  12.181  19.221  0.00  0.00    +0.000 A 
ATOM     31  C   UNL     1      -5.079  12.467  20.451  0.00  0.00    +0.000 C 
ATOM     32  C   UNL     1      -6.589  12.315  20.238  0.00  0.00    +0.000 C 
ATOM     33  C   UNL     1      -6.908  11.082  19.401  0.00  0.00    +0.000 C 
ATOM     34  C   UNL     1      -6.232  11.174  18.033  0.00  0.00    +0.000 C 
ATOM     35  H   UNL     1      -2.037  11.500  16.250  0.00  0.00    +0.000 HD
ENDBRANCH  23  24
ENDBRANCH   5  23
TORSDOF 5
ENDMDL
MODEL 3
REMARK VINA RESULT:      -9.2      3.792     11.544
REMARK  Name = 
REMARK  5 active torsions:
REMARK  status: ('A' for Active; 'I' for Inactive)
REMARK    1  A    between atoms: C_2  and  C_16
REMARK    2  A    between atoms: N_3  and  C_4
REMARK    3  A    between atoms: C_7  and  C_8
REMARK    4  A    between atoms: C_20  and  C_21
REMARK    5  A    between atoms: C_21  and  C_22
REMARK                            x       y       z     vdW  Elec       q    Type
REMARK                         _______ _______ _______ _____ _____    ______ ____
ROOT
ATOM      1  C   UNL     1      -0.413  10.339  20.973  0.00  0.00    +0.000 A 
ATOM      2  C   UNL     1      -0.317   9.954  22.312  0.00  0.00    +0.000 A 
ATOM      3  C   UNL     1      -0.997  10.688  23.287  0.00  0.00    +0.000 A 
ATOM      4  C   UNL     1      -1.767  11.796  22.919  0.00  0.00    +0.000 A 
ATOM      5  C   UNL     1      -1.860  12.196  21.579  0.00  0.00    +0.000 A 
ATOM      6  C   UNL     1      -1.173  11.460  20.610  0.00  0.00    +0.000 A 
ENDROOT
BRANCH   1   8
ATOM      7  O   UNL     1      -0.016   9.888  18.739  0.00  0.00    +0.000 OA
ATOM      8  C   UNL     1       0.306   9.624  19.893  0.00  0.00    +0.000 C 
ATOM      9  N   UNL     1       1.226   8.672  20.303  0.00  0.00    +0.000 N 
ATOM     10  H   UNL     1       1.235   8.418  21.282  0.00  0.00    +0.000 HD
BRANCH   9  11
ATOM     11  C   UNL     1       2.004   7.874  19.436  0.00  0.00    +0.000 A 
ATOM     12  C   UNL     1       2.316   6.550  19.720  0.00  0.00    +0.000 A 
ATOM     13  C   UNL     1       3.147   5.812  18.876  0.00  0.00    +0.000 A 
ATOM     14  C   UNL     1       3.672   6.359  17.696  0.00  0.00    +0.000 A 
ATOM     15  C   UNL     1       3.318   7.685  17.395  0.00  0.00    +0.000 A 
ATOM     16  C   UNL     1       2.489   8.435  18.252  0.00  0.00    +0.000 A 
BRANCH  14  17
ATOM     17  C   UNL     1       4.576   5.552  16.842  0.00  0.00    +0.000 A 
ATOM     18  C   UNL     1       5.321   6.155  15.809  0.00  0.00    +0.000 A 
ATOM     19  C   UNL     1       6.107   5.402  14.935  0.00  0.00    +0.000 A 
ATOM     20  C   UNL     1       6.188   4.024  15.089  0.00  0.00    +0.000 A 
ATOM     21  C   UNL     1       5.487   3.403  16.120  0.00  0.00    +0.000 A 
ATOM     22  C   UNL     1       4.686   4.159  16.984  0.00  0.00    +0.000 A 
ENDBRANCH  14  17
ENDBRANCH   9  11
ENDBRANCH   1   8
BRANCH   5  23
ATOM     23  C   UNL     1      -2.742  13.357  21.174  0.00  0.00    +0.000 C 
BRANCH  23  24
ATOM     24  C   UNL     1      -4.126  12.881  20.730  0.00  0.00    +0.000 A 
ATOM     25  N   UNL     1      -4.234  12.498  19.492  0.00  0.00    +0.000 NA
ATOM     26  N   UNL     1      -5.456  12.101  19.057  0.00  0.00    +0.000 N 
ATOM     27  C   UNL     1      -6.601  12.071  19.803  0.00  0.00    +0.000 A 
ATOM     28  O   UNL     1      -7.685  11.750  19.327  0.00  0.00    +0.000 OA
ATOM     29  C   UNL     1      -6.450  12.436  21.234  0.00  0.00    +0.000 A 
ATOM     30  C   UNL     1      -5.261  12.854  21.706  0.00  0.00    +0.000 A 
ATOM     31  C   UNL     1      -5.066  13.250  23.143  0.00  0.00    +0.000 C 
ATOM     32  C   UNL     1      -6.377  13.396  23.925  0.00  0.00    +0.000 C 
ATOM     33  C   UNL     1      -7.351  12.275  23.586  0.00  0.00    +0.000 C 
ATOM     34  C   UNL     1      -7.675  12.280  22.092  0.00  0.00    +0.000 C 
ATOM     35  H   UNL     1      -5.535  11.858  18.076  0.00  0.00    +0.000 HD
ENDBRANCH  23  24
ENDBRANCH   5  23
TORSDOF 5
ENDMDL
MODEL 4
REMARK VINA RESULT:      -9.2      3.867     10.450
REMARK  Name = 
REMARK  5 active torsions:
REMARK  status: ('A' for Active; 'I' for Inactive)
REMARK    1  A    between atoms: C_2  and  C_16
REMARK    2  A    between atoms: N_3  and  C_4
REMARK    3  A    between atoms: C_7  and  C_8
REMARK    4  A    between atoms: C_20  and  C_21
REMARK    5  A    between atoms: C_21  and  C_22
REMARK                            x       y       z     vdW  Elec       q    Type
REMARK                         _______ _______ _______ _____ _____    ______ ____
ROOT
ATOM      1  C   UNL     1      -0.086   9.917  21.638  0.00  0.00    +0.000 A 
ATOM      2  C   UNL     1      -0.545   9.923  22.958  0.00  0.00    +0.000 A 
ATOM      3  C   UNL     1      -1.433  10.919  23.371  0.00  0.00    +0.000 A 
ATOM      4  C   UNL     1      -1.856  11.899  22.468  0.00  0.00    +0.000 A 
ATOM      5  C   UNL     1      -1.392  11.908  21.145  0.00  0.00    +0.000 A 
ATOM      6  C   UNL     1      -0.500  10.911  20.740  0.00  0.00    +0.000 A 
ENDROOT
BRANCH   1   8
ATOM      7  O   UNL     1       1.372   8.153  21.974  0.00  0.00    +0.000 OA
ATOM      8  C   UNL     1       0.879   8.908  21.143  0.00  0.00    +0.000 C 
ATOM      9  N   UNL     1       1.180   8.969  19.792  0.00  0.00    +0.000 N 
ATOM     10  H   UNL     1       0.854   9.774  19.273  0.00  0.00    +0.000 HD
BRANCH   9  11
ATOM     11  C   UNL     1       2.082   8.110  19.126  0.00  0.00    +0.000 A 
ATOM     12  C   UNL     1       2.448   6.871  19.638  0.00  0.00    +0.000 A 
ATOM     13  C   UNL     1       3.396   6.079  18.990  0.00  0.00    +0.000 A 
ATOM     14  C   UNL     1       3.992   6.481  17.785  0.00  0.00    +0.000 A 
ATOM     15  C   UNL     1       3.585   7.716  17.253  0.00  0.00    +0.000 A 
ATOM     16  C   UNL     1       2.638   8.521  17.912  0.00  0.00    +0.000 A 
BRANCH  14  17
ATOM     17  C   UNL     1       5.018   5.624  17.144  0.00  0.00    +0.000 A 
ATOM     18  C   UNL     1       6.240   5.354  17.793  0.00  0.00    +0.000 A 
ATOM     19  C   UNL     1       7.257   4.628  17.172  0.00  0.00    +0.000 A 
ATOM     20  C   UNL     1       7.067   4.129  15.889  0.00  0.00    +0.000 A 
ATOM     21  C   UNL     1       5.859   4.353  15.234  0.00  0.00    +0.000 A 
ATOM     22  C   UNL     1       4.848   5.097  15.854  0.00  0.00    +0.000 A 
ENDBRANCH  14  17
ENDBRANCH   9  11
ENDBRANCH   1   8
BRANCH   5  23
ATOM     23  C   UNL     1      -1.897  12.931  20.151  0.00  0.00    +0.000 C 
BRANCH  23  24
ATOM     24  C   UNL     1      -3.225  12.498  19.527  0.00  0.00    +0.000 A 
ATOM     25  N   UNL     1      -4.303  12.884  20.143  0.00  0.00    +0.000 NA
ATOM     26  N   UNL     1      -5.497  12.489  19.634  0.00  0.00    +0.000 N 
ATOM     27  C   UNL     1      -5.677  11.709  18.526  0.00  0.00    +0.000 A 
ATOM     28  O   UNL     1      -6.788  11.346  18.154  0.00  0.00    +0.000 OA
ATOM     29  C   UNL     1      -4.443  11.340  17.787  0.00  0.00    +0.000 A 
ATOM     30  C   UNL     1      -3.235  11.693  18.264  0.00  0.00    +0.000 A 
ATOM     31  C   UNL     1      -1.959  11.326  17.560  0.00  0.00    +0.000 C 
ATOM     32  C   UNL     1      -2.149  10.303  16.434  0.00  0.00    +0.000 C 
ATOM     33  C   UNL     1      -3.393  10.611  15.611  0.00  0.00    +0.000 C 
ATOM     34  C   UNL     1      -4.640  10.595  16.497  0.00  0.00    +0.000 C 
ATOM     35  H   UNL     1      -6.325  12.752  20.156  0.00  0.00    +0.000 HD
ENDBRANCH  23  24
ENDBRANCH   5  23
TORSDOF 5
ENDMDL
MODEL 5
REMARK VINA RESULT:      -9.1      3.949     10.463
REMARK  Name = 
REMARK  5 active torsions:
REMARK  status: ('A' for Active; 'I' for Inactive)
REMARK    1  A    between atoms: C_2  and  C_16
REMARK    2  A    between atoms: N_3  and  C_4
REMARK    3  A    between atoms: C_7  and  C_8
REMARK    4  A    between atoms: C_20  and  C_21
REMARK    5  A    between atoms: C_21  and  C_22
REMARK                            x       y       z     vdW  Elec       q    Type
REMARK                         _______ _______ _______ _____ _____    ______ ____
ROOT
ATOM      1  C   UNL     1      -0.365  10.571  21.865  0.00  0.00    +0.000 A 
ATOM      2  C   UNL     1      -0.812  10.515  23.188  0.00  0.00    +0.000 A 
ATOM      3  C   UNL     1      -1.814  11.389  23.611  0.00  0.00    +0.000 A 
ATOM      4  C   UNL     1      -2.365  12.311  22.715  0.00  0.00    +0.000 A 
ATOM      5  C   UNL     1      -1.915  12.382  21.388  0.00  0.00    +0.000 A 
ATOM      6  C   UNL     1      -0.908  11.507  20.973  0.00  0.00    +0.000 A 
ENDROOT
BRANCH   1   8
ATOM      7  O   UNL     1       1.612   9.404  22.144  0.00  0.00    +0.000 OA
ATOM      8  C   UNL     1       0.715   9.694  21.359  0.00  0.00    +0.000 C 
ATOM      9  N   UNL     1       0.638   9.345  20.020  0.00  0.00    +0.000 N 
ATOM     10  H   UNL     1      -0.044   9.826  19.448  0.00  0.00    +0.000 HD
BRANCH   9  11
ATOM     11  C   UNL     1       1.571   8.532  19.341  0.00  0.00    +0.000 A 
ATOM     12  C   UNL     1       2.088   8.869  18.095  0.00  0.00    +0.000 A 
ATOM     13  C   UNL     1       2.953   8.007  17.421  0.00  0.00    +0.000 A 
ATOM     14  C   UNL     1       3.363   6.788  17.981  0.00  0.00    +0.000 A 
ATOM     15  C   UNL     1       2.869   6.474  19.258  0.00  0.00    +0.000 A 
ATOM     16  C   UNL     1       1.986   7.337  19.934  0.00  0.00    +0.000 A 
BRANCH  14  17
ATOM     17  C   UNL     1       4.259   5.887  17.218  0.00  0.00    +0.000 A 
ATOM     18  C   UNL     1       4.156   4.487  17.350  0.00  0.00    +0.000 A 
ATOM     19  C   UNL     1       5.047   3.621  16.713  0.00  0.00    +0.000 A 
ATOM     20  C   UNL     1       6.054   4.136  15.906  0.00  0.00    +0.000 A 
ATOM     21  C   UNL     1       6.162   5.513  15.732  0.00  0.00    +0.000 A 
ATOM     22  C   UNL     1       5.277   6.379  16.385  0.00  0.00    +0.000 A 
ENDBRANCH  14  17
ENDBRANCH   9  11
ENDBRANCH   1   8
BRANCH   5  23
ATOM     23  C   UNL     1      -2.553  13.336  20.402  0.00  0.00    +0.000 C 
BRANCH  23  24
ATOM     24  C   UNL     1      -3.743  12.692  19.689  0.00  0.00    +0.000 A 
ATOM     25  N   UNL     1      -4.911  12.888  20.225  0.00  0.00    +0.000 NA
ATOM     26  N   UNL     1      -5.983  12.303  19.635  0.00  0.00    +0.000 N 
ATOM     27  C   UNL     1      -5.953  11.512  18.521  0.00  0.00    +0.000 A 
ATOM     28  O   UNL     1      -6.958  10.971  18.074  0.00  0.00    +0.000 OA
ATOM     29  C   UNL     1      -4.626  11.359  17.873  0.00  0.00    +0.000 A 
ATOM     30  C   UNL     1      -3.530  11.906  18.432  0.00  0.00    +0.000 A 
ATOM     31  C   UNL     1      -2.164  11.762  17.821  0.00  0.00    +0.000 C 
ATOM     32  C   UNL     1      -2.101  10.729  16.690  0.00  0.00    +0.000 C 
ATOM     33  C   UNL     1      -3.318  10.831  15.780  0.00  0.00    +0.000 C 
ATOM     34  C   UNL     1      -4.604  10.600  16.575  0.00  0.00    +0.000 C 
ATOM     35  H   UNL     1      -6.879  12.420  20.096  0.00  0.00    +0.000 HD
ENDBRANCH  23  24
ENDBRANCH   5  23
TORSDOF 5
ENDMDL
MODEL 6
REMARK VINA RESULT:      -9.0      2.166      2.720
REMARK  Name = 
REMARK  5 active torsions:
REMARK  status: ('A' for Active; 'I' for Inactive)
REMARK    1  A    between atoms: C_2  and  C_16
REMARK    2  A    between atoms: N_3  and  C_4
REMARK    3  A    between atoms: C_7  and  C_8
REMARK    4  A    between atoms: C_20  and  C_21
REMARK    5  A    between atoms: C_21  and  C_22
REMARK                            x       y       z     vdW  Elec       q    Type
REMARK                         _______ _______ _______ _____ _____    ______ ____
ROOT
ATOM      1  C   UNL     1       1.914   5.845  20.199  0.00  0.00    +0.000 A 
ATOM      2  C   UNL     1       0.859   4.990  20.526  0.00  0.00    +0.000 A 
ATOM      3  C   UNL     1       1.028   3.610  20.392  0.00  0.00    +0.000 A 
ATOM      4  C   UNL     1       2.245   3.094  19.935  0.00  0.00    +0.000 A 
ATOM      5  C   UNL     1       3.305   3.945  19.595  0.00  0.00    +0.000 A 
ATOM      6  C   UNL     1       3.128   5.325  19.727  0.00  0.00    +0.000 A 
ENDROOT
BRANCH   1   8
ATOM      7  O   UNL     1       1.803   7.811  21.412  0.00  0.00    +0.000 OA
ATOM      8  C   UNL     1       1.793   7.319  20.289  0.00  0.00    +0.000 C 
ATOM      9  N   UNL     1       1.608   7.987  19.089  0.00  0.00    +0.000 N 
ATOM     10  H   UNL     1       1.414   7.431  18.267  0.00  0.00    +0.000 HD
BRANCH   9  11
ATOM     11  C   UNL     1       1.458   9.385  18.958  0.00  0.00    +0.000 A 
ATOM     12  C   UNL     1       2.318  10.159  18.187  0.00  0.00    +0.000 A 
ATOM     13  C   UNL     1       2.183  11.546  18.137  0.00  0.00    +0.000 A 
ATOM     14  C   UNL     1       1.161  12.213  18.829  0.00  0.00    +0.000 A 
ATOM     15  C   UNL     1       0.271  11.419  19.572  0.00  0.00    +0.000 A 
ATOM     16  C   UNL     1       0.413  10.020  19.634  0.00  0.00    +0.000 A 
BRANCH  14  17
ATOM     17  C   UNL     1       1.071  13.691  18.774  0.00  0.00    +0.000 A 
ATOM     18  C   UNL     1      -0.175  14.342  18.876  0.00  0.00    +0.000 A 
ATOM     19  C   UNL     1      -0.295  15.726  18.735  0.00  0.00    +0.000 A 
ATOM     20  C   UNL     1       0.837  16.500  18.513  0.00  0.00    +0.000 A 
ATOM     21  C   UNL     1       2.086  15.888  18.439  0.00  0.00    +0.000 A 
ATOM     22  C   UNL     1       2.200  14.499  18.564  0.00  0.00    +0.000 A 
ENDBRANCH  14  17
ENDBRANCH   9  11
ENDBRANCH   1   8
BRANCH   5  23
ATOM     23  C   UNL     1       4.642   3.385  19.160  0.00  0.00    +0.000 C 
BRANCH  23  24
ATOM     24  C   UNL     1       5.148   4.067  17.888  0.00  0.00    +0.000 A 
ATOM     25  N   UNL     1       4.584   3.701  16.775  0.00  0.00    +0.000 NA
ATOM     26  N   UNL     1       5.034   4.262  15.624  0.00  0.00    +0.000 N 
ATOM     27  C   UNL     1       6.039   5.183  15.521  0.00  0.00    +0.000 A 
ATOM     28  O   UNL     1       6.429   5.608  14.439  0.00  0.00    +0.000 OA
ATOM     29  C   UNL     1       6.622   5.650  16.804  0.00  0.00    +0.000 A 
ATOM     30  C   UNL     1       6.222   5.108  17.969  0.00  0.00    +0.000 A 
ATOM     31  C   UNL     1       6.796   5.537  19.290  0.00  0.00    +0.000 C 
ATOM     32  C   UNL     1       8.042   6.422  19.161  0.00  0.00    +0.000 C 
ATOM     33  C   UNL     1       7.878   7.450  18.050  0.00  0.00    +0.000 C 
ATOM     34  C   UNL     1       7.636   6.756  16.709  0.00  0.00    +0.000 C 
ATOM     35  H   UNL     1       4.622   3.926  14.761  0.00  0.00    +0.000 HD
ENDBRANCH  23  24
ENDBRANCH   5  23
TORSDOF 5
ENDMDL
MODEL 7
REMARK VINA RESULT:      -9.0      1.307      2.173
REMARK  Name = 
REMARK  5 active torsions:
REMARK  status: ('A' for Active; 'I' for Inactive)
REMARK    1  A    between atoms: C_2  and  C_16
REMARK    2  A    between atoms: N_3  and  C_4
REMARK    3  A    between atoms: C_7  and  C_8
REMARK    4  A    between atoms: C_20  and  C_21
REMARK    5  A    between atoms: C_21  and  C_22
REMARK                            x       y       z     vdW  Elec       q    Type
REMARK                         _______ _______ _______ _____ _____    ______ ____
ROOT
ATOM      1  C   UNL     1       1.948   5.484  20.215  0.00  0.00    +0.000 A 
ATOM      2  C   UNL     1       0.936   4.540  20.403  0.00  0.00    +0.000 A 
ATOM      3  C   UNL     1       1.225   3.184  20.241  0.00  0.00    +0.000 A 
ATOM      4  C   UNL     1       2.518   2.779  19.896  0.00  0.00    +0.000 A 
ATOM      5  C   UNL     1       3.538   3.720  19.695  0.00  0.00    +0.000 A 
ATOM      6  C   UNL     1       3.240   5.076  19.854  0.00  0.00    +0.000 A 
ENDROOT
BRANCH   1   8
ATOM      7  O   UNL     1       2.472   7.688  19.746  0.00  0.00    +0.000 OA
ATOM      8  C   UNL     1       1.704   6.940  20.341  0.00  0.00    +0.000 C 
ATOM      9  N   UNL     1       0.666   7.311  21.181  0.00  0.00    +0.000 N 
ATOM     10  H   UNL     1       0.254   6.594  21.764  0.00  0.00    +0.000 HD
BRANCH   9  11
ATOM     11  C   UNL     1       0.279   8.642  21.448  0.00  0.00    +0.000 A 
ATOM     12  C   UNL     1       0.357   9.648  20.491  0.00  0.00    +0.000 A 
ATOM     13  C   UNL     1       0.034  10.967  20.810  0.00  0.00    +0.000 A 
ATOM     14  C   UNL     1      -0.413  11.328  22.090  0.00  0.00    +0.000 A 
ATOM     15  C   UNL     1      -0.528  10.298  23.039  0.00  0.00    +0.000 A 
ATOM     16  C   UNL     1      -0.191   8.969  22.722  0.00  0.00    +0.000 A 
BRANCH  14  17
ATOM     17  C   UNL     1      -0.716  12.746  22.396  0.00  0.00    +0.000 A 
ATOM     18  C   UNL     1      -1.850  13.092  23.159  0.00  0.00    +0.000 A 
ATOM     19  C   UNL     1      -2.207  14.423  23.382  0.00  0.00    +0.000 A 
ATOM     20  C   UNL     1      -1.420  15.446  22.867  0.00  0.00    +0.000 A 
ATOM     21  C   UNL     1      -0.277  15.135  22.136  0.00  0.00    +0.000 A 
ATOM     22  C   UNL     1       0.068  13.799  21.899  0.00  0.00    +0.000 A 
ENDBRANCH  14  17
ENDBRANCH   9  11
ENDBRANCH   1   8
BRANCH   5  23
ATOM     23  C   UNL     1       4.951   3.279  19.383  0.00  0.00    +0.000 C 
BRANCH  23  24
ATOM     24  C   UNL     1       5.758   4.403  18.731  0.00  0.00    +0.000 A 
ATOM     25  N   UNL     1       6.400   5.195  19.539  0.00  0.00    +0.000 NA
ATOM     26  N   UNL     1       7.098   6.222  18.995  0.00  0.00    +0.000 N 
ATOM     27  C   UNL     1       7.188   6.513  17.662  0.00  0.00    +0.000 A 
ATOM     28  O   UNL     1       7.796   7.493  17.245  0.00  0.00    +0.000 OA
ATOM     29  C   UNL     1       6.516   5.558  16.745  0.00  0.00    +0.000 A 
ATOM     30  C   UNL     1       5.795   4.535  17.240  0.00  0.00    +0.000 A 
ATOM     31  C   UNL     1       5.083   3.555  16.350  0.00  0.00    +0.000 C 
ATOM     32  C   UNL     1       5.027   3.986  14.880  0.00  0.00    +0.000 C 
ATOM     33  C   UNL     1       6.356   4.577  14.426  0.00  0.00    +0.000 C 
ATOM     34  C   UNL     1       6.718   5.796  15.274  0.00  0.00    +0.000 C 
ATOM     35  H   UNL     1       7.548   6.861  19.641  0.00  0.00    +0.000 HD
ENDBRANCH  23  24
ENDBRANCH   5  23
TORSDOF 5
ENDMDL
MODEL 8
REMARK VINA RESULT:      -8.9      2.563      3.272
REMARK  Name = 
REMARK  5 active torsions:
REMARK  status: ('A' for Active; 'I' for Inactive)
REMARK    1  A    between atoms: C_2  and  C_16
REMARK    2  A    between atoms: N_3  and  C_4
REMARK    3  A    between atoms: C_7  and  C_8
REMARK    4  A    between atoms: C_20  and  C_21
REMARK    5  A    between atoms: C_21  and  C_22
REMARK                            x       y       z     vdW  Elec       q    Type
REMARK                         _______ _______ _______ _____ _____    ______ ____
ROOT
ATOM      1  C   UNL     1       1.967   5.521  20.191  0.00  0.00    +0.000 A 
ATOM      2  C   UNL     1       0.923   4.634  20.467  0.00  0.00    +0.000 A 
ATOM      3  C   UNL     1       1.140   3.260  20.347  0.00  0.00    +0.000 A 
ATOM      4  C   UNL     1       2.394   2.781  19.955  0.00  0.00    +0.000 A 
ATOM      5  C   UNL     1       3.445   3.663  19.665  0.00  0.00    +0.000 A 
ATOM      6  C   UNL     1       3.218   5.037  19.783  0.00  0.00    +0.000 A 
ENDROOT
BRANCH   1   8
ATOM      7  O   UNL     1       1.654   7.476  21.387  0.00  0.00    +0.000 OA
ATOM      8  C   UNL     1       1.796   6.990  20.269  0.00  0.00    +0.000 C 
ATOM      9  N   UNL     1       1.744   7.661  19.058  0.00  0.00    +0.000 N 
ATOM     10  H   UNL     1       1.668   7.105  18.216  0.00  0.00    +0.000 HD
BRANCH   9  11
ATOM     11  C   UNL     1       1.573   9.055  18.913  0.00  0.00    +0.000 A 
ATOM     12  C   UNL     1       2.274   9.798  17.970  0.00  0.00    +0.000 A 
ATOM     13  C   UNL     1       2.135  11.184  17.902  0.00  0.00    +0.000 A 
ATOM     14  C   UNL     1       1.262  11.880  18.752  0.00  0.00    +0.000 A 
ATOM     15  C   UNL     1       0.526  11.116  19.673  0.00  0.00    +0.000 A 
ATOM     16  C   UNL     1       0.675   9.718  19.751  0.00  0.00    +0.000 A 
BRANCH  14  17
ATOM     17  C   UNL     1       1.165  13.356  18.668  0.00  0.00    +0.000 A 
ATOM     18  C   UNL     1       2.323  14.147  18.517  0.00  0.00    +0.000 A 
ATOM     19  C   UNL     1       2.266  15.542  18.528  0.00  0.00    +0.000 A 
ATOM     20  C   UNL     1       1.041  16.184  18.665  0.00  0.00    +0.000 A 
ATOM     21  C   UNL     1      -0.123  15.429  18.785  0.00  0.00    +0.000 A 
ATOM     22  C   UNL     1      -0.060  14.031  18.791  0.00  0.00    +0.000 A 
ENDBRANCH  14  17
ENDBRANCH   9  11
ENDBRANCH   1   8
BRANCH   5  23
ATOM     23  C   UNL     1       4.818   3.143  19.301  0.00  0.00    +0.000 C 
BRANCH  23  24
ATOM     24  C   UNL     1       5.737   4.271  18.830  0.00  0.00    +0.000 A 
ATOM     25  N   UNL     1       6.374   4.921  19.759  0.00  0.00    +0.000 NA
ATOM     26  N   UNL     1       7.173   5.949  19.377  0.00  0.00    +0.000 N 
ATOM     27  C   UNL     1       7.369   6.377  18.093  0.00  0.00    +0.000 A 
ATOM     28  O   UNL     1       8.066   7.351  17.828  0.00  0.00    +0.000 OA
ATOM     29  C   UNL     1       6.699   5.580  17.036  0.00  0.00    +0.000 A 
ATOM     30  C   UNL     1       5.882   4.563  17.368  0.00  0.00    +0.000 A 
ATOM     31  C   UNL     1       5.169   3.740  16.332  0.00  0.00    +0.000 C 
ATOM     32  C   UNL     1       5.239   4.332  14.920  0.00  0.00    +0.000 C 
ATOM     33  C   UNL     1       6.630   4.872  14.615  0.00  0.00    +0.000 C 
ATOM     34  C   UNL     1       7.014   5.961  15.616  0.00  0.00    +0.000 C 
ATOM     35  H   UNL     1       7.619   6.480  20.117  0.00  0.00    +0.000 HD
ENDBRANCH  23  24
ENDBRANCH   5  23
TORSDOF 5
ENDMDL
MODEL 9
REMARK VINA RESULT:      -8.9      2.095      2.624
REMARK  Name = 
REMARK  5 active torsions:
REMARK  status: ('A' for Active; 'I' for Inactive)
REMARK    1  A    between atoms: C_2  and  C_16
REMARK    2  A    between atoms: N_3  and  C_4
REMARK    3  A    between atoms: C_7  and  C_8
REMARK    4  A    between atoms: C_20  and  C_21
REMARK    5  A    between atoms: C_21  and  C_22
REMARK                            x       y       z     vdW  Elec       q    Type
REMARK                         _______ _______ _______ _____ _____    ______ ____
ROOT
ATOM      1  C   UNL     1       1.818   5.386  20.272  0.00  0.00    +0.000 A 
ATOM      2  C   UNL     1       0.838   4.442  20.588  0.00  0.00    +0.000 A 
ATOM      3  C   UNL     1       1.112   3.084  20.413  0.00  0.00    +0.000 A 
ATOM      4  C   UNL     1       2.359   2.678  19.928  0.00  0.00    +0.000 A 
ATOM      5  C   UNL     1       3.344   3.619  19.598  0.00  0.00    +0.000 A 
ATOM      6  C   UNL     1       3.061   4.976  19.770  0.00  0.00    +0.000 A 
ENDROOT
BRANCH   1   8
ATOM      7  O   UNL     1       1.072   7.232  21.449  0.00  0.00    +0.000 OA
ATOM      8  C   UNL     1       1.583   6.843  20.404  0.00  0.00    +0.000 C 
ATOM      9  N   UNL     1       1.902   7.613  19.297  0.00  0.00    +0.000 N 
ATOM     10  H   UNL     1       2.120   7.129  18.436  0.00  0.00    +0.000 HD
BRANCH   9  11
ATOM     11  C   UNL     1       1.742   9.013  19.213  0.00  0.00    +0.000 A 
ATOM     12  C   UNL     1       1.081   9.748  20.191  0.00  0.00    +0.000 A 
ATOM     13  C   UNL     1       0.878  11.120  20.041  0.00  0.00    +0.000 A 
ATOM     14  C   UNL     1       1.358  11.819  18.923  0.00  0.00    +0.000 A 
ATOM     15  C   UNL     1       2.061  11.075  17.960  0.00  0.00    +0.000 A 
ATOM     16  C   UNL     1       2.256   9.688  18.104  0.00  0.00    +0.000 A 
BRANCH  14  17
ATOM     17  C   UNL     1       1.094  13.271  18.787  0.00  0.00    +0.000 A 
ATOM     18  C   UNL     1       2.144  14.172  18.517  0.00  0.00    +0.000 A 
ATOM     19  C   UNL     1       1.935  15.552  18.476  0.00  0.00    +0.000 A 
ATOM     20  C   UNL     1       0.660  16.065  18.680  0.00  0.00    +0.000 A 
ATOM     21  C   UNL     1      -0.403  15.198  18.918  0.00  0.00    +0.000 A 
ATOM     22  C   UNL     1      -0.186  13.816  18.976  0.00  0.00    +0.000 A 
ENDBRANCH  14  17
ENDBRANCH   9  11
ENDBRANCH   1   8
BRANCH   5  23
ATOM     23  C   UNL     1       4.714   3.177  19.131  0.00  0.00    +0.000 C 
BRANCH  23  24
ATOM     24  C   UNL     1       5.157   3.947  17.886  0.00  0.00    +0.000 A 
ATOM     25  N   UNL     1       4.563   3.632  16.772  0.00  0.00    +0.000 NA
ATOM     26  N   UNL     1       4.956   4.273  15.643  0.00  0.00    +0.000 N 
ATOM     27  C   UNL     1       5.934   5.225  15.561  0.00  0.00    +0.000 A 
ATOM     28  O   UNL     1       6.274   5.724  14.494  0.00  0.00    +0.000 OA
ATOM     29  C   UNL     1       6.550   5.631  16.849  0.00  0.00    +0.000 A 
ATOM     30  C   UNL     1       6.206   5.011  17.992  0.00  0.00    +0.000 A 
ATOM     31  C   UNL     1       6.817   5.376  19.316  0.00  0.00    +0.000 C 
ATOM     32  C   UNL     1       8.035   6.300  19.198  0.00  0.00    +0.000 C 
ATOM     33  C   UNL     1       7.804   7.388  18.157  0.00  0.00    +0.000 C 
ATOM     34  C   UNL     1       7.532   6.768  16.786  0.00  0.00    +0.000 C 
ATOM     35  H   UNL     1       4.522   3.978  14.776  0.00  0.00    +0.000 HD
ENDBRANCH  23  24
ENDBRANCH   5  23
TORSDOF 5
ENDMDL
