MODEL 1
REMARK VINA RESULT:      -7.9      0.000      0.000
REMARK  Name = 
REMARK  5 active torsions:
REMARK  status: ('A' for Active; 'I' for Inactive)
REMARK    1  A    between atoms: C_5  and  O_6
REMARK    2  A    between atoms: O_6  and  C_7
REMARK    3  A    between atoms: C_7  and  C_8
REMARK    4  A    between atoms: C_8  and  C_9
REMARK    5  A    between atoms: C_9  and  N_10
REMARK                            x       y       z     vdW  Elec       q    Type
REMARK                         _______ _______ _______ _____ _____    ______ ____
ROOT
ATOM      1  N   UNL     1       3.625   6.302  17.851  0.00  0.00    +0.000 N 
ATOM      2  C   UNL     1       3.434   5.535  19.003  0.00  0.00    +0.000 A 
ATOM      3  C   UNL     1       4.600   4.813  19.133  0.00  0.00    +0.000 A 
ATOM      4  C   UNL     1       5.582   5.464  18.333  0.00  0.00    +0.000 A 
ATOM      5  C   UNL     1       6.919   5.167  18.060  0.00  0.00    +0.000 A 
ATOM      6 CL   UNL     1       8.023   5.528  19.306  0.00  0.00    +0.000 Cl
ATOM      7  C   UNL     1       7.274   4.667  16.828  0.00  0.00    +0.000 A 
ATOM      8  C   UNL     1       6.280   4.531  15.848  0.00  0.00    +0.000 A 
ATOM      9  C   UNL     1       5.011   5.127  16.006  0.00  0.00    +0.000 A 
ATOM     10  C   UNL     1       4.743   5.726  17.247  0.00  0.00    +0.000 A 
ATOM     11  C   UNL     1       4.590   3.444  19.703  0.00  0.00    +0.000 C 
ATOM     12  C   UNL     1       3.137   3.014  20.027  0.00  0.00    +0.000 C 
ATOM     13  N   UNL     1       2.218   4.052  20.544  0.00  0.00    +0.000 NA
ATOM     14  C   UNL     1       2.193   5.323  19.784  0.00  0.00    +0.000 C 
ATOM     15  H   UNL     1       2.485   4.258  21.505  0.00  0.00    +0.000 HD
ENDROOT
BRANCH   1  16
ATOM     16  C   UNL     1       3.320   7.732  17.811  0.00  0.00    +0.000 C 
BRANCH  16  17
ATOM     17  C   UNL     1       1.850   8.167  17.720  0.00  0.00    +0.000 C 
BRANCH  17  18
ATOM     18  C   UNL     1       1.489   9.322  18.651  0.00  0.00    +0.000 C 
BRANCH  18  19
ATOM     19  O   UNL     1       1.391   8.817  19.990  0.00  0.00    +0.000 OA
BRANCH  19  24
ATOM     20 CL   UNL     1      -2.159  12.027  23.431  0.00  0.00    +0.000 Cl
ATOM     21  C   UNL     1      -1.109  11.082  22.448  0.00  0.00    +0.000 A 
ATOM     22  C   UNL     1      -0.826  11.478  21.136  0.00  0.00    +0.000 A 
ATOM     23  C   UNL     1       0.023  10.689  20.341  0.00  0.00    +0.000 A 
ATOM     24  C   UNL     1       0.589   9.519  20.854  0.00  0.00    +0.000 A 
ATOM     25  C   UNL     1       0.290   9.132  22.167  0.00  0.00    +0.000 A 
ATOM     26  C   UNL     1      -0.543   9.906  22.957  0.00  0.00    +0.000 A 
ENDBRANCH  19  24
ENDBRANCH  18  19
ENDBRANCH  17  18
ENDBRANCH  16  17
ENDBRANCH   1  16
TORSDOF 5
ENDMDL
MODEL 2
REMARK VINA RESULT:      -7.8      2.148      2.588
REMARK  Name = 
REMARK  5 active torsions:
REMARK  status: ('A' for Active; 'I' for Inactive)
REMARK    1  A    between atoms: C_5  and  O_6
REMARK    2  A    between atoms: O_6  and  C_7
REMARK    3  A    between atoms: C_7  and  C_8
REMARK    4  A    between atoms: C_8  and  C_9
REMARK    5  A    between atoms: C_9  and  N_10
REMARK                            x       y       z     vdW  Elec       q    Type
REMARK                         _______ _______ _______ _____ _____    ______ ____
ROOT
ATOM      1  N   UNL     1       3.604   6.448  17.825  0.00  0.00    +0.000 N 
ATOM      2  C   UNL     1       3.416   5.613  18.929  0.00  0.00    +0.000 A 
ATOM      3  C   UNL     1       4.600   4.916  19.038  0.00  0.00    +0.000 A 
ATOM      4  C   UNL     1       5.576   5.638  18.292  0.00  0.00    +0.000 A 
ATOM      5  C   UNL     1       6.925   5.393  18.026  0.00  0.00    +0.000 A 
ATOM      6 CL   UNL     1       7.998   5.712  19.309  0.00  0.00    +0.000 Cl
ATOM      7  C   UNL     1       7.313   4.974  16.773  0.00  0.00    +0.000 A 
ATOM      8  C   UNL     1       6.338   4.867  15.771  0.00  0.00    +0.000 A 
ATOM      9  C   UNL     1       5.050   5.418  15.940  0.00  0.00    +0.000 A 
ATOM     10  C   UNL     1       4.747   5.938  17.208  0.00  0.00    +0.000 A 
ATOM     11  C   UNL     1       4.620   3.517  19.528  0.00  0.00    +0.000 C 
ATOM     12  C   UNL     1       3.174   3.030  19.803  0.00  0.00    +0.000 C 
ATOM     13  N   UNL     1       2.219   4.011  20.362  0.00  0.00    +0.000 NA
ATOM     14  C   UNL     1       2.170   5.323  19.676  0.00  0.00    +0.000 C 
ATOM     15  H   UNL     1       2.466   4.170  21.338  0.00  0.00    +0.000 HD
ENDROOT
BRANCH   1  16
ATOM     16  C   UNL     1       3.260   7.869  17.860  0.00  0.00    +0.000 C 
BRANCH  16  17
ATOM     17  C   UNL     1       1.777   8.267  17.814  0.00  0.00    +0.000 C 
BRANCH  17  18
ATOM     18  C   UNL     1       1.528   9.752  18.072  0.00  0.00    +0.000 C 
BRANCH  18  19
ATOM     19  O   UNL     1       0.450   9.879  19.009  0.00  0.00    +0.000 OA
BRANCH  19  24
ATOM     20 CL   UNL     1      -4.749  11.861  17.062  0.00  0.00    +0.000 Cl
ATOM     21  C   UNL     1      -3.236  11.258  17.620  0.00  0.00    +0.000 A 
ATOM     22  C   UNL     1      -2.665  11.766  18.792  0.00  0.00    +0.000 A 
ATOM     23  C   UNL     1      -1.423  11.273  19.227  0.00  0.00    +0.000 A 
ATOM     24  C   UNL     1      -0.761  10.278  18.503  0.00  0.00    +0.000 A 
ATOM     25  C   UNL     1      -1.344   9.785  17.328  0.00  0.00    +0.000 A 
ATOM     26  C   UNL     1      -2.569  10.263  16.894  0.00  0.00    +0.000 A 
ENDBRANCH  19  24
ENDBRANCH  18  19
ENDBRANCH  17  18
ENDBRANCH  16  17
ENDBRANCH   1  16
TORSDOF 5
ENDMDL
MODEL 3
REMARK VINA RESULT:      -7.8      4.020      7.707
REMARK  Name = 
REMARK  5 active torsions:
REMARK  status: ('A' for Active; 'I' for Inactive)
REMARK    1  A    between atoms: C_5  and  O_6
REMARK    2  A    between atoms: O_6  and  C_7
REMARK    3  A    between atoms: C_7  and  C_8
REMARK    4  A    between atoms: C_8  and  C_9
REMARK    5  A    between atoms: C_9  and  N_10
REMARK                            x       y       z     vdW  Elec       q    Type
REMARK                         _______ _______ _______ _____ _____    ______ ____
ROOT
ATOM      1  N   UNL     1       3.577   5.732  17.768  0.00  0.00    +0.000 N 
ATOM      2  C   UNL     1       3.171   6.144  19.039  0.00  0.00    +0.000 A 
ATOM      3  C   UNL     1       3.047   4.973  19.756  0.00  0.00    +0.000 A 
ATOM      4  C   UNL     1       3.772   3.974  19.045  0.00  0.00    +0.000 A 
ATOM      5  C   UNL     1       3.968   2.610  19.279  0.00  0.00    +0.000 A 
ATOM      6 CL   UNL     1       5.086   2.227  20.505  0.00  0.00    +0.000 Cl
ATOM      7  C   UNL     1       3.315   1.680  18.503  0.00  0.00    +0.000 A 
ATOM      8  C   UNL     1       2.513   2.132  17.445  0.00  0.00    +0.000 A 
ATOM      9  C   UNL     1       2.570   3.472  17.005  0.00  0.00    +0.000 A 
ATOM     10  C   UNL     1       3.347   4.356  17.771  0.00  0.00    +0.000 A 
ATOM     11  C   UNL     1       2.020   4.832  20.816  0.00  0.00    +0.000 C 
ATOM     12  C   UNL     1       1.161   6.120  20.897  0.00  0.00    +0.000 C 
ATOM     13  N   UNL     1       1.847   7.411  20.679  0.00  0.00    +0.000 NA
ATOM     14  C   UNL     1       2.720   7.482  19.485  0.00  0.00    +0.000 C 
ATOM     15  H   UNL     1       2.414   7.610  21.502  0.00  0.00    +0.000 HD
ENDROOT
BRANCH   1  16
ATOM     16  C   UNL     1       4.687   6.374  17.062  0.00  0.00    +0.000 C 
BRANCH  16  17
ATOM     17  C   UNL     1       6.075   6.370  17.719  0.00  0.00    +0.000 C 
BRANCH  17  18
ATOM     18  C   UNL     1       7.032   5.334  17.132  0.00  0.00    +0.000 C 
BRANCH  18  19
ATOM     19  O   UNL     1       7.363   5.723  15.793  0.00  0.00    +0.000 OA
BRANCH  19  24
ATOM     20 CL   UNL     1       5.485   2.444  11.268  0.00  0.00    +0.000 Cl
ATOM     21  C   UNL     1       6.008   3.403  12.599  0.00  0.00    +0.000 A 
ATOM     22  C   UNL     1       7.104   4.262  12.460  0.00  0.00    +0.000 A 
ATOM     23  C   UNL     1       7.528   5.028  13.559  0.00  0.00    +0.000 A 
ATOM     24  C   UNL     1       6.858   4.943  14.783  0.00  0.00    +0.000 A 
ATOM     25  C   UNL     1       5.767   4.074  14.908  0.00  0.00    +0.000 A 
ATOM     26  C   UNL     1       5.342   3.317  13.828  0.00  0.00    +0.000 A 
ENDBRANCH  19  24
ENDBRANCH  18  19
ENDBRANCH  17  18
ENDBRANCH  16  17
ENDBRANCH   1  16
TORSDOF 5
ENDMDL
MODEL 4
REMARK VINA RESULT:      -7.7      2.191      2.585
REMARK  Name = 
REMARK  5 active torsions:
REMARK  status: ('A' for Active; 'I' for Inactive)
REMARK    1  A    between atoms: C_5  and  O_6
REMARK    2  A    between atoms: O_6  and  C_7
REMARK    3  A    between atoms: C_7  and  C_8
REMARK    4  A    between atoms: C_8  and  C_9
REMARK    5  A    between atoms: C_9  and  N_10
REMARK                            x       y       z     vdW  Elec       q    Type
REMARK                         _______ _______ _______ _____ _____    ______ ____
ROOT
ATOM      1  N   UNL     1       3.249   6.366  18.351  0.00  0.00    +0.000 N 
ATOM      2  C   UNL     1       3.153   5.273  19.215  0.00  0.00    +0.000 A 
ATOM      3  C   UNL     1       4.403   4.692  19.175  0.00  0.00    +0.000 A 
ATOM      4  C   UNL     1       5.295   5.669  18.647  0.00  0.00    +0.000 A 
ATOM      5  C   UNL     1       6.661   5.633  18.356  0.00  0.00    +0.000 A 
ATOM      6 CL   UNL     1       7.703   5.736  19.700  0.00  0.00    +0.000 Cl
ATOM      7  C   UNL     1       7.083   5.573  17.048  0.00  0.00    +0.000 A 
ATOM      8  C   UNL     1       6.120   5.616  16.029  0.00  0.00    +0.000 A 
ATOM      9  C   UNL     1       4.783   5.977  16.302  0.00  0.00    +0.000 A 
ATOM     10  C   UNL     1       4.435   6.139  17.652  0.00  0.00    +0.000 A 
ATOM     11  C   UNL     1       4.568   3.226  19.312  0.00  0.00    +0.000 C 
ATOM     12  C   UNL     1       3.181   2.544  19.431  0.00  0.00    +0.000 C 
ATOM     13  N   UNL     1       2.133   3.258  20.192  0.00  0.00    +0.000 NA
ATOM     14  C   UNL     1       1.947   4.686  19.844  0.00  0.00    +0.000 C 
ATOM     15  H   UNL     1       2.367   3.199  21.182  0.00  0.00    +0.000 HD
ENDROOT
BRANCH   1  16
ATOM     16  C   UNL     1       2.761   7.694  18.724  0.00  0.00    +0.000 C 
BRANCH  16  17
ATOM     17  C   UNL     1       2.007   8.522  17.672  0.00  0.00    +0.000 C 
BRANCH  17  18
ATOM     18  C   UNL     1       1.564   9.896  18.169  0.00  0.00    +0.000 C 
BRANCH  18  19
ATOM     19  O   UNL     1       0.438   9.725  19.040  0.00  0.00    +0.000 OA
BRANCH  19  24
ATOM     20 CL   UNL     1      -4.681  11.859  17.041  0.00  0.00    +0.000 Cl
ATOM     21  C   UNL     1      -3.181  11.260  17.635  0.00  0.00    +0.000 A 
ATOM     22  C   UNL     1      -2.499  10.254  16.941  0.00  0.00    +0.000 A 
ATOM     23  C   UNL     1      -1.282   9.766  17.446  0.00  0.00    +0.000 A 
ATOM     24  C   UNL     1      -0.747  10.282  18.630  0.00  0.00    +0.000 A 
ATOM     25  C   UNL     1      -1.445  11.283  19.317  0.00  0.00    +0.000 A 
ATOM     26  C   UNL     1      -2.644  11.772  18.824  0.00  0.00    +0.000 A 
ENDBRANCH  19  24
ENDBRANCH  18  19
ENDBRANCH  17  18
ENDBRANCH  16  17
ENDBRANCH   1  16
TORSDOF 5
ENDMDL
MODEL 5
REMARK VINA RESULT:      -7.7      1.943      3.440
REMARK  Name = 
REMARK  5 active torsions:
REMARK  status: ('A' for Active; 'I' for Inactive)
REMARK    1  A    between atoms: C_5  and  O_6
REMARK    2  A    between atoms: O_6  and  C_7
REMARK    3  A    between atoms: C_7  and  C_8
REMARK    4  A    between atoms: C_8  and  C_9
REMARK    5  A    between atoms: C_9  and  N_10
REMARK                            x       y       z     vdW  Elec       q    Type
REMARK                         _______ _______ _______ _____ _____    ______ ____
ROOT
ATOM      1  N   UNL     1       2.937   6.703  18.460  0.00  0.00    +0.000 N 
ATOM      2  C   UNL     1       4.160   6.235  17.974  0.00  0.00    +0.000 A 
ATOM      3  C   UNL     1       4.163   4.893  18.287  0.00  0.00    +0.000 A 
ATOM      4  C   UNL     1       2.813   4.527  18.551  0.00  0.00    +0.000 A 
ATOM      5  C   UNL     1       2.226   3.320  18.942  0.00  0.00    +0.000 A 
ATOM      6 CL   UNL     1       2.065   2.149  17.717  0.00  0.00    +0.000 Cl
ATOM      7  C   UNL     1       1.775   3.162  20.233  0.00  0.00    +0.000 A 
ATOM      8  C   UNL     1       1.859   4.252  21.111  0.00  0.00    +0.000 A 
ATOM      9  C   UNL     1       2.143   5.552  20.640  0.00  0.00    +0.000 A 
ATOM     10  C   UNL     1       2.486   5.671  19.283  0.00  0.00    +0.000 A 
ATOM     11  C   UNL     1       5.424   4.191  18.625  0.00  0.00    +0.000 C 
ATOM     12  C   UNL     1       6.607   5.193  18.618  0.00  0.00    +0.000 C 
ATOM     13  N   UNL     1       6.591   6.261  17.596  0.00  0.00    +0.000 NA
ATOM     14  C   UNL     1       5.318   7.008  17.468  0.00  0.00    +0.000 C 
ATOM     15  H   UNL     1       6.804   5.837  16.694  0.00  0.00    +0.000 HD
ENDROOT
BRANCH   1  16
ATOM     16  C   UNL     1       2.057   7.553  17.658  0.00  0.00    +0.000 C 
BRANCH  16  17
ATOM     17  C   UNL     1       2.098   9.072  17.883  0.00  0.00    +0.000 C 
BRANCH  17  18
ATOM     18  C   UNL     1       0.916   9.608  18.688  0.00  0.00    +0.000 C 
BRANCH  18  19
ATOM     19  O   UNL     1       1.162   9.365  20.079  0.00  0.00    +0.000 OA
BRANCH  19  24
ATOM     20 CL   UNL     1      -2.595  12.190  23.637  0.00  0.00    +0.000 Cl
ATOM     21  C   UNL     1      -1.483  11.358  22.619  0.00  0.00    +0.000 A 
ATOM     22  C   UNL     1      -1.244  11.812  21.318  0.00  0.00    +0.000 A 
ATOM     23  C   UNL     1      -0.344  11.114  20.495  0.00  0.00    +0.000 A 
ATOM     24  C   UNL     1       0.316   9.977  20.970  0.00  0.00    +0.000 A 
ATOM     25  C   UNL     1       0.061   9.532  22.272  0.00  0.00    +0.000 A 
ATOM     26  C   UNL     1      -0.823  10.216  23.091  0.00  0.00    +0.000 A 
ENDBRANCH  19  24
ENDBRANCH  18  19
ENDBRANCH  17  18
ENDBRANCH  16  17
ENDBRANCH   1  16
TORSDOF 5
ENDMDL
MODEL 6
REMARK VINA RESULT:      -7.6      2.837      4.296
REMARK  Name = 
REMARK  5 active torsions:
REMARK  status: ('A' for Active; 'I' for Inactive)
REMARK    1  A    between atoms: C_5  and  O_6
REMARK    2  A    between atoms: O_6  and  C_7
REMARK    3  A    between atoms: C_7  and  C_8
REMARK    4  A    between atoms: C_8  and  C_9
REMARK    5  A    between atoms: C_9  and  N_10
REMARK                            x       y       z     vdW  Elec       q    Type
REMARK                         _______ _______ _______ _____ _____    ______ ____
ROOT
ATOM      1  N   UNL     1       3.076   6.887  18.359  0.00  0.00    +0.000 N 
ATOM      2  C   UNL     1       4.283   6.362  17.892  0.00  0.00    +0.000 A 
ATOM      3  C   UNL     1       4.224   5.023  18.216  0.00  0.00    +0.000 A 
ATOM      4  C   UNL     1       2.856   4.719  18.468  0.00  0.00    +0.000 A 
ATOM      5  C   UNL     1       2.212   3.543  18.862  0.00  0.00    +0.000 A 
ATOM      6 CL   UNL     1       2.015   2.368  17.644  0.00  0.00    +0.000 Cl
ATOM      7  C   UNL     1       1.740   3.416  20.148  0.00  0.00    +0.000 A 
ATOM      8  C   UNL     1       1.861   4.510  21.018  0.00  0.00    +0.000 A 
ATOM      9  C   UNL     1       2.207   5.791  20.538  0.00  0.00    +0.000 A 
ATOM     10  C   UNL     1       2.570   5.883  19.185  0.00  0.00    +0.000 A 
ATOM     11  C   UNL     1       5.449   4.271  18.576  0.00  0.00    +0.000 C 
ATOM     12  C   UNL     1       6.675   5.220  18.575  0.00  0.00    +0.000 C 
ATOM     13  N   UNL     1       6.716   6.278  17.543  0.00  0.00    +0.000 NA
ATOM     14  C   UNL     1       5.479   7.079  17.394  0.00  0.00    +0.000 C 
ATOM     15  H   UNL     1       6.922   5.838  16.648  0.00  0.00    +0.000 HD
ENDROOT
BRANCH   1  16
ATOM     16  C   UNL     1       2.243   7.767  17.538  0.00  0.00    +0.000 C 
BRANCH  16  17
ATOM     17  C   UNL     1       2.129   9.247  17.932  0.00  0.00    +0.000 C 
BRANCH  17  18
ATOM     18  C   UNL     1       0.935   9.557  18.831  0.00  0.00    +0.000 C 
BRANCH  18  19
ATOM     19  O   UNL     1       0.415  10.845  18.475  0.00  0.00    +0.000 OA
BRANCH  19  24
ATOM     20 CL   UNL     1      -5.440  10.979  17.806  0.00  0.00    +0.000 Cl
ATOM     21  C   UNL     1      -3.730  10.966  18.005  0.00  0.00    +0.000 A 
ATOM     22  C   UNL     1      -2.947  10.035  17.314  0.00  0.00    +0.000 A 
ATOM     23  C   UNL     1      -1.554  10.028  17.498  0.00  0.00    +0.000 A 
ATOM     24  C   UNL     1      -0.948  10.948  18.359  0.00  0.00    +0.000 A 
ATOM     25  C   UNL     1      -1.746  11.869  19.049  0.00  0.00    +0.000 A 
ATOM     26  C   UNL     1      -3.120  11.883  18.871  0.00  0.00    +0.000 A 
ENDBRANCH  19  24
ENDBRANCH  18  19
ENDBRANCH  17  18
ENDBRANCH  16  17
ENDBRANCH   1  16
TORSDOF 5
ENDMDL
MODEL 7
REMARK VINA RESULT:      -7.6      4.052      7.572
REMARK  Name = 
REMARK  5 active torsions:
REMARK  status: ('A' for Active; 'I' for Inactive)
REMARK    1  A    between atoms: C_5  and  O_6
REMARK    2  A    between atoms: O_6  and  C_7
REMARK    3  A    between atoms: C_7  and  C_8
REMARK    4  A    between atoms: C_8  and  C_9
REMARK    5  A    between atoms: C_9  and  N_10
REMARK                            x       y       z     vdW  Elec       q    Type
REMARK                         _______ _______ _______ _____ _____    ______ ____
ROOT
ATOM      1  N   UNL     1       3.571   5.770  17.975  0.00  0.00    +0.000 N 
ATOM      2  C   UNL     1       3.071   6.103  19.236  0.00  0.00    +0.000 A 
ATOM      3  C   UNL     1       2.901   4.891  19.870  0.00  0.00    +0.000 A 
ATOM      4  C   UNL     1       3.682   3.938  19.156  0.00  0.00    +0.000 A 
ATOM      5  C   UNL     1       3.869   2.564  19.321  0.00  0.00    +0.000 A 
ATOM      6 CL   UNL     1       4.897   2.109  20.601  0.00  0.00    +0.000 Cl
ATOM      7  C   UNL     1       3.281   1.680  18.445  0.00  0.00    +0.000 A 
ATOM      8  C   UNL     1       2.557   2.194  17.360  0.00  0.00    +0.000 A 
ATOM      9  C   UNL     1       2.637   3.558  17.006  0.00  0.00    +0.000 A 
ATOM     10  C   UNL     1       3.350   4.396  17.878  0.00  0.00    +0.000 A 
ATOM     11  C   UNL     1       1.800   4.685  20.841  0.00  0.00    +0.000 C 
ATOM     12  C   UNL     1       0.929   5.964  20.935  0.00  0.00    +0.000 C 
ATOM     13  N   UNL     1       1.621   7.268  20.846  0.00  0.00    +0.000 NA
ATOM     14  C   UNL     1       2.579   7.412  19.726  0.00  0.00    +0.000 C 
ATOM     15  H   UNL     1       2.125   7.417  21.719  0.00  0.00    +0.000 HD
ENDROOT
BRANCH   1  16
ATOM     16  C   UNL     1       4.725   6.455  17.392  0.00  0.00    +0.000 C 
BRANCH  16  17
ATOM     17  C   UNL     1       6.129   6.090  17.899  0.00  0.00    +0.000 C 
BRANCH  17  18
ATOM     18  C   UNL     1       7.237   6.339  16.878  0.00  0.00    +0.000 C 
BRANCH  18  19
ATOM     19  O   UNL     1       7.675   5.075  16.361  0.00  0.00    +0.000 OA
BRANCH  19  24
ATOM     20 CL   UNL     1       4.870   3.139  11.551  0.00  0.00    +0.000 Cl
ATOM     21  C   UNL     1       5.712   3.703  12.942  0.00  0.00    +0.000 A 
ATOM     22  C   UNL     1       5.251   3.381  14.224  0.00  0.00    +0.000 A 
ATOM     23  C   UNL     1       5.942   3.860  15.350  0.00  0.00    +0.000 A 
ATOM     24  C   UNL     1       7.086   4.649  15.197  0.00  0.00    +0.000 A 
ATOM     25  C   UNL     1       7.530   4.968  13.908  0.00  0.00    +0.000 A 
ATOM     26  C   UNL     1       6.857   4.497  12.793  0.00  0.00    +0.000 A 
ENDBRANCH  19  24
ENDBRANCH  18  19
ENDBRANCH  17  18
ENDBRANCH  16  17
ENDBRANCH   1  16
TORSDOF 5
ENDMDL
MODEL 8
REMARK VINA RESULT:      -7.5      2.421      2.823
REMARK  Name = 
REMARK  5 active torsions:
REMARK  status: ('A' for Active; 'I' for Inactive)
REMARK    1  A    between atoms: C_5  and  O_6
REMARK    2  A    between atoms: O_6  and  C_7
REMARK    3  A    between atoms: C_7  and  C_8
REMARK    4  A    between atoms: C_8  and  C_9
REMARK    5  A    between atoms: C_9  and  N_10
REMARK                            x       y       z     vdW  Elec       q    Type
REMARK                         _______ _______ _______ _____ _____    ______ ____
ROOT
ATOM      1  N   UNL     1       2.956   6.378  18.543  0.00  0.00    +0.000 N 
ATOM      2  C   UNL     1       2.886   5.092  19.084  0.00  0.00    +0.000 A 
ATOM      3  C   UNL     1       4.153   4.577  18.911  0.00  0.00    +0.000 A 
ATOM      4  C   UNL     1       5.020   5.682  18.675  0.00  0.00    +0.000 A 
ATOM      5  C   UNL     1       6.388   5.762  18.405  0.00  0.00    +0.000 A 
ATOM      6 CL   UNL     1       7.416   5.532  19.743  0.00  0.00    +0.000 Cl
ATOM      7  C   UNL     1       6.822   6.063  17.134  0.00  0.00    +0.000 A 
ATOM      8  C   UNL     1       5.865   6.349  16.149  0.00  0.00    +0.000 A 
ATOM      9  C   UNL     1       4.516   6.589  16.487  0.00  0.00    +0.000 A 
ATOM     10  C   UNL     1       4.153   6.377  17.827  0.00  0.00    +0.000 A 
ATOM     11  C   UNL     1       4.360   3.132  18.656  0.00  0.00    +0.000 C 
ATOM     12  C   UNL     1       2.994   2.407  18.569  0.00  0.00    +0.000 C 
ATOM     13  N   UNL     1       1.920   2.864  19.476  0.00  0.00    +0.000 NA
ATOM     14  C   UNL     1       1.693   4.328  19.517  0.00  0.00    +0.000 C 
ATOM     15  H   UNL     1       2.148   2.550  20.418  0.00  0.00    +0.000 HD
ENDROOT
BRANCH   1  16
ATOM     16  C   UNL     1       2.426   7.546  19.247  0.00  0.00    +0.000 C 
BRANCH  16  17
ATOM     17  C   UNL     1       1.805   8.683  18.421  0.00  0.00    +0.000 C 
BRANCH  17  18
ATOM     18  C   UNL     1       0.915   9.621  19.234  0.00  0.00    +0.000 C 
BRANCH  18  19
ATOM     19  O   UNL     1       0.409  10.640  18.362  0.00  0.00    +0.000 OA
BRANCH  19  24
ATOM     20 CL   UNL     1      -5.434  11.056  17.702  0.00  0.00    +0.000 Cl
ATOM     21  C   UNL     1      -3.730  10.908  17.890  0.00  0.00    +0.000 A 
ATOM     22  C   UNL     1      -3.039  11.768  18.752  0.00  0.00    +0.000 A 
ATOM     23  C   UNL     1      -1.646  11.644  18.884  0.00  0.00    +0.000 A 
ATOM     24  C   UNL     1      -0.950  10.665  18.169  0.00  0.00    +0.000 A 
ATOM     25  C   UNL     1      -1.655   9.817  17.306  0.00  0.00    +0.000 A 
ATOM     26  C   UNL     1      -3.029   9.931  17.172  0.00  0.00    +0.000 A 
ENDBRANCH  19  24
ENDBRANCH  18  19
ENDBRANCH  17  18
ENDBRANCH  16  17
ENDBRANCH   1  16
TORSDOF 5
ENDMDL
MODEL 9
REMARK VINA RESULT:      -7.5      0.963      1.397
REMARK  Name = 
REMARK  5 active torsions:
REMARK  status: ('A' for Active; 'I' for Inactive)
REMARK    1  A    between atoms: C_5  and  O_6
REMARK    2  A    between atoms: O_6  and  C_7
REMARK    3  A    between atoms: C_7  and  C_8
REMARK    4  A    between atoms: C_8  and  C_9
REMARK    5  A    between atoms: C_9  and  N_10
REMARK                            x       y       z     vdW  Elec       q    Type
REMARK                         _______ _______ _______ _____ _____    ______ ____
ROOT
ATOM      1  N   UNL     1       3.243   6.230  18.374  0.00  0.00    +0.000 N 
ATOM      2  C   UNL     1       3.142   5.140  19.242  0.00  0.00    +0.000 A 
ATOM      3  C   UNL     1       4.394   4.564  19.216  0.00  0.00    +0.000 A 
ATOM      4  C   UNL     1       5.289   5.541  18.693  0.00  0.00    +0.000 A 
ATOM      5  C   UNL     1       6.657   5.508  18.414  0.00  0.00    +0.000 A 
ATOM      6 CL   UNL     1       7.686   5.620  19.767  0.00  0.00    +0.000 Cl
ATOM      7  C   UNL     1       7.092   5.443  17.110  0.00  0.00    +0.000 A 
ATOM      8  C   UNL     1       6.138   5.478  16.083  0.00  0.00    +0.000 A 
ATOM      9  C   UNL     1       4.798   5.836  16.341  0.00  0.00    +0.000 A 
ATOM     10  C   UNL     1       4.436   6.003  17.687  0.00  0.00    +0.000 A 
ATOM     11  C   UNL     1       4.562   3.098  19.362  0.00  0.00    +0.000 C 
ATOM     12  C   UNL     1       3.177   2.413  19.471  0.00  0.00    +0.000 C 
ATOM     13  N   UNL     1       2.120   3.127  20.219  0.00  0.00    +0.000 NA
ATOM     14  C   UNL     1       1.932   4.553  19.862  0.00  0.00    +0.000 C 
ATOM     15  H   UNL     1       2.344   3.073  21.211  0.00  0.00    +0.000 HD
ENDROOT
BRANCH   1  16
ATOM     16  C   UNL     1       2.748   7.558  18.736  0.00  0.00    +0.000 C 
BRANCH  16  17
ATOM     17  C   UNL     1       2.169   8.453  17.629  0.00  0.00    +0.000 C 
BRANCH  17  18
ATOM     18  C   UNL     1       1.785   9.852  18.105  0.00  0.00    +0.000 C 
BRANCH  18  19
ATOM     19  O   UNL     1       0.355   9.939  18.163  0.00  0.00    +0.000 OA
BRANCH  19  24
ATOM     20 CL   UNL     1      -1.681  12.150  23.234  0.00  0.00    +0.000 Cl
ATOM     21  C   UNL     1      -1.111  11.507  21.743  0.00  0.00    +0.000 A 
ATOM     22  C   UNL     1      -0.073  10.569  21.731  0.00  0.00    +0.000 A 
ATOM     23  C   UNL     1       0.390  10.063  20.505  0.00  0.00    +0.000 A 
ATOM     24  C   UNL     1      -0.182  10.486  19.302  0.00  0.00    +0.000 A 
ATOM     25  C   UNL     1      -1.216  11.430  19.330  0.00  0.00    +0.000 A 
ATOM     26  C   UNL     1      -1.680  11.932  20.535  0.00  0.00    +0.000 A 
ENDBRANCH  19  24
ENDBRANCH  18  19
ENDBRANCH  17  18
ENDBRANCH  16  17
ENDBRANCH   1  16
TORSDOF 5
ENDMDL
