MODEL 1
REMARK VINA RESULT:      -6.4      0.000      0.000
REMARK  Name = 
REMARK  17 active torsions:
REMARK  status: ('A' for Active; 'I' for Inactive)
REMARK    1  A    between atoms: C_1  and  C_2
REMARK    2  A    between atoms: C_2  and  C_3
REMARK    3  A    between atoms: C_3  and  C_4
REMARK    4  A    between atoms: C_4  and  C_5
REMARK    5  A    between atoms: C_5  and  C_6
REMARK    6  A    between atoms: C_6  and  C_7
REMARK    7  A    between atoms: C_7  and  C_8
REMARK    8  A    between atoms: C_8  and  C_9
REMARK    9  A    between atoms: C_9  and  C_10
REMARK   10  A    between atoms: C_10  and  C_11
REMARK   11  A    between atoms: C_11  and  C_12
REMARK   12  A    between atoms: C_12  and  N_13
REMARK   13  A    between atoms: C_14  and  C_16
REMARK   14  A    between atoms: C_16  and  C_17
REMARK   15  A    between atoms: C_17  and  C_18
REMARK   16  A    between atoms: C_18  and  C_19
REMARK   17  A    between atoms: C_19  and  C_20
REMARK                            x       y       z     vdW  Elec       q    Type
REMARK                         _______ _______ _______ _____ _____    ______ ____
ROOT
ATOM      1  N   UNL     1       7.278   6.687  18.605  0.00  0.00    +0.000 N 
ATOM      2  C   UNL     1       7.541   7.265  17.382  0.00  0.00    +0.000 C 
ATOM      3  O   UNL     1       7.658   6.624  16.346  0.00  0.00    +0.000 OA
ATOM      4  H   UNL     1       7.202   7.262  19.433  0.00  0.00    +0.000 HD
ENDROOT
BRANCH   2   5
ATOM      5  C   UNL     1       7.712   8.769  17.433  0.00  0.00    +0.000 C 
BRANCH   5   6
ATOM      6  C   UNL     1       8.637   9.166  18.577  0.00  0.00    +0.000 C 
BRANCH   6   7
ATOM      7  C   UNL     1       9.440  10.412  18.241  0.00  0.00    +0.000 C 
BRANCH   7   8
ATOM      8  C   UNL     1       9.425  11.374  19.423  0.00  0.00    +0.000 C 
BRANCH   8   9
ATOM      9  C   UNL     1      10.066  12.704  19.070  0.00  0.00    +0.000 C 
ATOM     10  S   UNL     1       9.836  13.929  20.394  0.00  0.00    +0.000 S 
ATOM     11  C   UNL     1      10.186  15.293  19.287  0.00  0.00    +0.000 C 
ATOM     12  C   UNL     1       9.606  14.898  17.930  0.00  0.00    +0.000 C 
ATOM     13  N   UNL     1       8.247  15.352  17.756  0.00  0.00    +0.000 N 
ATOM     14  C   UNL     1       7.343  14.314  17.638  0.00  0.00    +0.000 C 
ATOM     15  O   UNL     1       6.148  14.413  17.551  0.00  0.00    +0.000 OA
ATOM     16  N   UNL     1       8.068  13.143  17.631  0.00  0.00    +0.000 N 
ATOM     17  C   UNL     1       9.486  13.359  17.813  0.00  0.00    +0.000 C 
ATOM     18  H   UNL     1       7.915  16.315  17.813  0.00  0.00    +0.000 HD
ATOM     19  H   UNL     1       7.595  12.250  17.561  0.00  0.00    +0.000 HD
ENDBRANCH   8   9
ENDBRANCH   7   8
ENDBRANCH   6   7
ENDBRANCH   5   6
ENDBRANCH   2   5
BRANCH   1  20
ATOM     20  C   UNL     1       7.118   5.257  18.695  0.00  0.00    +0.000 C 
BRANCH  20  21
ATOM     21  C   UNL     1       5.701   4.851  19.073  0.00  0.00    +0.000 C 
BRANCH  21  22
ATOM     22  C   UNL     1       4.791   4.897  17.849  0.00  0.00    +0.000 C 
BRANCH  22  23
ATOM     23  C   UNL     1       3.909   6.139  17.882  0.00  0.00    +0.000 C 
BRANCH  23  24
ATOM     24  C   UNL     1       2.466   5.761  18.178  0.00  0.00    +0.000 C 
BRANCH  24  25
ATOM     25  C   UNL     1       2.185   4.348  17.691  0.00  0.00    +0.000 C 
BRANCH  25  26
ATOM     26  C   UNL     1       1.116   3.700  18.556  0.00  0.00    +0.000 C 
BRANCH  26  27
ATOM     27  C   UNL     1       1.262   4.159  19.998  0.00  0.00    +0.000 C 
BRANCH  27  28
ATOM     28  C   UNL     1       1.298   2.956  20.928  0.00  0.00    +0.000 C 
BRANCH  28  29
ATOM     29  C   UNL     1       2.717   2.716  21.418  0.00  0.00    +0.000 C 
BRANCH  29  31
ATOM     30  C   UNL     1       4.890   1.662  20.785  0.00  0.00    +0.000 C 
ATOM     31  C   UNL     1       3.620   2.304  20.263  0.00  0.00    +0.000 C 
ENDBRANCH  29  31
ENDBRANCH  28  29
ENDBRANCH  27  28
ENDBRANCH  26  27
ENDBRANCH  25  26
ENDBRANCH  24  25
ENDBRANCH  23  24
ENDBRANCH  22  23
ENDBRANCH  21  22
ENDBRANCH  20  21
ENDBRANCH   1  20
TORSDOF 16
ENDMDL
MODEL 2
REMARK VINA RESULT:      -6.4      1.717      2.400
REMARK  Name = 
REMARK  17 active torsions:
REMARK  status: ('A' for Active; 'I' for Inactive)
REMARK    1  A    between atoms: C_1  and  C_2
REMARK    2  A    between atoms: C_2  and  C_3
REMARK    3  A    between atoms: C_3  and  C_4
REMARK    4  A    between atoms: C_4  and  C_5
REMARK    5  A    between atoms: C_5  and  C_6
REMARK    6  A    between atoms: C_6  and  C_7
REMARK    7  A    between atoms: C_7  and  C_8
REMARK    8  A    between atoms: C_8  and  C_9
REMARK    9  A    between atoms: C_9  and  C_10
REMARK   10  A    between atoms: C_10  and  C_11
REMARK   11  A    between atoms: C_11  and  C_12
REMARK   12  A    between atoms: C_12  and  N_13
REMARK   13  A    between atoms: C_14  and  C_16
REMARK   14  A    between atoms: C_16  and  C_17
REMARK   15  A    between atoms: C_17  and  C_18
REMARK   16  A    between atoms: C_18  and  C_19
REMARK   17  A    between atoms: C_19  and  C_20
REMARK                            x       y       z     vdW  Elec       q    Type
REMARK                         _______ _______ _______ _____ _____    ______ ____
ROOT
ATOM      1  N   UNL     1       7.222   6.090  16.056  0.00  0.00    +0.000 N 
ATOM      2  C   UNL     1       6.252   6.997  16.423  0.00  0.00    +0.000 C 
ATOM      3  O   UNL     1       5.123   7.003  15.951  0.00  0.00    +0.000 OA
ATOM      4  H   UNL     1       8.144   6.135  16.469  0.00  0.00    +0.000 HD
ENDROOT
BRANCH   2   5
ATOM      5  C   UNL     1       6.716   8.020  17.439  0.00  0.00    +0.000 C 
BRANCH   5   6
ATOM      6  C   UNL     1       8.200   7.851  17.733  0.00  0.00    +0.000 C 
BRANCH   6   7
ATOM      7  C   UNL     1       8.694   8.883  18.733  0.00  0.00    +0.000 C 
BRANCH   7   8
ATOM      8  C   UNL     1       8.624  10.277  18.119  0.00  0.00    +0.000 C 
BRANCH   8   9
ATOM      9  C   UNL     1       9.788  11.144  18.565  0.00  0.00    +0.000 C 
ATOM     10  S   UNL     1       9.666  11.568  20.329  0.00  0.00    +0.000 S 
ATOM     11  C   UNL     1      10.799  12.943  20.147  0.00  0.00    +0.000 C 
ATOM     12  C   UNL     1      10.525  13.539  18.767  0.00  0.00    +0.000 C 
ATOM     13  N   UNL     1       9.544  14.598  18.807  0.00  0.00    +0.000 N 
ATOM     14  C   UNL     1       8.392  14.291  18.110  0.00  0.00    +0.000 C 
ATOM     15  O   UNL     1       7.398  14.964  18.040  0.00  0.00    +0.000 OA
ATOM     16  N   UNL     1       8.596  13.071  17.505  0.00  0.00    +0.000 N 
ATOM     17  C   UNL     1       9.877  12.487  17.835  0.00  0.00    +0.000 C 
ATOM     18  H   UNL     1       9.595  15.454  19.359  0.00  0.00    +0.000 HD
ATOM     19  H   UNL     1       7.864  12.650  16.946  0.00  0.00    +0.000 HD
ENDBRANCH   8   9
ENDBRANCH   7   8
ENDBRANCH   6   7
ENDBRANCH   5   6
ENDBRANCH   2   5
BRANCH   1  20
ATOM     20  C   UNL     1       6.914   5.078  15.076  0.00  0.00    +0.000 C 
BRANCH  20  21
ATOM     21  C   UNL     1       6.421   3.784  15.709  0.00  0.00    +0.000 C 
BRANCH  21  22
ATOM     22  C   UNL     1       4.902   3.807  15.851  0.00  0.00    +0.000 C 
BRANCH  22  23
ATOM     23  C   UNL     1       4.493   3.504  17.287  0.00  0.00    +0.000 C 
BRANCH  23  24
ATOM     24  C   UNL     1       2.986   3.621  17.449  0.00  0.00    +0.000 C 
BRANCH  24  25
ATOM     25  C   UNL     1       2.375   2.246  17.670  0.00  0.00    +0.000 C 
BRANCH  25  26
ATOM     26  C   UNL     1       1.250   2.331  18.688  0.00  0.00    +0.000 C 
BRANCH  26  27
ATOM     27  C   UNL     1       1.823   2.413  20.094  0.00  0.00    +0.000 C 
BRANCH  27  28
ATOM     28  C   UNL     1       1.234   3.607  20.829  0.00  0.00    +0.000 C 
BRANCH  28  29
ATOM     29  C   UNL     1       2.282   4.697  20.981  0.00  0.00    +0.000 C 
BRANCH  29  31
ATOM     30  C   UNL     1       2.664   6.627  19.444  0.00  0.00    +0.000 C 
ATOM     31  C   UNL     1       1.741   6.033  20.489  0.00  0.00    +0.000 C 
ENDBRANCH  29  31
ENDBRANCH  28  29
ENDBRANCH  27  28
ENDBRANCH  26  27
ENDBRANCH  25  26
ENDBRANCH  24  25
ENDBRANCH  23  24
ENDBRANCH  22  23
ENDBRANCH  21  22
ENDBRANCH  20  21
ENDBRANCH   1  20
TORSDOF 16
ENDMDL
MODEL 3
REMARK VINA RESULT:      -6.4      1.829      3.053
REMARK  Name = 
REMARK  17 active torsions:
REMARK  status: ('A' for Active; 'I' for Inactive)
REMARK    1  A    between atoms: C_1  and  C_2
REMARK    2  A    between atoms: C_2  and  C_3
REMARK    3  A    between atoms: C_3  and  C_4
REMARK    4  A    between atoms: C_4  and  C_5
REMARK    5  A    between atoms: C_5  and  C_6
REMARK    6  A    between atoms: C_6  and  C_7
REMARK    7  A    between atoms: C_7  and  C_8
REMARK    8  A    between atoms: C_8  and  C_9
REMARK    9  A    between atoms: C_9  and  C_10
REMARK   10  A    between atoms: C_10  and  C_11
REMARK   11  A    between atoms: C_11  and  C_12
REMARK   12  A    between atoms: C_12  and  N_13
REMARK   13  A    between atoms: C_14  and  C_16
REMARK   14  A    between atoms: C_16  and  C_17
REMARK   15  A    between atoms: C_17  and  C_18
REMARK   16  A    between atoms: C_18  and  C_19
REMARK   17  A    between atoms: C_19  and  C_20
REMARK                            x       y       z     vdW  Elec       q    Type
REMARK                         _______ _______ _______ _____ _____    ______ ____
ROOT
ATOM      1  N   UNL     1       7.137   7.352  16.859  0.00  0.00    +0.000 N 
ATOM      2  C   UNL     1       7.908   7.764  17.924  0.00  0.00    +0.000 C 
ATOM      3  O   UNL     1       8.310   7.007  18.797  0.00  0.00    +0.000 OA
ATOM      4  H   UNL     1       6.823   8.021  16.169  0.00  0.00    +0.000 HD
ENDROOT
BRANCH   2   5
ATOM      5  C   UNL     1       8.188   9.253  17.945  0.00  0.00    +0.000 C 
BRANCH   5   6
ATOM      6  C   UNL     1       9.140   9.605  19.080  0.00  0.00    +0.000 C 
BRANCH   6   7
ATOM      7  C   UNL     1       9.374  11.104  19.170  0.00  0.00    +0.000 C 
BRANCH   7   8
ATOM      8  C   UNL     1       9.889  11.630  17.835  0.00  0.00    +0.000 C 
BRANCH   8   9
ATOM      9  C   UNL     1      11.036  12.607  18.024  0.00  0.00    +0.000 C 
ATOM     10  S   UNL     1      11.484  12.779  19.778  0.00  0.00    +0.000 S 
ATOM     11  C   UNL     1      12.333  14.327  19.480  0.00  0.00    +0.000 C 
ATOM     12  C   UNL     1      11.540  15.043  18.388  0.00  0.00    +0.000 C 
ATOM     13  N   UNL     1      10.526  15.920  18.925  0.00  0.00    +0.000 N 
ATOM     14  C   UNL     1       9.244  15.525  18.596  0.00  0.00    +0.000 C 
ATOM     15  O   UNL     1       8.221  16.037  18.968  0.00  0.00    +0.000 OA
ATOM     16  N   UNL     1       9.355  14.440  17.756  0.00  0.00    +0.000 N 
ATOM     17  C   UNL     1      10.726  14.029  17.548  0.00  0.00    +0.000 C 
ATOM     18  H   UNL     1      10.673  16.696  19.570  0.00  0.00    +0.000 HD
ATOM     19  H   UNL     1       8.525  13.983  17.400  0.00  0.00    +0.000 HD
ENDBRANCH   8   9
ENDBRANCH   7   8
ENDBRANCH   6   7
ENDBRANCH   5   6
ENDBRANCH   2   5
BRANCH   1  20
ATOM     20  C   UNL     1       6.781   5.960  16.737  0.00  0.00    +0.000 C 
BRANCH  20  21
ATOM     21  C   UNL     1       5.448   5.758  16.029  0.00  0.00    +0.000 C 
BRANCH  21  22
ATOM     22  C   UNL     1       4.455   5.063  16.956  0.00  0.00    +0.000 C 
BRANCH  22  23
ATOM     23  C   UNL     1       4.650   3.553  16.915  0.00  0.00    +0.000 C 
BRANCH  23  24
ATOM     24  C   UNL     1       3.534   2.850  17.671  0.00  0.00    +0.000 C 
BRANCH  24  25
ATOM     25  C   UNL     1       2.522   3.867  18.175  0.00  0.00    +0.000 C 
BRANCH  25  26
ATOM     26  C   UNL     1       2.499   3.873  19.695  0.00  0.00    +0.000 C 
BRANCH  26  27
ATOM     27  C   UNL     1       1.894   5.172  20.203  0.00  0.00    +0.000 C 
BRANCH  27  28
ATOM     28  C   UNL     1       2.669   6.359  19.653  0.00  0.00    +0.000 C 
BRANCH  28  29
ATOM     29  C   UNL     1       1.800   7.149  18.687  0.00  0.00    +0.000 C 
BRANCH  29  31
ATOM     30  C   UNL     1       1.942   9.510  17.886  0.00  0.00    +0.000 C 
ATOM     31  C   UNL     1       2.638   8.164  17.920  0.00  0.00    +0.000 C 
ENDBRANCH  29  31
ENDBRANCH  28  29
ENDBRANCH  27  28
ENDBRANCH  26  27
ENDBRANCH  25  26
ENDBRANCH  24  25
ENDBRANCH  23  24
ENDBRANCH  22  23
ENDBRANCH  21  22
ENDBRANCH  20  21
ENDBRANCH   1  20
TORSDOF 16
ENDMDL
MODEL 4
REMARK VINA RESULT:      -6.4      1.834      2.383
REMARK  Name = 
REMARK  17 active torsions:
REMARK  status: ('A' for Active; 'I' for Inactive)
REMARK    1  A    between atoms: C_1  and  C_2
REMARK    2  A    between atoms: C_2  and  C_3
REMARK    3  A    between atoms: C_3  and  C_4
REMARK    4  A    between atoms: C_4  and  C_5
REMARK    5  A    between atoms: C_5  and  C_6
REMARK    6  A    between atoms: C_6  and  C_7
REMARK    7  A    between atoms: C_7  and  C_8
REMARK    8  A    between atoms: C_8  and  C_9
REMARK    9  A    between atoms: C_9  and  C_10
REMARK   10  A    between atoms: C_10  and  C_11
REMARK   11  A    between atoms: C_11  and  C_12
REMARK   12  A    between atoms: C_12  and  N_13
REMARK   13  A    between atoms: C_14  and  C_16
REMARK   14  A    between atoms: C_16  and  C_17
REMARK   15  A    between atoms: C_17  and  C_18
REMARK   16  A    between atoms: C_18  and  C_19
REMARK   17  A    between atoms: C_19  and  C_20
REMARK                            x       y       z     vdW  Elec       q    Type
REMARK                         _______ _______ _______ _____ _____    ______ ____
ROOT
ATOM      1  N   UNL     1       5.869   7.239  17.569  0.00  0.00    +0.000 N 
ATOM      2  C   UNL     1       7.190   6.971  17.282  0.00  0.00    +0.000 C 
ATOM      3  O   UNL     1       7.545   6.239  16.367  0.00  0.00    +0.000 OA
ATOM      4  H   UNL     1       5.629   7.843  18.343  0.00  0.00    +0.000 HD
ENDROOT
BRANCH   2   5
ATOM      5  C   UNL     1       8.174   7.631  18.225  0.00  0.00    +0.000 C 
BRANCH   5   6
ATOM      6  C   UNL     1       8.215   9.136  17.992  0.00  0.00    +0.000 C 
BRANCH   6   7
ATOM      7  C   UNL     1       9.140   9.830  18.978  0.00  0.00    +0.000 C 
BRANCH   7   8
ATOM      8  C   UNL     1       9.740  11.077  18.337  0.00  0.00    +0.000 C 
BRANCH   8   9
ATOM      9  C   UNL     1       8.975  12.329  18.729  0.00  0.00    +0.000 C 
ATOM     10  S   UNL     1       8.001  12.980  17.338  0.00  0.00    +0.000 S 
ATOM     11  C   UNL     1       7.857  14.592  18.104  0.00  0.00    +0.000 C 
ATOM     12  C   UNL     1       9.175  14.833  18.838  0.00  0.00    +0.000 C 
ATOM     13  N   UNL     1      10.147  15.518  18.019  0.00  0.00    +0.000 N 
ATOM     14  C   UNL     1      11.264  14.751  17.754  0.00  0.00    +0.000 C 
ATOM     15  O   UNL     1      12.188  15.054  17.047  0.00  0.00    +0.000 OA
ATOM     16  N   UNL     1      11.127  13.576  18.458  0.00  0.00    +0.000 N 
ATOM     17  C   UNL     1       9.871  13.491  19.170  0.00  0.00    +0.000 C 
ATOM     18  H   UNL     1      10.030  16.426  17.567  0.00  0.00    +0.000 HD
ATOM     19  H   UNL     1      11.839  12.859  18.398  0.00  0.00    +0.000 HD
ENDBRANCH   8   9
ENDBRANCH   7   8
ENDBRANCH   6   7
ENDBRANCH   5   6
ENDBRANCH   2   5
BRANCH   1  20
ATOM     20  C   UNL     1       4.833   6.650  16.758  0.00  0.00    +0.000 C 
BRANCH  20  21
ATOM     21  C   UNL     1       3.634   6.198  17.580  0.00  0.00    +0.000 C 
BRANCH  21  22
ATOM     22  C   UNL     1       3.346   4.721  17.332  0.00  0.00    +0.000 C 
BRANCH  22  23
ATOM     23  C   UNL     1       1.925   4.373  17.754  0.00  0.00    +0.000 C 
BRANCH  23  24
ATOM     24  C   UNL     1       1.721   2.866  17.752  0.00  0.00    +0.000 C 
BRANCH  24  25
ATOM     25  C   UNL     1       0.816   2.458  18.904  0.00  0.00    +0.000 C 
BRANCH  25  26
ATOM     26  C   UNL     1       0.688   3.600  19.899  0.00  0.00    +0.000 C 
BRANCH  26  27
ATOM     27  C   UNL     1       1.260   3.186  21.246  0.00  0.00    +0.000 C 
BRANCH  27  28
ATOM     28  C   UNL     1       2.761   3.430  21.274  0.00  0.00    +0.000 C 
BRANCH  28  29
ATOM     29  C   UNL     1       3.508   2.108  21.202  0.00  0.00    +0.000 C 
BRANCH  29  31
ATOM     30  C   UNL     1       4.937   3.525  19.725  0.00  0.00    +0.000 C 
ATOM     31  C   UNL     1       4.492   2.111  20.040  0.00  0.00    +0.000 C 
ENDBRANCH  29  31
ENDBRANCH  28  29
ENDBRANCH  27  28
ENDBRANCH  26  27
ENDBRANCH  25  26
ENDBRANCH  24  25
ENDBRANCH  23  24
ENDBRANCH  22  23
ENDBRANCH  21  22
ENDBRANCH  20  21
ENDBRANCH   1  20
TORSDOF 16
ENDMDL
MODEL 5
REMARK VINA RESULT:      -6.4      2.079      3.658
REMARK  Name = 
REMARK  17 active torsions:
REMARK  status: ('A' for Active; 'I' for Inactive)
REMARK    1  A    between atoms: C_1  and  C_2
REMARK    2  A    between atoms: C_2  and  C_3
REMARK    3  A    between atoms: C_3  and  C_4
REMARK    4  A    between atoms: C_4  and  C_5
REMARK    5  A    between atoms: C_5  and  C_6
REMARK    6  A    between atoms: C_6  and  C_7
REMARK    7  A    between atoms: C_7  and  C_8
REMARK    8  A    between atoms: C_8  and  C_9
REMARK    9  A    between atoms: C_9  and  C_10
REMARK   10  A    between atoms: C_10  and  C_11
REMARK   11  A    between atoms: C_11  and  C_12
REMARK   12  A    between atoms: C_12  and  N_13
REMARK   13  A    between atoms: C_14  and  C_16
REMARK   14  A    between atoms: C_16  and  C_17
REMARK   15  A    between atoms: C_17  and  C_18
REMARK   16  A    between atoms: C_18  and  C_19
REMARK   17  A    between atoms: C_19  and  C_20
REMARK                            x       y       z     vdW  Elec       q    Type
REMARK                         _______ _______ _______ _____ _____    ______ ____
ROOT
ATOM      1  N   UNL     1       5.806   5.141  17.915  0.00  0.00    +0.000 N 
ATOM      2  C   UNL     1       7.144   5.462  17.992  0.00  0.00    +0.000 C 
ATOM      3  O   UNL     1       7.984   4.730  18.498  0.00  0.00    +0.000 OA
ATOM      4  H   UNL     1       5.151   5.787  17.496  0.00  0.00    +0.000 HD
ENDROOT
BRANCH   2   5
ATOM      5  C   UNL     1       7.486   6.827  17.429  0.00  0.00    +0.000 C 
BRANCH   5   6
ATOM      6  C   UNL     1       8.208   7.672  18.469  0.00  0.00    +0.000 C 
BRANCH   6   7
ATOM      7  C   UNL     1       8.512   9.066  17.945  0.00  0.00    +0.000 C 
BRANCH   7   8
ATOM      8  C   UNL     1       8.806  10.005  19.109  0.00  0.00    +0.000 C 
BRANCH   8   9
ATOM      9  C   UNL     1       9.974  10.926  18.803  0.00  0.00    +0.000 C 
ATOM     10  S   UNL     1      10.465  11.890  20.265  0.00  0.00    +0.000 S 
ATOM     11  C   UNL     1      11.333  13.094  19.264  0.00  0.00    +0.000 C 
ATOM     12  C   UNL     1      10.527  13.235  17.974  0.00  0.00    +0.000 C 
ATOM     13  N   UNL     1       9.541  14.287  18.049  0.00  0.00    +0.000 N 
ATOM     14  C   UNL     1       8.245  13.817  17.960  0.00  0.00    +0.000 C 
ATOM     15  O   UNL     1       7.240  14.470  18.060  0.00  0.00    +0.000 OA
ATOM     16  N   UNL     1       8.319  12.462  17.726  0.00  0.00    +0.000 N 
ATOM     17  C   UNL     1       9.677  11.966  17.719  0.00  0.00    +0.000 C 
ATOM     18  H   UNL     1       9.716  15.271  18.253  0.00  0.00    +0.000 HD
ATOM     19  H   UNL     1       7.473  11.913  17.636  0.00  0.00    +0.000 HD
ENDBRANCH   8   9
ENDBRANCH   7   8
ENDBRANCH   6   7
ENDBRANCH   5   6
ENDBRANCH   2   5
BRANCH   1  20
ATOM     20  C   UNL     1       5.348   3.879  18.439  0.00  0.00    +0.000 C 
BRANCH  20  21
ATOM     21  C   UNL     1       4.078   3.389  17.757  0.00  0.00    +0.000 C 
BRANCH  21  22
ATOM     22  C   UNL     1       3.131   4.558  17.497  0.00  0.00    +0.000 C 
BRANCH  22  23
ATOM     23  C   UNL     1       1.742   4.253  18.042  0.00  0.00    +0.000 C 
BRANCH  23  24
ATOM     24  C   UNL     1       1.752   4.256  19.562  0.00  0.00    +0.000 C 
BRANCH  24  25
ATOM     25  C   UNL     1       2.503   5.474  20.078  0.00  0.00    +0.000 C 
BRANCH  25  26
ATOM     26  C   UNL     1       1.520   6.531  20.554  0.00  0.00    +0.000 C 
BRANCH  26  27
ATOM     27  C   UNL     1       1.940   7.901  20.045  0.00  0.00    +0.000 C 
BRANCH  27  28
ATOM     28  C   UNL     1       2.172   7.852  18.543  0.00  0.00    +0.000 C 
BRANCH  28  29
ATOM     29  C   UNL     1       1.945   9.226  17.933  0.00  0.00    +0.000 C 
BRANCH  29  31
ATOM     30  C   UNL     1      -0.443   9.951  18.013  0.00  0.00    +0.000 C 
ATOM     31  C   UNL     1       0.896   9.996  18.724  0.00  0.00    +0.000 C 
ENDBRANCH  29  31
ENDBRANCH  28  29
ENDBRANCH  27  28
ENDBRANCH  26  27
ENDBRANCH  25  26
ENDBRANCH  24  25
ENDBRANCH  23  24
ENDBRANCH  22  23
ENDBRANCH  21  22
ENDBRANCH  20  21
ENDBRANCH   1  20
TORSDOF 16
ENDMDL
MODEL 6
REMARK VINA RESULT:      -6.3      2.239      2.679
REMARK  Name = 
REMARK  17 active torsions:
REMARK  status: ('A' for Active; 'I' for Inactive)
REMARK    1  A    between atoms: C_1  and  C_2
REMARK    2  A    between atoms: C_2  and  C_3
REMARK    3  A    between atoms: C_3  and  C_4
REMARK    4  A    between atoms: C_4  and  C_5
REMARK    5  A    between atoms: C_5  and  C_6
REMARK    6  A    between atoms: C_6  and  C_7
REMARK    7  A    between atoms: C_7  and  C_8
REMARK    8  A    between atoms: C_8  and  C_9
REMARK    9  A    between atoms: C_9  and  C_10
REMARK   10  A    between atoms: C_10  and  C_11
REMARK   11  A    between atoms: C_11  and  C_12
REMARK   12  A    between atoms: C_12  and  N_13
REMARK   13  A    between atoms: C_14  and  C_16
REMARK   14  A    between atoms: C_16  and  C_17
REMARK   15  A    between atoms: C_17  and  C_18
REMARK   16  A    between atoms: C_18  and  C_19
REMARK   17  A    between atoms: C_19  and  C_20
REMARK                            x       y       z     vdW  Elec       q    Type
REMARK                         _______ _______ _______ _____ _____    ______ ____
ROOT
ATOM      1  N   UNL     1       7.207   7.413  16.811  0.00  0.00    +0.000 N 
ATOM      2  C   UNL     1       7.918   7.919  17.878  0.00  0.00    +0.000 C 
ATOM      3  O   UNL     1       8.371   7.222  18.776  0.00  0.00    +0.000 OA
ATOM      4  H   UNL     1       6.845   8.035  16.100  0.00  0.00    +0.000 HD
ENDROOT
BRANCH   2   5
ATOM      5  C   UNL     1       8.059   9.427  17.867  0.00  0.00    +0.000 C 
BRANCH   5   6
ATOM      6  C   UNL     1       9.037   9.883  18.942  0.00  0.00    +0.000 C 
BRANCH   6   7
ATOM      7  C   UNL     1       9.992  10.943  18.417  0.00  0.00    +0.000 C 
BRANCH   7   8
ATOM      8  C   UNL     1      10.126  12.070  19.434  0.00  0.00    +0.000 C 
BRANCH   8   9
ATOM      9  C   UNL     1       9.066  13.138  19.227  0.00  0.00    +0.000 C 
ATOM     10  S   UNL     1       9.684  14.503  18.197  0.00  0.00    +0.000 S 
ATOM     11  C   UNL     1       8.394  15.607  18.764  0.00  0.00    +0.000 C 
ATOM     12  C   UNL     1       8.145  15.252  20.229  0.00  0.00    +0.000 C 
ATOM     13  N   UNL     1       8.952  16.037  21.133  0.00  0.00    +0.000 N 
ATOM     14  C   UNL     1       9.854  15.274  21.849  0.00  0.00    +0.000 C 
ATOM     15  O   UNL     1      10.685  15.682  22.616  0.00  0.00    +0.000 OA
ATOM     16  N   UNL     1       9.620  13.956  21.525  0.00  0.00    +0.000 N 
ATOM     17  C   UNL     1       8.588  13.799  20.523  0.00  0.00    +0.000 C 
ATOM     18  H   UNL     1       8.974  17.054  21.202  0.00  0.00    +0.000 HD
ATOM     19  H   UNL     1      10.183  13.222  21.935  0.00  0.00    +0.000 HD
ENDBRANCH   8   9
ENDBRANCH   7   8
ENDBRANCH   6   7
ENDBRANCH   5   6
ENDBRANCH   2   5
BRANCH   1  20
ATOM     20  C   UNL     1       6.982   5.993  16.717  0.00  0.00    +0.000 C 
BRANCH  20  21
ATOM     21  C   UNL     1       5.591   5.655  16.200  0.00  0.00    +0.000 C 
BRANCH  21  22
ATOM     22  C   UNL     1       4.890   4.689  17.151  0.00  0.00    +0.000 C 
BRANCH  22  23
ATOM     23  C   UNL     1       4.500   5.396  18.442  0.00  0.00    +0.000 C 
BRANCH  23  24
ATOM     24  C   UNL     1       3.480   6.489  18.164  0.00  0.00    +0.000 C 
BRANCH  24  25
ATOM     25  C   UNL     1       2.435   6.524  19.269  0.00  0.00    +0.000 C 
BRANCH  25  26
ATOM     26  C   UNL     1       2.600   5.322  20.183  0.00  0.00    +0.000 C 
BRANCH  26  27
ATOM     27  C   UNL     1       1.244   4.697  20.474  0.00  0.00    +0.000 C 
BRANCH  27  28
ATOM     28  C   UNL     1       1.425   3.335  21.125  0.00  0.00    +0.000 C 
BRANCH  28  29
ATOM     29  C   UNL     1       2.149   2.393  20.176  0.00  0.00    +0.000 C 
BRANCH  29  31
ATOM     30  C   UNL     1       2.383   2.234  17.695  0.00  0.00    +0.000 C 
ATOM     31  C   UNL     1       1.404   2.292  18.851  0.00  0.00    +0.000 C 
ENDBRANCH  29  31
ENDBRANCH  28  29
ENDBRANCH  27  28
ENDBRANCH  26  27
ENDBRANCH  25  26
ENDBRANCH  24  25
ENDBRANCH  23  24
ENDBRANCH  22  23
ENDBRANCH  21  22
ENDBRANCH  20  21
ENDBRANCH   1  20
TORSDOF 16
ENDMDL
MODEL 7
REMARK VINA RESULT:      -6.3      4.911      6.908
REMARK  Name = 
REMARK  17 active torsions:
REMARK  status: ('A' for Active; 'I' for Inactive)
REMARK    1  A    between atoms: C_1  and  C_2
REMARK    2  A    between atoms: C_2  and  C_3
REMARK    3  A    between atoms: C_3  and  C_4
REMARK    4  A    between atoms: C_4  and  C_5
REMARK    5  A    between atoms: C_5  and  C_6
REMARK    6  A    between atoms: C_6  and  C_7
REMARK    7  A    between atoms: C_7  and  C_8
REMARK    8  A    between atoms: C_8  and  C_9
REMARK    9  A    between atoms: C_9  and  C_10
REMARK   10  A    between atoms: C_10  and  C_11
REMARK   11  A    between atoms: C_11  and  C_12
REMARK   12  A    between atoms: C_12  and  N_13
REMARK   13  A    between atoms: C_14  and  C_16
REMARK   14  A    between atoms: C_16  and  C_17
REMARK   15  A    between atoms: C_17  and  C_18
REMARK   16  A    between atoms: C_18  and  C_19
REMARK   17  A    between atoms: C_19  and  C_20
REMARK                            x       y       z     vdW  Elec       q    Type
REMARK                         _______ _______ _______ _____ _____    ______ ____
ROOT
ATOM      1  N   UNL     1       1.829   5.332  19.950  0.00  0.00    +0.000 N 
ATOM      2  C   UNL     1       2.834   5.951  19.238  0.00  0.00    +0.000 C 
ATOM      3  O   UNL     1       4.007   5.946  19.586  0.00  0.00    +0.000 OA
ATOM      4  H   UNL     1       0.873   5.376  19.624  0.00  0.00    +0.000 HD
ENDROOT
BRANCH   2   5
ATOM      5  C   UNL     1       2.355   6.679  17.999  0.00  0.00    +0.000 C 
BRANCH   5   6
ATOM      6  C   UNL     1       2.699   8.161  18.079  0.00  0.00    +0.000 C 
BRANCH   6   7
ATOM      7  C   UNL     1       1.482   9.033  17.820  0.00  0.00    +0.000 C 
BRANCH   7   8
ATOM      8  C   UNL     1       1.741  10.449  18.321  0.00  0.00    +0.000 C 
BRANCH   8   9
ATOM      9  C   UNL     1       0.808  10.818  19.461  0.00  0.00    +0.000 C 
ATOM     10  S   UNL     1      -0.878  11.145  18.865  0.00  0.00    +0.000 S 
ATOM     11  C   UNL     1      -1.306  12.038  20.356  0.00  0.00    +0.000 C 
ATOM     12  C   UNL     1      -0.041  12.780  20.785  0.00  0.00    +0.000 C 
ATOM     13  N   UNL     1       0.033  14.112  20.234  0.00  0.00    +0.000 N 
ATOM     14  C   UNL     1       1.095  14.277  19.367  0.00  0.00    +0.000 C 
ATOM     15  O   UNL     1       1.346  15.262  18.724  0.00  0.00    +0.000 OA
ATOM     16  N   UNL     1       1.818  13.106  19.381  0.00  0.00    +0.000 N 
ATOM     17  C   UNL     1       1.220  12.086  20.215  0.00  0.00    +0.000 C 
ATOM     18  H   UNL     1      -0.653  14.857  20.351  0.00  0.00    +0.000 HD
ATOM     19  H   UNL     1       2.642  13.007  18.801  0.00  0.00    +0.000 HD
ENDBRANCH   8   9
ENDBRANCH   7   8
ENDBRANCH   6   7
ENDBRANCH   5   6
ENDBRANCH   2   5
BRANCH   1  20
ATOM     20  C   UNL     1       2.152   4.625  21.164  0.00  0.00    +0.000 C 
BRANCH  20  21
ATOM     21  C   UNL     1       1.935   3.123  21.040  0.00  0.00    +0.000 C 
BRANCH  21  22
ATOM     22  C   UNL     1       2.907   2.528  20.026  0.00  0.00    +0.000 C 
BRANCH  22  23
ATOM     23  C   UNL     1       2.153   1.944  18.839  0.00  0.00    +0.000 C 
BRANCH  23  24
ATOM     24  C   UNL     1       2.549   2.653  17.554  0.00  0.00    +0.000 C 
BRANCH  24  25
ATOM     25  C   UNL     1       4.045   2.927  17.546  0.00  0.00    +0.000 C 
BRANCH  25  26
ATOM     26  C   UNL     1       4.369   4.037  16.561  0.00  0.00    +0.000 C 
BRANCH  26  27
ATOM     27  C   UNL     1       5.791   3.880  16.045  0.00  0.00    +0.000 C 
BRANCH  27  28
ATOM     28  C   UNL     1       6.377   5.241  15.707  0.00  0.00    +0.000 C 
BRANCH  28  29
ATOM     29  C   UNL     1       5.905   6.279  16.712  0.00  0.00    +0.000 C 
BRANCH  29  31
ATOM     30  C   UNL     1       7.614   6.052  18.518  0.00  0.00    +0.000 C 
ATOM     31  C   UNL     1       7.094   6.936  17.402  0.00  0.00    +0.000 C 
ENDBRANCH  29  31
ENDBRANCH  28  29
ENDBRANCH  27  28
ENDBRANCH  26  27
ENDBRANCH  25  26
ENDBRANCH  24  25
ENDBRANCH  23  24
ENDBRANCH  22  23
ENDBRANCH  21  22
ENDBRANCH  20  21
ENDBRANCH   1  20
TORSDOF 16
ENDMDL
MODEL 8
REMARK VINA RESULT:      -6.3      2.996      4.117
REMARK  Name = 
REMARK  17 active torsions:
REMARK  status: ('A' for Active; 'I' for Inactive)
REMARK    1  A    between atoms: C_1  and  C_2
REMARK    2  A    between atoms: C_2  and  C_3
REMARK    3  A    between atoms: C_3  and  C_4
REMARK    4  A    between atoms: C_4  and  C_5
REMARK    5  A    between atoms: C_5  and  C_6
REMARK    6  A    between atoms: C_6  and  C_7
REMARK    7  A    between atoms: C_7  and  C_8
REMARK    8  A    between atoms: C_8  and  C_9
REMARK    9  A    between atoms: C_9  and  C_10
REMARK   10  A    between atoms: C_10  and  C_11
REMARK   11  A    between atoms: C_11  and  C_12
REMARK   12  A    between atoms: C_12  and  N_13
REMARK   13  A    between atoms: C_14  and  C_16
REMARK   14  A    between atoms: C_16  and  C_17
REMARK   15  A    between atoms: C_17  and  C_18
REMARK   16  A    between atoms: C_18  and  C_19
REMARK   17  A    between atoms: C_19  and  C_20
REMARK                            x       y       z     vdW  Elec       q    Type
REMARK                         _______ _______ _______ _____ _____    ______ ____
ROOT
ATOM      1  N   UNL     1       5.859   5.438  18.432  0.00  0.00    +0.000 N 
ATOM      2  C   UNL     1       7.146   5.868  18.673  0.00  0.00    +0.000 C 
ATOM      3  O   UNL     1       7.870   5.378  19.529  0.00  0.00    +0.000 OA
ATOM      4  H   UNL     1       5.299   5.885  17.719  0.00  0.00    +0.000 HD
ENDROOT
BRANCH   2   5
ATOM      5  C   UNL     1       7.580   7.034  17.809  0.00  0.00    +0.000 C 
BRANCH   5   6
ATOM      6  C   UNL     1       8.479   7.980  18.594  0.00  0.00    +0.000 C 
BRANCH   6   7
ATOM      7  C   UNL     1       8.381   9.405  18.076  0.00  0.00    +0.000 C 
BRANCH   7   8
ATOM      8  C   UNL     1       9.226  10.332  18.943  0.00  0.00    +0.000 C 
BRANCH   8   9
ATOM      9  C   UNL     1      10.083  11.259  18.099  0.00  0.00    +0.000 C 
ATOM     10  S   UNL     1      11.682  11.598  18.895  0.00  0.00    +0.000 S 
ATOM     11  C   UNL     1      11.951  13.056  17.890  0.00  0.00    +0.000 C 
ATOM     12  C   UNL     1      10.576  13.690  17.685  0.00  0.00    +0.000 C 
ATOM     13  N   UNL     1      10.264  14.674  18.694  0.00  0.00    +0.000 N 
ATOM     14  C   UNL     1       9.187  14.316  19.480  0.00  0.00    +0.000 C 
ATOM     15  O   UNL     1       8.762  14.921  20.429  0.00  0.00    +0.000 OA
ATOM     16  N   UNL     1       8.683  13.141  18.970  0.00  0.00    +0.000 N 
ATOM     17  C   UNL     1       9.456  12.635  17.856  0.00  0.00    +0.000 C 
ATOM     18  H   UNL     1      10.808  15.507  18.919  0.00  0.00    +0.000 HD
ATOM     19  H   UNL     1       7.887  12.694  19.407  0.00  0.00    +0.000 HD
ENDBRANCH   8   9
ENDBRANCH   7   8
ENDBRANCH   6   7
ENDBRANCH   5   6
ENDBRANCH   2   5
BRANCH   1  20
ATOM     20  C   UNL     1       5.317   4.349  19.206  0.00  0.00    +0.000 C 
BRANCH  20  21
ATOM     21  C   UNL     1       3.806   4.231  19.071  0.00  0.00    +0.000 C 
BRANCH  21  22
ATOM     22  C   UNL     1       3.336   4.889  17.776  0.00  0.00    +0.000 C 
BRANCH  22  23
ATOM     23  C   UNL     1       2.262   5.930  18.063  0.00  0.00    +0.000 C 
BRANCH  23  24
ATOM     24  C   UNL     1       2.824   7.334  17.905  0.00  0.00    +0.000 C 
BRANCH  24  25
ATOM     25  C   UNL     1       1.995   8.324  18.707  0.00  0.00    +0.000 C 
BRANCH  25  26
ATOM     26  C   UNL     1       1.763   9.590  17.898  0.00  0.00    +0.000 C 
BRANCH  26  27
ATOM     27  C   UNL     1       0.898  10.562  18.684  0.00  0.00    +0.000 C 
BRANCH  27  28
ATOM     28  C   UNL     1       0.216   9.840  19.836  0.00  0.00    +0.000 C 
BRANCH  28  29
ATOM     29  C   UNL     1      -0.043  10.808  20.980  0.00  0.00    +0.000 C 
BRANCH  29  31
ATOM     30  C   UNL     1      -0.408   8.617  22.122  0.00  0.00    +0.000 C 
ATOM     31  C   UNL     1      -0.033  10.074  22.315  0.00  0.00    +0.000 C 
ENDBRANCH  29  31
ENDBRANCH  28  29
ENDBRANCH  27  28
ENDBRANCH  26  27
ENDBRANCH  25  26
ENDBRANCH  24  25
ENDBRANCH  23  24
ENDBRANCH  22  23
ENDBRANCH  21  22
ENDBRANCH  20  21
ENDBRANCH   1  20
TORSDOF 16
ENDMDL
MODEL 9
REMARK VINA RESULT:      -6.3      5.764      7.216
REMARK  Name = 
REMARK  17 active torsions:
REMARK  status: ('A' for Active; 'I' for Inactive)
REMARK    1  A    between atoms: C_1  and  C_2
REMARK    2  A    between atoms: C_2  and  C_3
REMARK    3  A    between atoms: C_3  and  C_4
REMARK    4  A    between atoms: C_4  and  C_5
REMARK    5  A    between atoms: C_5  and  C_6
REMARK    6  A    between atoms: C_6  and  C_7
REMARK    7  A    between atoms: C_7  and  C_8
REMARK    8  A    between atoms: C_8  and  C_9
REMARK    9  A    between atoms: C_9  and  C_10
REMARK   10  A    between atoms: C_10  and  C_11
REMARK   11  A    between atoms: C_11  and  C_12
REMARK   12  A    between atoms: C_12  and  N_13
REMARK   13  A    between atoms: C_14  and  C_16
REMARK   14  A    between atoms: C_16  and  C_17
REMARK   15  A    between atoms: C_17  and  C_18
REMARK   16  A    between atoms: C_18  and  C_19
REMARK   17  A    between atoms: C_19  and  C_20
REMARK                            x       y       z     vdW  Elec       q    Type
REMARK                         _______ _______ _______ _____ _____    ______ ____
ROOT
ATOM      1  N   UNL     1       3.101   7.213  18.266  0.00  0.00    +0.000 N 
ATOM      2  C   UNL     1       2.302   8.322  18.091  0.00  0.00    +0.000 C 
ATOM      3  O   UNL     1       2.431   9.105  17.159  0.00  0.00    +0.000 OA
ATOM      4  H   UNL     1       2.959   6.604  19.059  0.00  0.00    +0.000 HD
ENDROOT
BRANCH   2   5
ATOM      5  C   UNL     1       1.266   8.515  19.179  0.00  0.00    +0.000 C 
BRANCH   5   6
ATOM      6  C   UNL     1       1.746   7.911  20.492  0.00  0.00    +0.000 C 
BRANCH   6   7
ATOM      7  C   UNL     1       1.153   8.632  21.691  0.00  0.00    +0.000 C 
BRANCH   7   8
ATOM      8  C   UNL     1      -0.120   9.363  21.279  0.00  0.00    +0.000 C 
BRANCH   8   9
ATOM      9  C   UNL     1      -0.022  10.854  21.555  0.00  0.00    +0.000 C 
ATOM     10  S   UNL     1      -1.247  11.385  22.789  0.00  0.00    +0.000 S 
ATOM     11  C   UNL     1      -1.108  13.099  22.290  0.00  0.00    +0.000 C 
ATOM     12  C   UNL     1      -0.884  13.085  20.779  0.00  0.00    +0.000 C 
ATOM     13  N   UNL     1      -2.119  13.165  20.036  0.00  0.00    +0.000 N 
ATOM     14  C   UNL     1      -2.371  12.033  19.286  0.00  0.00    +0.000 C 
ATOM     15  O   UNL     1      -3.356  11.813  18.631  0.00  0.00    +0.000 OA
ATOM     16  N   UNL     1      -1.280  11.204  19.421  0.00  0.00    +0.000 N 
ATOM     17  C   UNL     1      -0.283  11.731  20.327  0.00  0.00    +0.000 C 
ATOM     18  H   UNL     1      -2.821  13.902  20.100  0.00  0.00    +0.000 HD
ATOM     19  H   UNL     1      -1.260  10.305  18.955  0.00  0.00    +0.000 HD
ENDBRANCH   8   9
ENDBRANCH   7   8
ENDBRANCH   6   7
ENDBRANCH   5   6
ENDBRANCH   2   5
BRANCH   1  20
ATOM     20  C   UNL     1       4.143   6.931  17.310  0.00  0.00    +0.000 C 
BRANCH  20  21
ATOM     21  C   UNL     1       5.320   6.191  17.930  0.00  0.00    +0.000 C 
BRANCH  21  22
ATOM     22  C   UNL     1       4.868   5.415  19.164  0.00  0.00    +0.000 C 
BRANCH  22  23
ATOM     23  C   UNL     1       4.708   3.936  18.838  0.00  0.00    +0.000 C 
BRANCH  23  24
ATOM     24  C   UNL     1       4.820   3.705  17.339  0.00  0.00    +0.000 C 
BRANCH  24  25
ATOM     25  C   UNL     1       3.470   3.297  16.770  0.00  0.00    +0.000 C 
BRANCH  25  26
ATOM     26  C   UNL     1       2.627   2.632  17.846  0.00  0.00    +0.000 C 
BRANCH  26  27
ATOM     27  C   UNL     1       1.389   3.466  18.131  0.00  0.00    +0.000 C 
BRANCH  27  28
ATOM     28  C   UNL     1       0.803   3.088  19.482  0.00  0.00    +0.000 C 
BRANCH  28  29
ATOM     29  C   UNL     1       0.869   4.274  20.431  0.00  0.00    +0.000 C 
BRANCH  29  31
ATOM     30  C   UNL     1       2.436   2.760  21.651  0.00  0.00    +0.000 C 
ATOM     31  C   UNL     1       2.121   4.200  21.295  0.00  0.00    +0.000 C 
ENDBRANCH  29  31
ENDBRANCH  28  29
ENDBRANCH  27  28
ENDBRANCH  26  27
ENDBRANCH  25  26
ENDBRANCH  24  25
ENDBRANCH  23  24
ENDBRANCH  22  23
ENDBRANCH  21  22
ENDBRANCH  20  21
ENDBRANCH   1  20
TORSDOF 16
ENDMDL
