MODEL 1
REMARK VINA RESULT:      -8.6      0.000      0.000
REMARK  Name = 
REMARK  5 active torsions:
REMARK  status: ('A' for Active; 'I' for Inactive)
REMARK    1  A    between atoms: C_1  and  O_2
REMARK    2  A    between atoms: O_2  and  C_3
REMARK    3  A    between atoms: C_12  and  C_13
REMARK    4  A    between atoms: C_14  and  C_15
REMARK    5  A    between atoms: C_18  and  C_19
REMARK                            x       y       z     vdW  Elec       q    Type
REMARK                         _______ _______ _______ _____ _____    ______ ____
ROOT
ATOM      1  C   UNL     1       2.315   3.392  19.702  0.00  0.00    +0.000 A 
ATOM      2  C   UNL     1       1.728   2.306  19.045  0.00  0.00    +0.000 A 
ATOM      3  C   UNL     1       2.219   1.883  17.814  0.00  0.00    +0.000 A 
ATOM      4  C   UNL     1       3.295   2.546  17.228  0.00  0.00    +0.000 A 
ATOM      5  C   UNL     1       3.907   3.648  17.860  0.00  0.00    +0.000 A 
ATOM      6  C   UNL     1       3.412   4.076  19.113  0.00  0.00    +0.000 A 
ATOM      7  C   UNL     1       4.043   5.176  19.734  0.00  0.00    +0.000 A 
ATOM      8  C   UNL     1       5.123   5.841  19.141  0.00  0.00    +0.000 A 
ATOM      9  C   UNL     1       5.619   5.433  17.901  0.00  0.00    +0.000 A 
ATOM     10  C   UNL     1       6.745   6.119  17.233  0.00  0.00    +0.000 A 
ATOM     11  C   UNL     1       7.140   5.645  16.041  0.00  0.00    +0.000 A 
ATOM     12  C   UNL     1       6.511   4.502  15.368  0.00  0.00    +0.000 A 
ATOM     13  O   UNL     1       6.921   4.110  14.282  0.00  0.00    +0.000 OA
ATOM     14  O   UNL     1       5.457   3.896  16.023  0.00  0.00    +0.000 OA
ATOM     15  C   UNL     1       4.997   4.345  17.283  0.00  0.00    +0.000 A 
ENDROOT
BRANCH   1  17
ATOM     16  C   UNL     1       1.635   2.950  21.942  0.00  0.00    +0.000 C 
ATOM     17  O   UNL     1       1.850   3.891  20.896  0.00  0.00    +0.000 OA
ENDBRANCH   1  17
BRANCH  10  18
ATOM     18  C   UNL     1       7.487   7.213  17.851  0.00  0.00    +0.000 C 
ATOM     19  C   UNL     1       7.558   8.470  17.380  0.00  0.00    +0.000 C 
BRANCH  19  20
ATOM     20  C   UNL     1       8.296   9.548  18.062  0.00  0.00    +0.000 A 
ATOM     21  C   UNL     1       9.004   9.328  19.253  0.00  0.00    +0.000 A 
ATOM     22  C   UNL     1       9.681  10.373  19.892  0.00  0.00    +0.000 A 
ATOM     23  C   UNL     1       9.675  11.654  19.336  0.00  0.00    +0.000 A 
ATOM     24  C   UNL     1       9.005  11.878  18.131  0.00  0.00    +0.000 A 
ATOM     25  C   UNL     1       8.325  10.831  17.495  0.00  0.00    +0.000 A 
BRANCH  23  26
ATOM     26  C   UNL     1      10.351  12.730  20.004  0.00  0.00    +0.000 C 
ATOM     27  N   UNL     1      10.902  13.599  20.539  0.00  0.00    +0.000 NA
ENDBRANCH  23  26
ENDBRANCH  19  20
ENDBRANCH  10  18
TORSDOF 4
ENDMDL
MODEL 2
REMARK VINA RESULT:      -7.8      0.589      1.125
REMARK  Name = 
REMARK  5 active torsions:
REMARK  status: ('A' for Active; 'I' for Inactive)
REMARK    1  A    between atoms: C_1  and  O_2
REMARK    2  A    between atoms: O_2  and  C_3
REMARK    3  A    between atoms: C_12  and  C_13
REMARK    4  A    between atoms: C_14  and  C_15
REMARK    5  A    between atoms: C_18  and  C_19
REMARK                            x       y       z     vdW  Elec       q    Type
REMARK                         _______ _______ _______ _____ _____    ______ ____
ROOT
ATOM      1  C   UNL     1       2.146   3.766  19.730  0.00  0.00    +0.000 A 
ATOM      2  C   UNL     1       1.523   2.664  19.136  0.00  0.00    +0.000 A 
ATOM      3  C   UNL     1       2.017   2.135  17.948  0.00  0.00    +0.000 A 
ATOM      4  C   UNL     1       3.132   2.709  17.342  0.00  0.00    +0.000 A 
ATOM      5  C   UNL     1       3.781   3.824  17.910  0.00  0.00    +0.000 A 
ATOM      6  C   UNL     1       3.282   4.359  19.120  0.00  0.00    +0.000 A 
ATOM      7  C   UNL     1       3.951   5.471  19.678  0.00  0.00    +0.000 A 
ATOM      8  C   UNL     1       5.071   6.045  19.065  0.00  0.00    +0.000 A 
ATOM      9  C   UNL     1       5.571   5.531  17.867  0.00  0.00    +0.000 A 
ATOM     10  C   UNL     1       6.739   6.119  17.179  0.00  0.00    +0.000 A 
ATOM     11  C   UNL     1       7.135   5.548  16.031  0.00  0.00    +0.000 A 
ATOM     12  C   UNL     1       6.468   4.389  15.424  0.00  0.00    +0.000 A 
ATOM     13  O   UNL     1       6.880   3.906  14.376  0.00  0.00    +0.000 OA
ATOM     14  O   UNL     1       5.376   3.876  16.095  0.00  0.00    +0.000 OA
ATOM     15  C   UNL     1       4.913   4.431  17.312  0.00  0.00    +0.000 A 
ENDROOT
BRANCH   1  17
ATOM     16  C   UNL     1       1.403   5.760  20.801  0.00  0.00    +0.000 C 
ATOM     17  O   UNL     1       1.681   4.367  20.877  0.00  0.00    +0.000 OA
ENDBRANCH   1  17
BRANCH  10  18
ATOM     18  C   UNL     1       7.519   7.220  17.736  0.00  0.00    +0.000 C 
ATOM     19  C   UNL     1       7.455   8.501  17.335  0.00  0.00    +0.000 C 
BRANCH  19  20
ATOM     20  C   UNL     1       8.241   9.582  17.956  0.00  0.00    +0.000 A 
ATOM     21  C   UNL     1       8.242  10.890  17.448  0.00  0.00    +0.000 A 
ATOM     22  C   UNL     1       9.013  11.893  18.045  0.00  0.00    +0.000 A 
ATOM     23  C   UNL     1       9.782  11.608  19.175  0.00  0.00    +0.000 A 
ATOM     24  C   UNL     1       9.760  10.319  19.713  0.00  0.00    +0.000 A 
ATOM     25  C   UNL     1       8.990   9.314  19.112  0.00  0.00    +0.000 A 
BRANCH  23  26
ATOM     26  C   UNL     1      10.589  12.634  19.773  0.00  0.00    +0.000 C 
ATOM     27  N   UNL     1      11.237  13.460  20.262  0.00  0.00    +0.000 NA
ENDBRANCH  23  26
ENDBRANCH  19  20
ENDBRANCH  10  18
TORSDOF 4
ENDMDL
MODEL 3
REMARK VINA RESULT:      -7.8      5.101     10.389
REMARK  Name = 
REMARK  5 active torsions:
REMARK  status: ('A' for Active; 'I' for Inactive)
REMARK    1  A    between atoms: C_1  and  O_2
REMARK    2  A    between atoms: O_2  and  C_3
REMARK    3  A    between atoms: C_12  and  C_13
REMARK    4  A    between atoms: C_14  and  C_15
REMARK    5  A    between atoms: C_18  and  C_19
REMARK                            x       y       z     vdW  Elec       q    Type
REMARK                         _______ _______ _______ _____ _____    ______ ____
ROOT
ATOM      1  C   UNL     1       9.570  15.127  23.080  0.00  0.00    +0.000 A 
ATOM      2  C   UNL     1      10.333  16.288  22.924  0.00  0.00    +0.000 A 
ATOM      3  C   UNL     1      11.104  16.472  21.782  0.00  0.00    +0.000 A 
ATOM      4  C   UNL     1      11.124  15.494  20.790  0.00  0.00    +0.000 A 
ATOM      5  C   UNL     1      10.372  14.308  20.917  0.00  0.00    +0.000 A 
ATOM      6  C   UNL     1       9.584  14.123  22.076  0.00  0.00    +0.000 A 
ATOM      7  C   UNL     1       8.832  12.933  22.181  0.00  0.00    +0.000 A 
ATOM      8  C   UNL     1       8.855  11.951  21.183  0.00  0.00    +0.000 A 
ATOM      9  C   UNL     1       9.633  12.118  20.036  0.00  0.00    +0.000 A 
ATOM     10  C   UNL     1       9.700  11.099  18.968  0.00  0.00    +0.000 A 
ATOM     11  C   UNL     1      10.482  11.361  17.909  0.00  0.00    +0.000 A 
ATOM     12  C   UNL     1      11.274  12.588  17.763  0.00  0.00    +0.000 A 
ATOM     13  O   UNL     1      11.965  12.774  16.769  0.00  0.00    +0.000 OA
ATOM     14  O   UNL     1      11.190  13.510  18.788  0.00  0.00    +0.000 OA
ATOM     15  C   UNL     1      10.379  13.294  19.928  0.00  0.00    +0.000 A 
ENDROOT
BRANCH   1  17
ATOM     16  C   UNL     1       9.227  15.507  25.407  0.00  0.00    +0.000 C 
ATOM     17  O   UNL     1       8.824  14.860  24.205  0.00  0.00    +0.000 OA
ENDBRANCH   1  17
BRANCH  10  18
ATOM     18  C   UNL     1       8.893   9.883  18.979  0.00  0.00    +0.000 C 
ATOM     19  C   UNL     1       8.528   9.180  17.892  0.00  0.00    +0.000 C 
BRANCH  19  20
ATOM     20  C   UNL     1       7.740   7.937  17.962  0.00  0.00    +0.000 A 
ATOM     21  C   UNL     1       6.553   7.765  17.233  0.00  0.00    +0.000 A 
ATOM     22  C   UNL     1       5.813   6.582  17.331  0.00  0.00    +0.000 A 
ATOM     23  C   UNL     1       6.260   5.542  18.149  0.00  0.00    +0.000 A 
ATOM     24  C   UNL     1       7.459   5.686  18.851  0.00  0.00    +0.000 A 
ATOM     25  C   UNL     1       8.197   6.873  18.753  0.00  0.00    +0.000 A 
BRANCH  23  26
ATOM     26  C   UNL     1       5.487   4.337  18.266  0.00  0.00    +0.000 C 
ATOM     27  N   UNL     1       4.858   3.369  18.361  0.00  0.00    +0.000 NA
ENDBRANCH  23  26
ENDBRANCH  19  20
ENDBRANCH  10  18
TORSDOF 4
ENDMDL
MODEL 4
REMARK VINA RESULT:      -7.4      4.907      7.430
REMARK  Name = 
REMARK  5 active torsions:
REMARK  status: ('A' for Active; 'I' for Inactive)
REMARK    1  A    between atoms: C_1  and  O_2
REMARK    2  A    between atoms: O_2  and  C_3
REMARK    3  A    between atoms: C_12  and  C_13
REMARK    4  A    between atoms: C_14  and  C_15
REMARK    5  A    between atoms: C_18  and  C_19
REMARK                            x       y       z     vdW  Elec       q    Type
REMARK                         _______ _______ _______ _____ _____    ______ ____
ROOT
ATOM      1  C   UNL     1       5.894   5.894  16.460  0.00  0.00    +0.000 A 
ATOM      2  C   UNL     1       6.387   4.703  15.918  0.00  0.00    +0.000 A 
ATOM      3  C   UNL     1       5.809   3.486  16.260  0.00  0.00    +0.000 A 
ATOM      4  C   UNL     1       4.739   3.449  17.151  0.00  0.00    +0.000 A 
ATOM      5  C   UNL     1       4.220   4.630  17.721  0.00  0.00    +0.000 A 
ATOM      6  C   UNL     1       4.804   5.868  17.371  0.00  0.00    +0.000 A 
ATOM      7  C   UNL     1       4.266   7.040  17.945  0.00  0.00    +0.000 A 
ATOM      8  C   UNL     1       3.191   7.000  18.841  0.00  0.00    +0.000 A 
ATOM      9  C   UNL     1       2.608   5.783  19.201  0.00  0.00    +0.000 A 
ATOM     10  C   UNL     1       1.484   5.694  20.157  0.00  0.00    +0.000 A 
ATOM     11  C   UNL     1       1.001   4.474  20.435  0.00  0.00    +0.000 A 
ATOM     12  C   UNL     1       1.532   3.234  19.853  0.00  0.00    +0.000 A 
ATOM     13  O   UNL     1       1.043   2.148  20.140  0.00  0.00    +0.000 OA
ATOM     14  O   UNL     1       2.587   3.361  18.972  0.00  0.00    +0.000 OA
ATOM     15  C   UNL     1       3.137   4.621  18.635  0.00  0.00    +0.000 A 
ENDROOT
BRANCH   1  17
ATOM     16  C   UNL     1       7.459   7.573  17.101  0.00  0.00    +0.000 C 
ATOM     17  O   UNL     1       6.449   7.127  16.202  0.00  0.00    +0.000 OA
ENDBRANCH   1  17
BRANCH  10  18
ATOM     18  C   UNL     1       0.835   6.868  20.730  0.00  0.00    +0.000 C 
ATOM     19  C   UNL     1       1.395   8.083  20.861  0.00  0.00    +0.000 C 
BRANCH  19  20
ATOM     20  C   UNL     1       0.681   9.247  21.416  0.00  0.00    +0.000 A 
ATOM     21  C   UNL     1       0.718  10.508  20.802  0.00  0.00    +0.000 A 
ATOM     22  C   UNL     1       0.047  11.601  21.360  0.00  0.00    +0.000 A 
ATOM     23  C   UNL     1      -0.690  11.445  22.536  0.00  0.00    +0.000 A 
ATOM     24  C   UNL     1      -0.766  10.186  23.137  0.00  0.00    +0.000 A 
ATOM     25  C   UNL     1      -0.090   9.093  22.578  0.00  0.00    +0.000 A 
BRANCH  23  26
ATOM     26  C   UNL     1      -1.359  12.573  23.120  0.00  0.00    +0.000 C 
ATOM     27  N   UNL     1      -1.893  13.485  23.594  0.00  0.00    +0.000 NA
ENDBRANCH  23  26
ENDBRANCH  19  20
ENDBRANCH  10  18
TORSDOF 4
ENDMDL
MODEL 5
REMARK VINA RESULT:      -7.4      7.481     10.677
REMARK  Name = 
REMARK  5 active torsions:
REMARK  status: ('A' for Active; 'I' for Inactive)
REMARK    1  A    between atoms: C_1  and  O_2
REMARK    2  A    between atoms: O_2  and  C_3
REMARK    3  A    between atoms: C_12  and  C_13
REMARK    4  A    between atoms: C_14  and  C_15
REMARK    5  A    between atoms: C_18  and  C_19
REMARK                            x       y       z     vdW  Elec       q    Type
REMARK                         _______ _______ _______ _____ _____    ______ ____
ROOT
ATOM      1  C   UNL     1       2.641  16.207  18.229  0.00  0.00    +0.000 A 
ATOM      2  C   UNL     1       1.824  17.340  18.181  0.00  0.00    +0.000 A 
ATOM      3  C   UNL     1       0.452  17.224  18.380  0.00  0.00    +0.000 A 
ATOM      4  C   UNL     1      -0.113  15.974  18.621  0.00  0.00    +0.000 A 
ATOM      5  C   UNL     1       0.680  14.810  18.670  0.00  0.00    +0.000 A 
ATOM      6  C   UNL     1       2.075  14.927  18.473  0.00  0.00    +0.000 A 
ATOM      7  C   UNL     1       2.854  13.751  18.534  0.00  0.00    +0.000 A 
ATOM      8  C   UNL     1       2.282  12.496  18.775  0.00  0.00    +0.000 A 
ATOM      9  C   UNL     1       0.905  12.364  18.967  0.00  0.00    +0.000 A 
ATOM     10  C   UNL     1       0.259  11.056  19.206  0.00  0.00    +0.000 A 
ATOM     11  C   UNL     1      -1.072  11.043  19.373  0.00  0.00    +0.000 A 
ATOM     12  C   UNL     1      -1.912  12.246  19.321  0.00  0.00    +0.000 A 
ATOM     13  O   UNL     1      -3.124  12.172  19.490  0.00  0.00    +0.000 OA
ATOM     14  O   UNL     1      -1.271  13.446  19.087  0.00  0.00    +0.000 OA
ATOM     15  C   UNL     1       0.131  13.525  18.907  0.00  0.00    +0.000 A 
ENDROOT
BRANCH   1  17
ATOM     16  C   UNL     1       4.806  16.821  19.012  0.00  0.00    +0.000 C 
ATOM     17  O   UNL     1       3.996  16.244  17.994  0.00  0.00    +0.000 OA
ENDBRANCH   1  17
BRANCH  10  18
ATOM     18  C   UNL     1       1.011   9.814  19.353  0.00  0.00    +0.000 C 
ATOM     19  C   UNL     1       1.571   9.118  18.348  0.00  0.00    +0.000 C 
BRANCH  19  20
ATOM     20  C   UNL     1       2.351   7.885  18.557  0.00  0.00    +0.000 A 
ATOM     21  C   UNL     1       2.113   7.027  19.641  0.00  0.00    +0.000 A 
ATOM     22  C   UNL     1       2.881   5.872  19.827  0.00  0.00    +0.000 A 
ATOM     23  C   UNL     1       3.889   5.547  18.917  0.00  0.00    +0.000 A 
ATOM     24  C   UNL     1       4.110   6.373  17.812  0.00  0.00    +0.000 A 
ATOM     25  C   UNL     1       3.342   7.531  17.630  0.00  0.00    +0.000 A 
BRANCH  23  26
ATOM     26  C   UNL     1       4.690   4.373  19.121  0.00  0.00    +0.000 C 
ATOM     27  N   UNL     1       5.342   3.430  19.290  0.00  0.00    +0.000 NA
ENDBRANCH  23  26
ENDBRANCH  19  20
ENDBRANCH  10  18
TORSDOF 4
ENDMDL
MODEL 6
REMARK VINA RESULT:      -7.4      5.321      7.757
REMARK  Name = 
REMARK  5 active torsions:
REMARK  status: ('A' for Active; 'I' for Inactive)
REMARK    1  A    between atoms: C_1  and  O_2
REMARK    2  A    between atoms: O_2  and  C_3
REMARK    3  A    between atoms: C_12  and  C_13
REMARK    4  A    between atoms: C_14  and  C_15
REMARK    5  A    between atoms: C_18  and  C_19
REMARK                            x       y       z     vdW  Elec       q    Type
REMARK                         _______ _______ _______ _____ _____    ______ ____
ROOT
ATOM      1  C   UNL     1       0.766  10.633  19.902  0.00  0.00    +0.000 A 
ATOM      2  C   UNL     1       0.225  10.872  21.169  0.00  0.00    +0.000 A 
ATOM      3  C   UNL     1       0.204   9.862  22.124  0.00  0.00    +0.000 A 
ATOM      4  C   UNL     1       0.717   8.603  21.818  0.00  0.00    +0.000 A 
ATOM      5  C   UNL     1       1.264   8.325  20.549  0.00  0.00    +0.000 A 
ATOM      6  C   UNL     1       1.290   9.353  19.579  0.00  0.00    +0.000 A 
ATOM      7  C   UNL     1       1.849   9.058  18.316  0.00  0.00    +0.000 A 
ATOM      8  C   UNL     1       2.363   7.792  18.012  0.00  0.00    +0.000 A 
ATOM      9  C   UNL     1       2.339   6.765  18.958  0.00  0.00    +0.000 A 
ATOM     10  C   UNL     1       2.854   5.410  18.671  0.00  0.00    +0.000 A 
ATOM     11  C   UNL     1       2.779   4.498  19.652  0.00  0.00    +0.000 A 
ATOM     12  C   UNL     1       2.209   4.770  20.977  0.00  0.00    +0.000 A 
ATOM     13  O   UNL     1       2.175   3.897  21.837  0.00  0.00    +0.000 OA
ATOM     14  O   UNL     1       1.732   6.046  21.201  0.00  0.00    +0.000 OA
ATOM     15  C   UNL     1       1.786   7.053  20.208  0.00  0.00    +0.000 A 
ENDROOT
BRANCH   1  17
ATOM     16  C   UNL     1      -0.270  12.539  18.916  0.00  0.00    +0.000 C 
ATOM     17  O   UNL     1       0.774  11.572  18.896  0.00  0.00    +0.000 OA
ENDBRANCH   1  17
BRANCH  10  18
ATOM     18  C   UNL     1       3.509   5.059  17.416  0.00  0.00    +0.000 C 
ATOM     19  C   UNL     1       4.799   5.293  17.118  0.00  0.00    +0.000 C 
BRANCH  19  20
ATOM     20  C   UNL     1       5.422   4.886  15.846  0.00  0.00    +0.000 A 
ATOM     21  C   UNL     1       6.754   5.196  15.535  0.00  0.00    +0.000 A 
ATOM     22  C   UNL     1       7.316   4.815  14.311  0.00  0.00    +0.000 A 
ATOM     23  C   UNL     1       6.555   4.098  13.384  0.00  0.00    +0.000 A 
ATOM     24  C   UNL     1       5.239   3.751  13.697  0.00  0.00    +0.000 A 
ATOM     25  C   UNL     1       4.678   4.137  14.922  0.00  0.00    +0.000 A 
BRANCH  23  26
ATOM     26  C   UNL     1       7.126   3.728  12.120  0.00  0.00    +0.000 C 
ATOM     27  N   UNL     1       7.590   3.423  11.103  0.00  0.00    +0.000 NA
ENDBRANCH  23  26
ENDBRANCH  19  20
ENDBRANCH  10  18
TORSDOF 4
ENDMDL
MODEL 7
REMARK VINA RESULT:      -7.3      4.970      7.334
REMARK  Name = 
REMARK  5 active torsions:
REMARK  status: ('A' for Active; 'I' for Inactive)
REMARK    1  A    between atoms: C_1  and  O_2
REMARK    2  A    between atoms: O_2  and  C_3
REMARK    3  A    between atoms: C_12  and  C_13
REMARK    4  A    between atoms: C_14  and  C_15
REMARK    5  A    between atoms: C_18  and  C_19
REMARK                            x       y       z     vdW  Elec       q    Type
REMARK                         _______ _______ _______ _____ _____    ______ ____
ROOT
ATOM      1  C   UNL     1       5.524   4.877  15.832  0.00  0.00    +0.000 A 
ATOM      2  C   UNL     1       5.763   3.518  15.604  0.00  0.00    +0.000 A 
ATOM      3  C   UNL     1       5.141   2.555  16.391  0.00  0.00    +0.000 A 
ATOM      4  C   UNL     1       4.281   2.943  17.416  0.00  0.00    +0.000 A 
ATOM      5  C   UNL     1       4.022   4.304  17.678  0.00  0.00    +0.000 A 
ATOM      6  C   UNL     1       4.650   5.283  16.875  0.00  0.00    +0.000 A 
ATOM      7  C   UNL     1       4.372   6.641  17.148  0.00  0.00    +0.000 A 
ATOM      8  C   UNL     1       3.508   7.027  18.180  0.00  0.00    +0.000 A 
ATOM      9  C   UNL     1       2.885   6.071  18.984  0.00  0.00    +0.000 A 
ATOM     10  C   UNL     1       1.981   6.436  20.094  0.00  0.00    +0.000 A 
ATOM     11  C   UNL     1       1.437   5.437  20.806  0.00  0.00    +0.000 A 
ATOM     12  C   UNL     1       1.700   4.015  20.549  0.00  0.00    +0.000 A 
ATOM     13  O   UNL     1       1.167   3.146  21.229  0.00  0.00    +0.000 OA
ATOM     14  O   UNL     1       2.556   3.718  19.508  0.00  0.00    +0.000 OA
ATOM     15  C   UNL     1       3.157   4.726  18.718  0.00  0.00    +0.000 A 
ENDROOT
BRANCH   1  17
ATOM     16  C   UNL     1       7.163   5.485  14.213  0.00  0.00    +0.000 C 
ATOM     17  O   UNL     1       6.143   5.881  15.124  0.00  0.00    +0.000 OA
ENDBRANCH   1  17
BRANCH  10  18
ATOM     18  C   UNL     1       1.593   7.813  20.383  0.00  0.00    +0.000 C 
ATOM     19  C   UNL     1       0.566   8.186  21.166  0.00  0.00    +0.000 C 
BRANCH  19  20
ATOM     20  C   UNL     1       0.239   9.594  21.453  0.00  0.00    +0.000 A 
ATOM     21  C   UNL     1       0.628  10.638  20.600  0.00  0.00    +0.000 A 
ATOM     22  C   UNL     1       0.321  11.969  20.905  0.00  0.00    +0.000 A 
ATOM     23  C   UNL     1      -0.399  12.275  22.062  0.00  0.00    +0.000 A 
ATOM     24  C   UNL     1      -0.825  11.241  22.899  0.00  0.00    +0.000 A 
ATOM     25  C   UNL     1      -0.514   9.909  22.594  0.00  0.00    +0.000 A 
BRANCH  23  26
ATOM     26  C   UNL     1      -0.694  13.642  22.384  0.00  0.00    +0.000 C 
ATOM     27  N   UNL     1      -0.924  14.747  22.644  0.00  0.00    +0.000 NA
ENDBRANCH  23  26
ENDBRANCH  19  20
ENDBRANCH  10  18
TORSDOF 4
ENDMDL
MODEL 8
REMARK VINA RESULT:      -7.2      7.450      9.268
REMARK  Name = 
REMARK  5 active torsions:
REMARK  status: ('A' for Active; 'I' for Inactive)
REMARK    1  A    between atoms: C_1  and  O_2
REMARK    2  A    between atoms: O_2  and  C_3
REMARK    3  A    between atoms: C_12  and  C_13
REMARK    4  A    between atoms: C_14  and  C_15
REMARK    5  A    between atoms: C_18  and  C_19
REMARK                            x       y       z     vdW  Elec       q    Type
REMARK                         _______ _______ _______ _____ _____    ______ ____
ROOT
ATOM      1  C   UNL     1      -4.086  10.756  16.503  0.00  0.00    +0.000 A 
ATOM      2  C   UNL     1      -5.071  11.587  17.045  0.00  0.00    +0.000 A 
ATOM      3  C   UNL     1      -4.877  12.186  18.285  0.00  0.00    +0.000 A 
ATOM      4  C   UNL     1      -3.701  11.954  18.994  0.00  0.00    +0.000 A 
ATOM      5  C   UNL     1      -2.690  11.117  18.480  0.00  0.00    +0.000 A 
ATOM      6  C   UNL     1      -2.884  10.511  17.218  0.00  0.00    +0.000 A 
ATOM      7  C   UNL     1      -1.857   9.683  16.715  0.00  0.00    +0.000 A 
ATOM      8  C   UNL     1      -0.676   9.450  17.432  0.00  0.00    +0.000 A 
ATOM      9  C   UNL     1      -0.473  10.037  18.682  0.00  0.00    +0.000 A 
ATOM     10  C   UNL     1       0.750   9.804  19.478  0.00  0.00    +0.000 A 
ATOM     11  C   UNL     1       0.841  10.416  20.669  0.00  0.00    +0.000 A 
ATOM     12  C   UNL     1      -0.204  11.287  21.221  0.00  0.00    +0.000 A 
ATOM     13  O   UNL     1      -0.061  11.825  22.312  0.00  0.00    +0.000 OA
ATOM     14  O   UNL     1      -1.333  11.472  20.449  0.00  0.00    +0.000 OA
ATOM     15  C   UNL     1      -1.487  10.858  19.183  0.00  0.00    +0.000 A 
ENDROOT
BRANCH   1  17
ATOM     16  C   UNL     1      -3.379  10.499  14.242  0.00  0.00    +0.000 C 
ATOM     17  O   UNL     1      -4.234  10.094  15.305  0.00  0.00    +0.000 OA
ENDBRANCH   1  17
BRANCH  10  18
ATOM     18  C   UNL     1       1.879   9.020  18.988  0.00  0.00    +0.000 C 
ATOM     19  C   UNL     1       2.095   7.719  19.247  0.00  0.00    +0.000 C 
BRANCH  19  20
ATOM     20  C   UNL     1       3.236   6.965  18.698  0.00  0.00    +0.000 A 
ATOM     21  C   UNL     1       3.726   5.802  19.311  0.00  0.00    +0.000 A 
ATOM     22  C   UNL     1       4.823   5.115  18.781  0.00  0.00    +0.000 A 
ATOM     23  C   UNL     1       5.438   5.572  17.612  0.00  0.00    +0.000 A 
ATOM     24  C   UNL     1       4.936   6.707  16.971  0.00  0.00    +0.000 A 
ATOM     25  C   UNL     1       3.839   7.395  17.506  0.00  0.00    +0.000 A 
BRANCH  23  26
ATOM     26  C   UNL     1       6.577   4.879  17.081  0.00  0.00    +0.000 C 
ATOM     27  N   UNL     1       7.494   4.319  16.646  0.00  0.00    +0.000 NA
ENDBRANCH  23  26
ENDBRANCH  19  20
ENDBRANCH  10  18
TORSDOF 4
ENDMDL
MODEL 9
REMARK VINA RESULT:      -7.1      7.136      9.367
REMARK  Name = 
REMARK  5 active torsions:
REMARK  status: ('A' for Active; 'I' for Inactive)
REMARK    1  A    between atoms: C_1  and  O_2
REMARK    2  A    between atoms: O_2  and  C_3
REMARK    3  A    between atoms: C_12  and  C_13
REMARK    4  A    between atoms: C_14  and  C_15
REMARK    5  A    between atoms: C_18  and  C_19
REMARK                            x       y       z     vdW  Elec       q    Type
REMARK                         _______ _______ _______ _____ _____    ______ ____
ROOT
ATOM      1  C   UNL     1      -3.391  12.003  18.595  0.00  0.00    +0.000 A 
ATOM      2  C   UNL     1      -4.099  12.702  19.578  0.00  0.00    +0.000 A 
ATOM      3  C   UNL     1      -3.684  12.656  20.905  0.00  0.00    +0.000 A 
ATOM      4  C   UNL     1      -2.565  11.906  21.259  0.00  0.00    +0.000 A 
ATOM      5  C   UNL     1      -1.832  11.185  20.294  0.00  0.00    +0.000 A 
ATOM      6  C   UNL     1      -2.250  11.235  18.945  0.00  0.00    +0.000 A 
ATOM      7  C   UNL     1      -1.498  10.513  17.992  0.00  0.00    +0.000 A 
ATOM      8  C   UNL     1      -0.374   9.760  18.351  0.00  0.00    +0.000 A 
ATOM      9  C   UNL     1       0.047   9.697  19.681  0.00  0.00    +0.000 A 
ATOM     10  C   UNL     1       1.216   8.899  20.105  0.00  0.00    +0.000 A 
ATOM     11  C   UNL     1       1.532   8.907  21.410  0.00  0.00    +0.000 A 
ATOM     12  C   UNL     1       0.777   9.648  22.427  0.00  0.00    +0.000 A 
ATOM     13  O   UNL     1       1.119   9.623  23.604  0.00  0.00    +0.000 OA
ATOM     14  O   UNL     1      -0.313  10.374  21.990  0.00  0.00    +0.000 OA
ATOM     15  C   UNL     1      -0.694  10.410  20.627  0.00  0.00    +0.000 A 
ENDROOT
BRANCH   1  17
ATOM     16  C   UNL     1      -5.162  11.786  17.016  0.00  0.00    +0.000 C 
ATOM     17  O   UNL     1      -3.775  11.967  17.273  0.00  0.00    +0.000 OA
ENDBRANCH   1  17
BRANCH  10  18
ATOM     18  C   UNL     1       2.078   8.191  19.165  0.00  0.00    +0.000 C 
ATOM     19  C   UNL     1       2.422   6.894  19.248  0.00  0.00    +0.000 C 
BRANCH  19  20
ATOM     20  C   UNL     1       3.270   6.217  18.250  0.00  0.00    +0.000 A 
ATOM     21  C   UNL     1       3.320   4.819  18.140  0.00  0.00    +0.000 A 
ATOM     22  C   UNL     1       4.148   4.201  17.197  0.00  0.00    +0.000 A 
ATOM     23  C   UNL     1       4.927   4.975  16.333  0.00  0.00    +0.000 A 
ATOM     24  C   UNL     1       4.857   6.368  16.407  0.00  0.00    +0.000 A 
ATOM     25  C   UNL     1       4.029   6.985  17.355  0.00  0.00    +0.000 A 
BRANCH  23  26
ATOM     26  C   UNL     1       5.792   4.339  15.381  0.00  0.00    +0.000 C 
ATOM     27  N   UNL     1       6.494   3.831  14.611  0.00  0.00    +0.000 NA
ENDBRANCH  23  26
ENDBRANCH  19  20
ENDBRANCH  10  18
TORSDOF 4
ENDMDL
