MODEL 1
REMARK VINA RESULT:      -8.8      0.000      0.000
REMARK  Name = 
REMARK  6 active torsions:
REMARK  status: ('A' for Active; 'I' for Inactive)
REMARK    1  A    between atoms: C_1  and  C_2
REMARK    2  A    between atoms: N_4  and  C_5
REMARK    3  A    between atoms: C_5  and  N_6
REMARK    4  A    between atoms: C_8  and  C_9
REMARK    5  A    between atoms: C_12  and  C_13
REMARK    6  A    between atoms: C_16  and  N_17
REMARK                            x       y       z     vdW  Elec       q    Type
REMARK                         _______ _______ _______ _____ _____    ______ ____
ROOT
ATOM      1  C   UNL     1       2.724   6.605  18.702  0.00  0.00    +0.000 A 
ATOM      2  C   UNL     1       2.376   7.848  18.161  0.00  0.00    +0.000 A 
ATOM      3  C   UNL     1       1.647   8.782  18.908  0.00  0.00    +0.000 A 
ATOM      4  C   UNL     1       1.218   8.507  20.218  0.00  0.00    +0.000 A 
ATOM      5  C   UNL     1       1.563   7.254  20.746  0.00  0.00    +0.000 A 
ATOM      6  C   UNL     1       2.304   6.322  20.004  0.00  0.00    +0.000 A 
ENDROOT
BRANCH   1   9
ATOM      7  N   UNL     1       5.152   4.606  16.847  0.00  0.00    +0.000 N 
ATOM      8  C   UNL     1       4.784   5.682  17.580  0.00  0.00    +0.000 A 
ATOM      9  C   UNL     1       3.490   5.635  17.920  0.00  0.00    +0.000 A 
ATOM     10  C   UNL     1       3.005   4.343  17.337  0.00  0.00    +0.000 A 
ATOM     11  O   UNL     1       1.877   3.888  17.405  0.00  0.00    +0.000 OA
ATOM     12  O   UNL     1       4.076   3.736  16.706  0.00  0.00    +0.000 OA
BRANCH   7  13
ATOM     13  C   UNL     1       6.413   4.199  16.299  0.00  0.00    +0.000 C 
BRANCH  13  17
ATOM     14  C   UNL     1       6.156   3.527  12.619  0.00  0.00    +0.000 C 
ATOM     15  C   UNL     1       6.566   4.230  13.882  0.00  0.00    +0.000 C 
ATOM     16  O   UNL     1       7.227   5.262  13.883  0.00  0.00    +0.000 OA
ATOM     17  N   UNL     1       6.148   3.604  15.027  0.00  0.00    +0.000 N 
ATOM     18  H   UNL     1       5.436   2.889  14.996  0.00  0.00    +0.000 HD
ENDBRANCH  13  17
ENDBRANCH   7  13
ENDBRANCH   1   9
BRANCH   4  19
ATOM     19  C   UNL     1       0.434   9.497  20.995  0.00  0.00    +0.000 A 
ATOM     20  C   UNL     1       0.115  10.760  20.456  0.00  0.00    +0.000 A 
ATOM     21  C   UNL     1      -0.602  11.715  21.186  0.00  0.00    +0.000 A 
ATOM     22  C   UNL     1      -1.032  11.410  22.479  0.00  0.00    +0.000 A 
ATOM     23  C   UNL     1      -0.747  10.163  23.041  0.00  0.00    +0.000 A 
ATOM     24  C   UNL     1      -0.014   9.223  22.302  0.00  0.00    +0.000 A 
BRANCH  22  25
ATOM     25  N   UNL     1      -1.784  12.408  23.252  0.00  0.00    +0.000 N 
ATOM     26  O   UNL     1      -2.933  12.113  23.606  0.00  0.00    +0.000 OA
ATOM     27  O   UNL     1      -1.223  13.484  23.499  0.00  0.00    +0.000 OA
ENDBRANCH  22  25
ENDBRANCH   4  19
TORSDOF 5
ENDMDL
MODEL 2
REMARK VINA RESULT:      -8.8      0.174      1.132
REMARK  Name = 
REMARK  6 active torsions:
REMARK  status: ('A' for Active; 'I' for Inactive)
REMARK    1  A    between atoms: C_1  and  C_2
REMARK    2  A    between atoms: N_4  and  C_5
REMARK    3  A    between atoms: C_5  and  N_6
REMARK    4  A    between atoms: C_8  and  C_9
REMARK    5  A    between atoms: C_12  and  C_13
REMARK    6  A    between atoms: C_16  and  N_17
REMARK                            x       y       z     vdW  Elec       q    Type
REMARK                         _______ _______ _______ _____ _____    ______ ____
ROOT
ATOM      1  C   UNL     1       2.665   6.675  18.757  0.00  0.00    +0.000 A 
ATOM      2  C   UNL     1       2.233   6.394  20.057  0.00  0.00    +0.000 A 
ATOM      3  C   UNL     1       1.477   7.323  20.785  0.00  0.00    +0.000 A 
ATOM      4  C   UNL     1       1.141   8.579  20.252  0.00  0.00    +0.000 A 
ATOM      5  C   UNL     1       1.590   8.855  18.951  0.00  0.00    +0.000 A 
ATOM      6  C   UNL     1       2.335   7.921  18.216  0.00  0.00    +0.000 A 
ENDROOT
BRANCH   1   9
ATOM      7  N   UNL     1       5.134   4.659  16.975  0.00  0.00    +0.000 N 
ATOM      8  C   UNL     1       4.751   5.740  17.695  0.00  0.00    +0.000 A 
ATOM      9  C   UNL     1       3.448   5.700  18.000  0.00  0.00    +0.000 A 
ATOM     10  C   UNL     1       2.973   4.407  17.409  0.00  0.00    +0.000 A 
ATOM     11  O   UNL     1       1.842   3.957  17.448  0.00  0.00    +0.000 OA
ATOM     12  O   UNL     1       4.058   3.794  16.808  0.00  0.00    +0.000 OA
BRANCH   7  13
ATOM     13  C   UNL     1       6.407   4.245  16.462  0.00  0.00    +0.000 C 
BRANCH  13  17
ATOM     14  C   UNL     1       6.393   3.795  12.740  0.00  0.00    +0.000 C 
ATOM     15  C   UNL     1       6.767   4.382  14.071  0.00  0.00    +0.000 C 
ATOM     16  O   UNL     1       7.533   5.332  14.186  0.00  0.00    +0.000 OA
ATOM     17  N   UNL     1       6.188   3.749  15.140  0.00  0.00    +0.000 N 
ATOM     18  H   UNL     1       5.408   3.122  15.010  0.00  0.00    +0.000 HD
ENDBRANCH  13  17
ENDBRANCH   7  13
ENDBRANCH   1   9
BRANCH   4  19
ATOM     19  C   UNL     1       0.354   9.562  21.035  0.00  0.00    +0.000 A 
ATOM     20  C   UNL     1      -0.032  10.798  20.475  0.00  0.00    +0.000 A 
ATOM     21  C   UNL     1      -0.752  11.748  21.208  0.00  0.00    +0.000 A 
ATOM     22  C   UNL     1      -1.118  11.466  22.526  0.00  0.00    +0.000 A 
ATOM     23  C   UNL     1      -0.764  10.246  23.110  0.00  0.00    +0.000 A 
ATOM     24  C   UNL     1      -0.030   9.311  22.367  0.00  0.00    +0.000 A 
BRANCH  22  25
ATOM     25  N   UNL     1      -1.872  12.459  23.303  0.00  0.00    +0.000 N 
ATOM     26  O   UNL     1      -1.313  13.534  23.555  0.00  0.00    +0.000 OA
ATOM     27  O   UNL     1      -3.020  12.159  23.657  0.00  0.00    +0.000 OA
ENDBRANCH  22  25
ENDBRANCH   4  19
TORSDOF 5
ENDMDL
MODEL 3
REMARK VINA RESULT:      -8.5      0.535      1.436
REMARK  Name = 
REMARK  6 active torsions:
REMARK  status: ('A' for Active; 'I' for Inactive)
REMARK    1  A    between atoms: C_1  and  C_2
REMARK    2  A    between atoms: N_4  and  C_5
REMARK    3  A    between atoms: C_5  and  N_6
REMARK    4  A    between atoms: C_8  and  C_9
REMARK    5  A    between atoms: C_12  and  C_13
REMARK    6  A    between atoms: C_16  and  N_17
REMARK                            x       y       z     vdW  Elec       q    Type
REMARK                         _______ _______ _______ _____ _____    ______ ____
ROOT
ATOM      1  C   UNL     1       2.532   7.072  18.875  0.00  0.00    +0.000 A 
ATOM      2  C   UNL     1       2.155   6.828  20.200  0.00  0.00    +0.000 A 
ATOM      3  C   UNL     1       1.382   7.754  20.913  0.00  0.00    +0.000 A 
ATOM      4  C   UNL     1       0.971   8.970  20.340  0.00  0.00    +0.000 A 
ATOM      5  C   UNL     1       1.365   9.209  19.014  0.00  0.00    +0.000 A 
ATOM      6  C   UNL     1       2.127   8.277  18.294  0.00  0.00    +0.000 A 
ENDROOT
BRANCH   1   9
ATOM      7  N   UNL     1       5.026   5.098  17.083  0.00  0.00    +0.000 N 
ATOM      8  C   UNL     1       4.616   6.194  17.762  0.00  0.00    +0.000 A 
ATOM      9  C   UNL     1       3.333   6.100  18.132  0.00  0.00    +0.000 A 
ATOM     10  C   UNL     1       2.906   4.753  17.634  0.00  0.00    +0.000 A 
ATOM     11  O   UNL     1       1.806   4.245  17.752  0.00  0.00    +0.000 OA
ATOM     12  O   UNL     1       3.995   4.168  17.014  0.00  0.00    +0.000 OA
BRANCH   7  13
ATOM     13  C   UNL     1       6.296   4.726  16.531  0.00  0.00    +0.000 C 
BRANCH  13  17
ATOM     14  C   UNL     1       6.272   3.726  12.918  0.00  0.00    +0.000 C 
ATOM     15  C   UNL     1       6.693   4.465  14.156  0.00  0.00    +0.000 C 
ATOM     16  O   UNL     1       7.554   5.337  14.149  0.00  0.00    +0.000 OA
ATOM     17  N   UNL     1       6.040   4.062  15.292  0.00  0.00    +0.000 N 
ATOM     18  H   UNL     1       5.200   3.506  15.236  0.00  0.00    +0.000 HD
ENDBRANCH  13  17
ENDBRANCH   7  13
ENDBRANCH   1   9
BRANCH   4  19
ATOM     19  C   UNL     1       0.166   9.950  21.107  0.00  0.00    +0.000 A 
ATOM     20  C   UNL     1      -0.302   9.653  22.404  0.00  0.00    +0.000 A 
ATOM     21  C   UNL     1      -1.085  10.557  23.132  0.00  0.00    +0.000 A 
ATOM     22  C   UNL     1      -1.400  11.797  22.573  0.00  0.00    +0.000 A 
ATOM     23  C   UNL     1      -0.942  12.132  21.296  0.00  0.00    +0.000 A 
ATOM     24  C   UNL     1      -0.172  11.210  20.574  0.00  0.00    +0.000 A 
BRANCH  22  25
ATOM     25  N   UNL     1      -2.223  12.750  23.331  0.00  0.00    +0.000 N 
ATOM     26  O   UNL     1      -3.244  12.317  23.879  0.00  0.00    +0.000 OA
ATOM     27  O   UNL     1      -1.844  13.929  23.372  0.00  0.00    +0.000 OA
ENDBRANCH  22  25
ENDBRANCH   4  19
TORSDOF 5
ENDMDL
MODEL 4
REMARK VINA RESULT:      -8.4      1.027      1.848
REMARK  Name = 
REMARK  6 active torsions:
REMARK  status: ('A' for Active; 'I' for Inactive)
REMARK    1  A    between atoms: C_1  and  C_2
REMARK    2  A    between atoms: N_4  and  C_5
REMARK    3  A    between atoms: C_5  and  N_6
REMARK    4  A    between atoms: C_8  and  C_9
REMARK    5  A    between atoms: C_12  and  C_13
REMARK    6  A    between atoms: C_16  and  N_17
REMARK                            x       y       z     vdW  Elec       q    Type
REMARK                         _______ _______ _______ _____ _____    ______ ____
ROOT
ATOM      1  C   UNL     1       3.345   6.446  18.079  0.00  0.00    +0.000 A 
ATOM      2  C   UNL     1       2.871   6.045  19.333  0.00  0.00    +0.000 A 
ATOM      3  C   UNL     1       2.094   6.906  20.120  0.00  0.00    +0.000 A 
ATOM      4  C   UNL     1       1.775   8.207  19.696  0.00  0.00    +0.000 A 
ATOM      5  C   UNL     1       2.265   8.602  18.442  0.00  0.00    +0.000 A 
ATOM      6  C   UNL     1       3.033   7.737  17.647  0.00  0.00    +0.000 A 
ENDROOT
BRANCH   1   9
ATOM      7  N   UNL     1       5.583   4.753  15.742  0.00  0.00    +0.000 N 
ATOM      8  C   UNL     1       5.018   5.855  16.289  0.00  0.00    +0.000 A 
ATOM      9  C   UNL     1       4.151   5.542  17.259  0.00  0.00    +0.000 A 
ATOM     10  C   UNL     1       4.210   4.047  17.334  0.00  0.00    +0.000 A 
ATOM     11  O   UNL     1       3.579   3.326  18.087  0.00  0.00    +0.000 OA
ATOM     12  O   UNL     1       5.125   3.612  16.393  0.00  0.00    +0.000 OA
BRANCH   7  13
ATOM     13  C   UNL     1       6.578   4.585  14.724  0.00  0.00    +0.000 C 
BRANCH  13  17
ATOM     14  C   UNL     1       5.829   2.524  11.683  0.00  0.00    +0.000 C 
ATOM     15  C   UNL     1       6.457   3.610  12.511  0.00  0.00    +0.000 C 
ATOM     16  O   UNL     1       7.226   4.441  12.043  0.00  0.00    +0.000 OA
ATOM     17  N   UNL     1       6.104   3.572  13.834  0.00  0.00    +0.000 N 
ATOM     18  H   UNL     1       5.317   3.022  14.145  0.00  0.00    +0.000 HD
ENDBRANCH  13  17
ENDBRANCH   7  13
ENDBRANCH   1   9
BRANCH   4  19
ATOM     19  C   UNL     1       0.965   9.116  20.542  0.00  0.00    +0.000 A 
ATOM     20  C   UNL     1       0.663   8.789  21.881  0.00  0.00    +0.000 A 
ATOM     21  C   UNL     1      -0.122   9.623  22.685  0.00  0.00    +0.000 A 
ATOM     22  C   UNL     1      -0.609  10.823  22.162  0.00  0.00    +0.000 A 
ATOM     23  C   UNL     1      -0.319  11.185  20.843  0.00  0.00    +0.000 A 
ATOM     24  C   UNL     1       0.456  10.332  20.046  0.00  0.00    +0.000 A 
BRANCH  22  25
ATOM     25  N   UNL     1      -1.436  11.702  23.000  0.00  0.00    +0.000 N 
ATOM     26  O   UNL     1      -0.958  12.797  23.326  0.00  0.00    +0.000 OA
ATOM     27  O   UNL     1      -2.557  11.294  23.329  0.00  0.00    +0.000 OA
ENDBRANCH  22  25
ENDBRANCH   4  19
TORSDOF 5
ENDMDL
MODEL 5
REMARK VINA RESULT:      -8.2      1.811      2.581
REMARK  Name = 
REMARK  6 active torsions:
REMARK  status: ('A' for Active; 'I' for Inactive)
REMARK    1  A    between atoms: C_1  and  C_2
REMARK    2  A    between atoms: N_4  and  C_5
REMARK    3  A    between atoms: C_5  and  N_6
REMARK    4  A    between atoms: C_8  and  C_9
REMARK    5  A    between atoms: C_12  and  C_13
REMARK    6  A    between atoms: C_16  and  N_17
REMARK                            x       y       z     vdW  Elec       q    Type
REMARK                         _______ _______ _______ _____ _____    ______ ____
ROOT
ATOM      1  C   UNL     1       4.216   6.000  17.442  0.00  0.00    +0.000 A 
ATOM      2  C   UNL     1       3.841   7.287  17.042  0.00  0.00    +0.000 A 
ATOM      3  C   UNL     1       2.997   8.073  17.837  0.00  0.00    +0.000 A 
ATOM      4  C   UNL     1       2.476   7.600  19.053  0.00  0.00    +0.000 A 
ATOM      5  C   UNL     1       2.850   6.304  19.439  0.00  0.00    +0.000 A 
ATOM      6  C   UNL     1       3.706   5.520  18.651  0.00  0.00    +0.000 A 
ENDROOT
BRANCH   1   9
ATOM      7  N   UNL     1       6.010   4.128  14.871  0.00  0.00    +0.000 N 
ATOM      8  C   UNL     1       5.006   4.926  15.303  0.00  0.00    +0.000 A 
ATOM      9  C   UNL     1       5.103   5.186  16.612  0.00  0.00    +0.000 A 
ATOM     10  C   UNL     1       6.349   4.470  17.035  0.00  0.00    +0.000 A 
ATOM     11  O   UNL     1       6.828   4.433  18.155  0.00  0.00    +0.000 OA
ATOM     12  O   UNL     1       6.882   3.852  15.919  0.00  0.00    +0.000 OA
BRANCH   7  13
ATOM     13  C   UNL     1       6.347   3.621  13.573  0.00  0.00    +0.000 C 
BRANCH  13  17
ATOM     14  C   UNL     1       3.761   3.271  10.881  0.00  0.00    +0.000 C 
ATOM     15  C   UNL     1       4.959   2.919  11.717  0.00  0.00    +0.000 C 
ATOM     16  O   UNL     1       5.644   1.924  11.510  0.00  0.00    +0.000 OA
ATOM     17  N   UNL     1       5.201   3.800  12.739  0.00  0.00    +0.000 N 
ATOM     18  H   UNL     1       4.761   4.708  12.755  0.00  0.00    +0.000 HD
ENDBRANCH  13  17
ENDBRANCH   7  13
ENDBRANCH   1   9
BRANCH   4  19
ATOM     19  C   UNL     1       1.571   8.434  19.880  0.00  0.00    +0.000 A 
ATOM     20  C   UNL     1       0.906   9.550  19.332  0.00  0.00    +0.000 A 
ATOM     21  C   UNL     1       0.068  10.363  20.106  0.00  0.00    +0.000 A 
ATOM     22  C   UNL     1      -0.135  10.056  21.452  0.00  0.00    +0.000 A 
ATOM     23  C   UNL     1       0.497   8.949  22.026  0.00  0.00    +0.000 A 
ATOM     24  C   UNL     1       1.345   8.154  21.242  0.00  0.00    +0.000 A 
BRANCH  22  25
ATOM     25  N   UNL     1      -1.011  10.905  22.270  0.00  0.00    +0.000 N 
ATOM     26  O   UNL     1      -1.074  10.664  23.483  0.00  0.00    +0.000 OA
ATOM     27  O   UNL     1      -1.634  11.808  21.696  0.00  0.00    +0.000 OA
ENDBRANCH  22  25
ENDBRANCH   4  19
TORSDOF 5
ENDMDL
MODEL 6
REMARK VINA RESULT:      -8.1      1.049      1.210
REMARK  Name = 
REMARK  6 active torsions:
REMARK  status: ('A' for Active; 'I' for Inactive)
REMARK    1  A    between atoms: C_1  and  C_2
REMARK    2  A    between atoms: N_4  and  C_5
REMARK    3  A    between atoms: C_5  and  N_6
REMARK    4  A    between atoms: C_8  and  C_9
REMARK    5  A    between atoms: C_12  and  C_13
REMARK    6  A    between atoms: C_16  and  N_17
REMARK                            x       y       z     vdW  Elec       q    Type
REMARK                         _______ _______ _______ _____ _____    ______ ____
ROOT
ATOM      1  C   UNL     1       2.284   7.706  18.867  0.00  0.00    +0.000 A 
ATOM      2  C   UNL     1       1.746   8.852  18.270  0.00  0.00    +0.000 A 
ATOM      3  C   UNL     1       0.915   9.719  18.992  0.00  0.00    +0.000 A 
ATOM      4  C   UNL     1       0.570   9.468  20.330  0.00  0.00    +0.000 A 
ATOM      5  C   UNL     1       1.106   8.310  20.915  0.00  0.00    +0.000 A 
ATOM      6  C   UNL     1       1.950   7.447  20.199  0.00  0.00    +0.000 A 
ENDROOT
BRANCH   1   9
ATOM      7  N   UNL     1       4.865   5.998  16.930  0.00  0.00    +0.000 N 
ATOM      8  C   UNL     1       4.342   7.079  17.554  0.00  0.00    +0.000 A 
ATOM      9  C   UNL     1       3.157   6.807  18.112  0.00  0.00    +0.000 A 
ATOM     10  C   UNL     1       2.934   5.357  17.811  0.00  0.00    +0.000 A 
ATOM     11  O   UNL     1       1.972   4.682  18.133  0.00  0.00    +0.000 OA
ATOM     12  O   UNL     1       4.028   4.900  17.098  0.00  0.00    +0.000 OA
BRANCH   7  13
ATOM     13  C   UNL     1       6.104   5.790  16.239  0.00  0.00    +0.000 C 
BRANCH  13  17
ATOM     14  C   UNL     1       6.303   3.774  13.083  0.00  0.00    +0.000 C 
ATOM     15  C   UNL     1       6.734   4.744  14.147  0.00  0.00    +0.000 C 
ATOM     16  O   UNL     1       7.789   5.365  14.091  0.00  0.00    +0.000 OA
ATOM     17  N   UNL     1       5.850   4.855  15.189  0.00  0.00    +0.000 N 
ATOM     18  H   UNL     1       4.907   4.503  15.107  0.00  0.00    +0.000 HD
ENDBRANCH  13  17
ENDBRANCH   7  13
ENDBRANCH   1   9
BRANCH   4  19
ATOM     19  C   UNL     1      -0.323  10.383  21.081  0.00  0.00    +0.000 A 
ATOM     20  C   UNL     1      -0.964  11.463  20.440  0.00  0.00    +0.000 A 
ATOM     21  C   UNL     1      -1.789  12.352  21.138  0.00  0.00    +0.000 A 
ATOM     22  C   UNL     1      -2.004  12.161  22.505  0.00  0.00    +0.000 A 
ATOM     23  C   UNL     1      -1.396  11.093  23.171  0.00  0.00    +0.000 A 
ATOM     24  C   UNL     1      -0.560  10.220  22.460  0.00  0.00    +0.000 A 
BRANCH  22  25
ATOM     25  N   UNL     1      -2.868  13.090  23.245  0.00  0.00    +0.000 N 
ATOM     26  O   UNL     1      -3.714  12.604  24.006  0.00  0.00    +0.000 OA
ATOM     27  O   UNL     1      -2.697  14.303  23.061  0.00  0.00    +0.000 OA
ENDBRANCH  22  25
ENDBRANCH   4  19
TORSDOF 5
ENDMDL
MODEL 7
REMARK VINA RESULT:      -8.1      0.948      1.424
REMARK  Name = 
REMARK  6 active torsions:
REMARK  status: ('A' for Active; 'I' for Inactive)
REMARK    1  A    between atoms: C_1  and  C_2
REMARK    2  A    between atoms: N_4  and  C_5
REMARK    3  A    between atoms: C_5  and  N_6
REMARK    4  A    between atoms: C_8  and  C_9
REMARK    5  A    between atoms: C_12  and  C_13
REMARK    6  A    between atoms: C_16  and  N_17
REMARK                            x       y       z     vdW  Elec       q    Type
REMARK                         _______ _______ _______ _____ _____    ______ ____
ROOT
ATOM      1  C   UNL     1       2.526   7.264  18.601  0.00  0.00    +0.000 A 
ATOM      2  C   UNL     1       2.056   8.354  17.860  0.00  0.00    +0.000 A 
ATOM      3  C   UNL     1       1.270   9.348  18.458  0.00  0.00    +0.000 A 
ATOM      4  C   UNL     1       0.905   9.285  19.813  0.00  0.00    +0.000 A 
ATOM      5  C   UNL     1       1.372   8.182  20.544  0.00  0.00    +0.000 A 
ATOM      6  C   UNL     1       2.170   7.192  19.951  0.00  0.00    +0.000 A 
ENDROOT
BRANCH   1   9
ATOM      7  N   UNL     1       5.074   5.150  17.061  0.00  0.00    +0.000 N 
ATOM      8  C   UNL     1       4.639   6.304  17.618  0.00  0.00    +0.000 A 
ATOM      9  C   UNL     1       3.351   6.232  17.975  0.00  0.00    +0.000 A 
ATOM     10  C   UNL     1       2.948   4.835  17.611  0.00  0.00    +0.000 A 
ATOM     11  O   UNL     1       1.852   4.327  17.762  0.00  0.00    +0.000 OA
ATOM     12  O   UNL     1       4.054   4.204  17.071  0.00  0.00    +0.000 OA
BRANCH   7  13
ATOM     13  C   UNL     1       6.357   4.740  16.571  0.00  0.00    +0.000 C 
BRANCH  13  17
ATOM     14  C   UNL     1       6.387   3.740  12.958  0.00  0.00    +0.000 C 
ATOM     15  C   UNL     1       6.764   4.503  14.195  0.00  0.00    +0.000 C 
ATOM     16  O   UNL     1       7.571   5.426  14.187  0.00  0.00    +0.000 OA
ATOM     17  N   UNL     1       6.139   4.062  15.332  0.00  0.00    +0.000 N 
ATOM     18  H   UNL     1       5.334   3.456  15.278  0.00  0.00    +0.000 HD
ENDBRANCH  13  17
ENDBRANCH   7  13
ENDBRANCH   1   9
BRANCH   4  19
ATOM     19  C   UNL     1       0.060  10.334  20.433  0.00  0.00    +0.000 A 
ATOM     20  C   UNL     1       0.040  10.523  21.830  0.00  0.00    +0.000 A 
ATOM     21  C   UNL     1      -0.771  11.492  22.433  0.00  0.00    +0.000 A 
ATOM     22  C   UNL     1      -1.573  12.309  21.635  0.00  0.00    +0.000 A 
ATOM     23  C   UNL     1      -1.569  12.160  20.245  0.00  0.00    +0.000 A 
ATOM     24  C   UNL     1      -0.763  11.176  19.658  0.00  0.00    +0.000 A 
BRANCH  22  25
ATOM     25  N   UNL     1      -2.428  13.327  22.261  0.00  0.00    +0.000 N 
ATOM     26  O   UNL     1      -2.555  14.409  21.674  0.00  0.00    +0.000 OA
ATOM     27  O   UNL     1      -2.968  13.039  23.338  0.00  0.00    +0.000 OA
ENDBRANCH  22  25
ENDBRANCH   4  19
TORSDOF 5
ENDMDL
MODEL 8
REMARK VINA RESULT:      -8.1      1.622      2.350
REMARK  Name = 
REMARK  6 active torsions:
REMARK  status: ('A' for Active; 'I' for Inactive)
REMARK    1  A    between atoms: C_1  and  C_2
REMARK    2  A    between atoms: N_4  and  C_5
REMARK    3  A    between atoms: C_5  and  N_6
REMARK    4  A    between atoms: C_8  and  C_9
REMARK    5  A    between atoms: C_12  and  C_13
REMARK    6  A    between atoms: C_16  and  N_17
REMARK                            x       y       z     vdW  Elec       q    Type
REMARK                         _______ _______ _______ _____ _____    ______ ____
ROOT
ATOM      1  C   UNL     1       3.863   6.411  17.923  0.00  0.00    +0.000 A 
ATOM      2  C   UNL     1       3.297   6.022  19.141  0.00  0.00    +0.000 A 
ATOM      3  C   UNL     1       2.395   6.855  19.817  0.00  0.00    +0.000 A 
ATOM      4  C   UNL     1       2.038   8.118  19.315  0.00  0.00    +0.000 A 
ATOM      5  C   UNL     1       2.621   8.502  18.098  0.00  0.00    +0.000 A 
ATOM      6  C   UNL     1       3.514   7.664  17.413  0.00  0.00    +0.000 A 
ENDROOT
BRANCH   1   9
ATOM      7  N   UNL     1       5.924   4.483  15.606  0.00  0.00    +0.000 N 
ATOM      8  C   UNL     1       4.961   5.388  15.898  0.00  0.00    +0.000 A 
ATOM      9  C   UNL     1       4.799   5.536  17.218  0.00  0.00    +0.000 A 
ATOM     10  C   UNL     1       5.818   4.615  17.817  0.00  0.00    +0.000 A 
ATOM     11  O   UNL     1       6.028   4.428  19.002  0.00  0.00    +0.000 OA
ATOM     12  O   UNL     1       6.500   4.007  16.779  0.00  0.00    +0.000 OA
BRANCH   7  13
ATOM     13  C   UNL     1       6.472   4.026  14.362  0.00  0.00    +0.000 C 
BRANCH  13  17
ATOM     14  C   UNL     1       4.373   3.206  11.366  0.00  0.00    +0.000 C 
ATOM     15  C   UNL     1       5.605   3.302  12.220  0.00  0.00    +0.000 C 
ATOM     16  O   UNL     1       6.710   2.934  11.836  0.00  0.00    +0.000 OA
ATOM     17  N   UNL     1       5.377   3.819  13.469  0.00  0.00    +0.000 N 
ATOM     18  H   UNL     1       4.517   4.305  13.679  0.00  0.00    +0.000 HD
ENDBRANCH  13  17
ENDBRANCH   7  13
ENDBRANCH   1   9
BRANCH   4  19
ATOM     19  C   UNL     1       1.095   8.998  20.044  0.00  0.00    +0.000 A 
ATOM     20  C   UNL     1       0.917   8.879  21.438  0.00  0.00    +0.000 A 
ATOM     21  C   UNL     1       0.011   9.685  22.139  0.00  0.00    +0.000 A 
ATOM     22  C   UNL     1      -0.727  10.649  21.448  0.00  0.00    +0.000 A 
ATOM     23  C   UNL     1      -0.567  10.805  20.069  0.00  0.00    +0.000 A 
ATOM     24  C   UNL     1       0.333   9.980  19.379  0.00  0.00    +0.000 A 
BRANCH  22  25
ATOM     25  N   UNL     1      -1.680  11.497  22.177  0.00  0.00    +0.000 N 
ATOM     26  O   UNL     1      -1.856  11.260  23.379  0.00  0.00    +0.000 OA
ATOM     27  O   UNL     1      -2.250  12.396  21.543  0.00  0.00    +0.000 OA
ENDBRANCH  22  25
ENDBRANCH   4  19
TORSDOF 5
ENDMDL
MODEL 9
REMARK VINA RESULT:      -8.0      1.881      2.925
REMARK  Name = 
REMARK  6 active torsions:
REMARK  status: ('A' for Active; 'I' for Inactive)
REMARK    1  A    between atoms: C_1  and  C_2
REMARK    2  A    between atoms: N_4  and  C_5
REMARK    3  A    between atoms: C_5  and  N_6
REMARK    4  A    between atoms: C_8  and  C_9
REMARK    5  A    between atoms: C_12  and  C_13
REMARK    6  A    between atoms: C_16  and  N_17
REMARK                            x       y       z     vdW  Elec       q    Type
REMARK                         _______ _______ _______ _____ _____    ______ ____
ROOT
ATOM      1  C   UNL     1       4.269   5.980  17.210  0.00  0.00    +0.000 A 
ATOM      2  C   UNL     1       4.102   7.347  16.964  0.00  0.00    +0.000 A 
ATOM      3  C   UNL     1       3.271   8.131  17.777  0.00  0.00    +0.000 A 
ATOM      4  C   UNL     1       2.559   7.578  18.855  0.00  0.00    +0.000 A 
ATOM      5  C   UNL     1       2.725   6.204  19.085  0.00  0.00    +0.000 A 
ATOM      6  C   UNL     1       3.566   5.420  18.280  0.00  0.00    +0.000 A 
ENDROOT
BRANCH   1   9
ATOM      7  N   UNL     1       6.000   4.088  14.611  0.00  0.00    +0.000 N 
ATOM      8  C   UNL     1       4.994   4.871  15.066  0.00  0.00    +0.000 A 
ATOM      9  C   UNL     1       5.141   5.168  16.363  0.00  0.00    +0.000 A 
ATOM     10  C   UNL     1       6.424   4.497  16.749  0.00  0.00    +0.000 A 
ATOM     11  O   UNL     1       6.952   4.504  17.847  0.00  0.00    +0.000 OA
ATOM     12  O   UNL     1       6.925   3.864  15.625  0.00  0.00    +0.000 OA
BRANCH   7  13
ATOM     13  C   UNL     1       6.295   3.556  13.312  0.00  0.00    +0.000 C 
BRANCH  13  17
ATOM     14  C   UNL     1       3.612   3.191  10.719  0.00  0.00    +0.000 C 
ATOM     15  C   UNL     1       4.819   2.827  11.536  0.00  0.00    +0.000 C 
ATOM     16  O   UNL     1       5.454   1.794  11.358  0.00  0.00    +0.000 OA
ATOM     17  N   UNL     1       5.132   3.745  12.505  0.00  0.00    +0.000 N 
ATOM     18  H   UNL     1       4.732   4.671  12.489  0.00  0.00    +0.000 HD
ENDBRANCH  13  17
ENDBRANCH   7  13
ENDBRANCH   1   9
BRANCH   4  19
ATOM     19  C   UNL     1       1.671   8.412  19.700  0.00  0.00    +0.000 A 
ATOM     20  C   UNL     1       1.408   8.067  21.042  0.00  0.00    +0.000 A 
ATOM     21  C   UNL     1       0.552   8.829  21.846  0.00  0.00    +0.000 A 
ATOM     22  C   UNL     1      -0.049   9.974  21.317  0.00  0.00    +0.000 A 
ATOM     23  C   UNL     1       0.199  10.353  19.995  0.00  0.00    +0.000 A 
ATOM     24  C   UNL     1       1.047   9.571  19.199  0.00  0.00    +0.000 A 
BRANCH  22  25
ATOM     25  N   UNL     1      -0.950  10.777  22.155  0.00  0.00    +0.000 N 
ATOM     26  O   UNL     1      -1.673  11.606  21.587  0.00  0.00    +0.000 OA
ATOM     27  O   UNL     1      -0.930  10.576  23.377  0.00  0.00    +0.000 OA
ENDBRANCH  22  25
ENDBRANCH   4  19
TORSDOF 5
ENDMDL
