MODEL 1
REMARK VINA RESULT:      -9.0      0.000      0.000
REMARK  Name = 
REMARK  9 active torsions:
REMARK  status: ('A' for Active; 'I' for Inactive)
REMARK    1  A    between atoms: N_1  and  C_2
REMARK    2  A    between atoms: C_5  and  C_6
REMARK    3  A    between atoms: C_6  and  C_7
REMARK    4  A    between atoms: C_7  and  N_8
REMARK    5  A    between atoms: N_16  and  C1*_17
REMARK    6  A    between atoms: C4*_19  and  C5*_20
REMARK    7  A    between atoms: C5*_20  and  O5*_21
REMARK    8  A    between atoms: C3*_22  and  O3*_23
REMARK    9  A    between atoms: C2*_24  and  O2*_25
REMARK                            x       y       z     vdW  Elec       q    Type
REMARK                         _______ _______ _______ _____ _____    ______ ____
ROOT
ATOM      1  N   UNL     1       8.044   7.434  18.881  0.00  0.00    +0.000 N 
ATOM      2  C   UNL     1       7.370   6.522  18.068  0.00  0.00    +0.000 A 
ATOM      3  N   UNL     1       7.729   6.429  16.769  0.00  0.00    +0.000 NA
ATOM      4  C   UNL     1       7.098   5.562  15.950  0.00  0.00    +0.000 A 
ATOM      5  N   UNL     1       7.477   5.525  14.614  0.00  0.00    +0.000 N 
ATOM      6  C   UNL     1       6.103   4.743  16.488  0.00  0.00    +0.000 A 
ATOM      7  N   UNL     1       5.329   3.746  15.935  0.00  0.00    +0.000 NA
ATOM      8  C   UNL     1       4.560   3.342  16.922  0.00  0.00    +0.000 A 
ATOM      9  N   UNL     1       4.790   4.048  18.076  0.00  0.00    +0.000 N 
ATOM     10  C   UNL     1       5.807   4.932  17.826  0.00  0.00    +0.000 A 
ATOM     11  N   UNL     1       6.394   5.806  18.667  0.00  0.00    +0.000 NA
ATOM     12  H   UNL     1       7.445   7.622  19.674  0.00  0.00    +0.000 HD
ATOM     13  H   UNL     1       8.411   5.886  14.477  0.00  0.00    +0.000 HD
ATOM     14  H   UNL     1       7.232   4.655  14.154  0.00  0.00    +0.000 HD
ENDROOT
BRANCH   9  15
ATOM     15  C1* UNL     1       4.041   3.872  19.299  0.00  0.00    +0.000 C 
ATOM     16  O4* UNL     1       3.476   2.543  19.327  0.00  0.00    +0.000 OA
ATOM     17  C4* UNL     1       2.139   2.626  19.876  0.00  0.00    +0.000 C 
ATOM     18  C3* UNL     1       1.965   4.053  20.395  0.00  0.00    +0.000 C 
ATOM     19  C2* UNL     1       2.905   4.866  19.518  0.00  0.00    +0.000 C 
BRANCH  18  20
ATOM     20  O3* UNL     1       2.413   4.184  21.759  0.00  0.00    +0.000 OA
ATOM     21  H3* UNL     1       2.466   3.300  22.167  0.00  0.00    +0.000 HD
ENDBRANCH  18  20
BRANCH  19  22
ATOM     22  O2* UNL     1       3.346   6.052  20.183  0.00  0.00    +0.000 OA
ATOM     23  H2* UNL     1       4.154   6.349  19.711  0.00  0.00    +0.000 HD
ENDBRANCH  19  22
BRANCH  17  24
ATOM     24  C5* UNL     1       1.120   2.259  18.794  0.00  0.00    +0.000 C 
BRANCH  24  25
ATOM     25  O5* UNL     1       1.780   1.711  17.655  0.00  0.00    +0.000 OA
ATOM     26  H5* UNL     1       1.128   1.132  17.214  0.00  0.00    +0.000 HD
ENDBRANCH  24  25
ENDBRANCH  17  24
ENDBRANCH   9  15
BRANCH   1  27
ATOM     27  C   UNL     1       8.542   8.612  18.165  0.00  0.00    +0.000 C 
BRANCH  27  28
ATOM     28  C   UNL     1       8.976   9.709  19.147  0.00  0.00    +0.000 C 
BRANCH  28  32
ATOM     29  C   UNL     1      10.639  13.192  17.144  0.00  0.00    +0.000 A 
ATOM     30  C   UNL     1      11.467  12.161  17.592  0.00  0.00    +0.000 A 
ATOM     31  C   UNL     1      10.934  11.053  18.268  0.00  0.00    +0.000 A 
ATOM     32  C   UNL     1       9.552  10.932  18.465  0.00  0.00    +0.000 A 
ATOM     33  C   UNL     1       8.720  11.951  17.982  0.00  0.00    +0.000 A 
ATOM     34  C   UNL     1       9.263  13.055  17.306  0.00  0.00    +0.000 A 
BRANCH  29  35
ATOM     35  N   UNL     1      11.160  14.215  16.342  0.00  0.00    +0.000 N 
ATOM     36  H   UNL     1      11.593  13.886  15.484  0.00  0.00    +0.000 HD
ATOM     37  H   UNL     1      11.748  14.874  16.842  0.00  0.00    +0.000 HD
ENDBRANCH  29  35
ENDBRANCH  28  32
ENDBRANCH  27  28
ENDBRANCH   1  27
TORSDOF 9
ENDMDL
MODEL 2
REMARK VINA RESULT:      -8.9      0.487      1.016
REMARK  Name = 
REMARK  9 active torsions:
REMARK  status: ('A' for Active; 'I' for Inactive)
REMARK    1  A    between atoms: N_1  and  C_2
REMARK    2  A    between atoms: C_5  and  C_6
REMARK    3  A    between atoms: C_6  and  C_7
REMARK    4  A    between atoms: C_7  and  N_8
REMARK    5  A    between atoms: N_16  and  C1*_17
REMARK    6  A    between atoms: C4*_19  and  C5*_20
REMARK    7  A    between atoms: C5*_20  and  O5*_21
REMARK    8  A    between atoms: C3*_22  and  O3*_23
REMARK    9  A    between atoms: C2*_24  and  O2*_25
REMARK                            x       y       z     vdW  Elec       q    Type
REMARK                         _______ _______ _______ _____ _____    ______ ____
ROOT
ATOM      1  N   UNL     1       8.071   7.468  18.835  0.00  0.00    +0.000 N 
ATOM      2  C   UNL     1       7.382   6.546  18.044  0.00  0.00    +0.000 A 
ATOM      3  N   UNL     1       7.714   6.445  16.739  0.00  0.00    +0.000 NA
ATOM      4  C   UNL     1       7.070   5.570  15.940  0.00  0.00    +0.000 A 
ATOM      5  N   UNL     1       7.420   5.523  14.597  0.00  0.00    +0.000 N 
ATOM      6  C   UNL     1       6.089   4.750  16.506  0.00  0.00    +0.000 A 
ATOM      7  N   UNL     1       5.308   3.746  15.977  0.00  0.00    +0.000 NA
ATOM      8  C   UNL     1       4.561   3.347  16.983  0.00  0.00    +0.000 A 
ATOM      9  N   UNL     1       4.814   4.063  18.127  0.00  0.00    +0.000 N 
ATOM     10  C   UNL     1       5.821   4.949  17.848  0.00  0.00    +0.000 A 
ATOM     11  N   UNL     1       6.423   5.831  18.669  0.00  0.00    +0.000 NA
ATOM     12  H   UNL     1       7.488   7.659  19.640  0.00  0.00    +0.000 HD
ATOM     13  H   UNL     1       8.349   5.886  14.436  0.00  0.00    +0.000 HD
ATOM     14  H   UNL     1       7.168   4.649  14.149  0.00  0.00    +0.000 HD
ENDROOT
BRANCH   9  15
ATOM     15  C1* UNL     1       4.092   3.894  19.367  0.00  0.00    +0.000 C 
ATOM     16  O4* UNL     1       3.634   2.528  19.471  0.00  0.00    +0.000 OA
ATOM     17  C4* UNL     1       2.300   2.533  20.033  0.00  0.00    +0.000 C 
ATOM     18  C3* UNL     1       2.018   3.968  20.478  0.00  0.00    +0.000 C 
ATOM     19  C2* UNL     1       2.883   4.805  19.548  0.00  0.00    +0.000 C 
BRANCH  18  20
ATOM     20  O3* UNL     1       2.466   4.206  21.828  0.00  0.00    +0.000 OA
ATOM     21  H3* UNL     1       2.520   3.357  22.304  0.00  0.00    +0.000 HD
ENDBRANCH  18  20
BRANCH  19  22
ATOM     22  O2* UNL     1       3.233   6.056  20.145  0.00  0.00    +0.000 OA
ATOM     23  H2* UNL     1       4.021   6.382  19.658  0.00  0.00    +0.000 HD
ENDBRANCH  19  22
BRANCH  17  24
ATOM     24  C5* UNL     1       1.304   2.031  18.984  0.00  0.00    +0.000 C 
BRANCH  24  25
ATOM     25  O5* UNL     1       0.009   2.573  19.229  0.00  0.00    +0.000 OA
ATOM     26  H5* UNL     1      -0.537   1.838  19.569  0.00  0.00    +0.000 HD
ENDBRANCH  24  25
ENDBRANCH  17  24
ENDBRANCH   9  15
BRANCH   1  27
ATOM     27  C   UNL     1       8.548   8.642  18.100  0.00  0.00    +0.000 C 
BRANCH  27  28
ATOM     28  C   UNL     1       9.012   9.743  19.064  0.00  0.00    +0.000 C 
BRANCH  28  32
ATOM     29  C   UNL     1      10.620  13.268  17.090  0.00  0.00    +0.000 A 
ATOM     30  C   UNL     1       9.249  13.141  17.322  0.00  0.00    +0.000 A 
ATOM     31  C   UNL     1       8.726  11.988  17.929  0.00  0.00    +0.000 A 
ATOM     32  C   UNL     1       9.574  10.960  18.361  0.00  0.00    +0.000 A 
ATOM     33  C   UNL     1      10.953  11.107  18.161  0.00  0.00    +0.000 A 
ATOM     34  C   UNL     1      11.466  12.265  17.553  0.00  0.00    +0.000 A 
BRANCH  29  35
ATOM     35  N   UNL     1      11.145  14.480  16.625  0.00  0.00    +0.000 N 
ATOM     36  H   UNL     1      12.140  14.590  16.794  0.00  0.00    +0.000 HD
ATOM     37  H   UNL     1      10.614  15.297  16.908  0.00  0.00    +0.000 HD
ENDBRANCH  29  35
ENDBRANCH  28  32
ENDBRANCH  27  28
ENDBRANCH   1  27
TORSDOF 9
ENDMDL
MODEL 3
REMARK VINA RESULT:      -8.5      0.940      1.236
REMARK  Name = 
REMARK  9 active torsions:
REMARK  status: ('A' for Active; 'I' for Inactive)
REMARK    1  A    between atoms: N_1  and  C_2
REMARK    2  A    between atoms: C_5  and  C_6
REMARK    3  A    between atoms: C_6  and  C_7
REMARK    4  A    between atoms: C_7  and  N_8
REMARK    5  A    between atoms: N_16  and  C1*_17
REMARK    6  A    between atoms: C4*_19  and  C5*_20
REMARK    7  A    between atoms: C5*_20  and  O5*_21
REMARK    8  A    between atoms: C3*_22  and  O3*_23
REMARK    9  A    between atoms: C2*_24  and  O2*_25
REMARK                            x       y       z     vdW  Elec       q    Type
REMARK                         _______ _______ _______ _____ _____    ______ ____
ROOT
ATOM      1  N   UNL     1       8.039   7.547  18.478  0.00  0.00    +0.000 N 
ATOM      2  C   UNL     1       7.319   6.592  17.759  0.00  0.00    +0.000 A 
ATOM      3  N   UNL     1       7.651   6.374  16.468  0.00  0.00    +0.000 NA
ATOM      4  C   UNL     1       6.976   5.463  15.737  0.00  0.00    +0.000 A 
ATOM      5  N   UNL     1       7.328   5.296  14.404  0.00  0.00    +0.000 N 
ATOM      6  C   UNL     1       5.963   4.729  16.361  0.00  0.00    +0.000 A 
ATOM      7  N   UNL     1       5.145   3.717  15.909  0.00  0.00    +0.000 NA
ATOM      8  C   UNL     1       4.381   3.428  16.939  0.00  0.00    +0.000 A 
ATOM      9  N   UNL     1       4.657   4.223  18.023  0.00  0.00    +0.000 N 
ATOM     10  C   UNL     1       5.698   5.045  17.681  0.00  0.00    +0.000 A 
ATOM     11  N   UNL     1       6.331   5.966  18.433  0.00  0.00    +0.000 NA
ATOM     12  H   UNL     1       7.462   7.824  19.261  0.00  0.00    +0.000 HD
ATOM     13  H   UNL     1       8.271   5.610  14.221  0.00  0.00    +0.000 HD
ATOM     14  H   UNL     1       7.044   4.399  14.026  0.00  0.00    +0.000 HD
ENDROOT
BRANCH   9  15
ATOM     15  C1* UNL     1       3.925   4.181  19.268  0.00  0.00    +0.000 C 
ATOM     16  O4* UNL     1       3.323   2.877  19.425  0.00  0.00    +0.000 OA
ATOM     17  C4* UNL     1       1.998   3.049  19.985  0.00  0.00    +0.000 C 
ATOM     18  C3* UNL     1       1.875   4.522  20.374  0.00  0.00    +0.000 C 
ATOM     19  C2* UNL     1       2.823   5.224  19.414  0.00  0.00    +0.000 C 
BRANCH  18  20
ATOM     20  O3* UNL     1       2.351   4.762  21.714  0.00  0.00    +0.000 OA
ATOM     21  H3* UNL     1       3.044   4.112  21.932  0.00  0.00    +0.000 HD
ENDBRANCH  18  20
BRANCH  19  22
ATOM     22  O2* UNL     1       3.309   6.452  19.961  0.00  0.00    +0.000 OA
ATOM     23  H2* UNL     1       2.522   6.935  20.296  0.00  0.00    +0.000 HD
ENDBRANCH  19  22
BRANCH  17  24
ATOM     24  C5* UNL     1       0.950   2.618  18.956  0.00  0.00    +0.000 C 
BRANCH  24  25
ATOM     25  O5* UNL     1       1.546   1.799  17.952  0.00  0.00    +0.000 OA
ATOM     26  H5* UNL     1       0.884   1.118  17.726  0.00  0.00    +0.000 HD
ENDBRANCH  24  25
ENDBRANCH  17  24
ENDBRANCH   9  15
BRANCH   1  27
ATOM     27  C   UNL     1       8.563   8.640  17.654  0.00  0.00    +0.000 C 
BRANCH  27  28
ATOM     28  C   UNL     1       8.014   9.994  18.124  0.00  0.00    +0.000 C 
BRANCH  28  32
ATOM     29  C   UNL     1      11.085  12.895  19.155  0.00  0.00    +0.000 A 
ATOM     30  C   UNL     1      10.233  13.110  18.071  0.00  0.00    +0.000 A 
ATOM     31  C   UNL     1       9.265  12.159  17.717  0.00  0.00    +0.000 A 
ATOM     32  C   UNL     1       9.097  10.993  18.476  0.00  0.00    +0.000 A 
ATOM     33  C   UNL     1       9.929  10.797  19.587  0.00  0.00    +0.000 A 
ATOM     34  C   UNL     1      10.895  11.756  19.932  0.00  0.00    +0.000 A 
BRANCH  29  35
ATOM     35  N   UNL     1      11.943  13.914  19.590  0.00  0.00    +0.000 N 
ATOM     36  H   UNL     1      12.406  13.714  20.471  0.00  0.00    +0.000 HD
ATOM     37  H   UNL     1      11.527  14.839  19.574  0.00  0.00    +0.000 HD
ENDBRANCH  29  35
ENDBRANCH  28  32
ENDBRANCH  27  28
ENDBRANCH   1  27
TORSDOF 9
ENDMDL
MODEL 4
REMARK VINA RESULT:      -8.4      4.705      7.400
REMARK  Name = 
REMARK  9 active torsions:
REMARK  status: ('A' for Active; 'I' for Inactive)
REMARK    1  A    between atoms: N_1  and  C_2
REMARK    2  A    between atoms: C_5  and  C_6
REMARK    3  A    between atoms: C_6  and  C_7
REMARK    4  A    between atoms: C_7  and  N_8
REMARK    5  A    between atoms: N_16  and  C1*_17
REMARK    6  A    between atoms: C4*_19  and  C5*_20
REMARK    7  A    between atoms: C5*_20  and  O5*_21
REMARK    8  A    between atoms: C3*_22  and  O3*_23
REMARK    9  A    between atoms: C2*_24  and  O2*_25
REMARK                            x       y       z     vdW  Elec       q    Type
REMARK                         _______ _______ _______ _____ _____    ______ ____
ROOT
ATOM      1  N   UNL     1       1.922   7.651  19.987  0.00  0.00    +0.000 N 
ATOM      2  C   UNL     1       2.196   6.292  19.819  0.00  0.00    +0.000 A 
ATOM      3  N   UNL     1       1.373   5.394  20.404  0.00  0.00    +0.000 NA
ATOM      4  C   UNL     1       1.606   4.072  20.270  0.00  0.00    +0.000 A 
ATOM      5  N   UNL     1       0.755   3.185  20.916  0.00  0.00    +0.000 N 
ATOM      6  C   UNL     1       2.686   3.664  19.482  0.00  0.00    +0.000 A 
ATOM      7  N   UNL     1       3.144   2.416  19.120  0.00  0.00    +0.000 NA
ATOM      8  C   UNL     1       4.204   2.657  18.380  0.00  0.00    +0.000 A 
ATOM      9  N   UNL     1       4.458   4.002  18.268  0.00  0.00    +0.000 N 
ATOM     10  C   UNL     1       3.469   4.668  18.944  0.00  0.00    +0.000 A 
ATOM     11  N   UNL     1       3.285   5.996  19.079  0.00  0.00    +0.000 NA
ATOM     12  H   UNL     1       2.783   8.150  19.803  0.00  0.00    +0.000 HD
ATOM     13  H   UNL     1      -0.142   3.603  21.119  0.00  0.00    +0.000 HD
ATOM     14  H   UNL     1       0.765   2.255  20.511  0.00  0.00    +0.000 HD
ENDROOT
BRANCH   9  15
ATOM     15  C1* UNL     1       5.599   4.558  17.578  0.00  0.00    +0.000 C 
ATOM     16  O4* UNL     1       6.805   4.210  18.292  0.00  0.00    +0.000 OA
ATOM     17  C4* UNL     1       7.692   5.355  18.276  0.00  0.00    +0.000 C 
ATOM     18  C3* UNL     1       7.069   6.379  17.327  0.00  0.00    +0.000 C 
ATOM     19  C2* UNL     1       5.581   6.072  17.401  0.00  0.00    +0.000 C 
BRANCH  18  20
ATOM     20  O3* UNL     1       7.493   6.172  15.964  0.00  0.00    +0.000 OA
ATOM     21  H3* UNL     1       7.201   6.925  15.418  0.00  0.00    +0.000 HD
ENDBRANCH  18  20
BRANCH  19  22
ATOM     22  O2* UNL     1       4.905   6.469  16.206  0.00  0.00    +0.000 OA
ATOM     23  H2* UNL     1       3.948   6.318  16.366  0.00  0.00    +0.000 HD
ENDBRANCH  19  22
BRANCH  17  24
ATOM     24  C5* UNL     1       7.859   5.890  19.700  0.00  0.00    +0.000 C 
BRANCH  24  25
ATOM     25  O5* UNL     1       8.799   5.099  20.421  0.00  0.00    +0.000 OA
ATOM     26  H5* UNL     1       8.547   4.167  20.271  0.00  0.00    +0.000 HD
ENDBRANCH  24  25
ENDBRANCH  17  24
ENDBRANCH   9  15
BRANCH   1  27
ATOM     27  C   UNL     1       1.256   7.971  21.252  0.00  0.00    +0.000 C 
BRANCH  27  28
ATOM     28  C   UNL     1       1.318   9.478  21.539  0.00  0.00    +0.000 C 
BRANCH  28  32
ATOM     29  C   UNL     1      -0.725  11.870  18.537  0.00  0.00    +0.000 A 
ATOM     30  C   UNL     1       0.500  12.279  19.065  0.00  0.00    +0.000 A 
ATOM     31  C   UNL     1       1.143  11.525  20.059  0.00  0.00    +0.000 A 
ATOM     32  C   UNL     1       0.594  10.316  20.507  0.00  0.00    +0.000 A 
ATOM     33  C   UNL     1      -0.618   9.889  19.948  0.00  0.00    +0.000 A 
ATOM     34  C   UNL     1      -1.253  10.651  18.954  0.00  0.00    +0.000 A 
BRANCH  29  35
ATOM     35  N   UNL     1      -1.282  12.546  17.444  0.00  0.00    +0.000 N 
ATOM     36  H   UNL     1      -0.985  12.187  16.542  0.00  0.00    +0.000 HD
ATOM     37  H   UNL     1      -1.204  13.556  17.500  0.00  0.00    +0.000 HD
ENDBRANCH  29  35
ENDBRANCH  28  32
ENDBRANCH  27  28
ENDBRANCH   1  27
TORSDOF 9
ENDMDL
MODEL 5
REMARK VINA RESULT:      -8.3      5.161      7.555
REMARK  Name = 
REMARK  9 active torsions:
REMARK  status: ('A' for Active; 'I' for Inactive)
REMARK    1  A    between atoms: N_1  and  C_2
REMARK    2  A    between atoms: C_5  and  C_6
REMARK    3  A    between atoms: C_6  and  C_7
REMARK    4  A    between atoms: C_7  and  N_8
REMARK    5  A    between atoms: N_16  and  C1*_17
REMARK    6  A    between atoms: C4*_19  and  C5*_20
REMARK    7  A    between atoms: C5*_20  and  O5*_21
REMARK    8  A    between atoms: C3*_22  and  O3*_23
REMARK    9  A    between atoms: C2*_24  and  O2*_25
REMARK                            x       y       z     vdW  Elec       q    Type
REMARK                         _______ _______ _______ _____ _____    ______ ____
ROOT
ATOM      1  N   UNL     1       1.730   8.006  20.167  0.00  0.00    +0.000 N 
ATOM      2  C   UNL     1       2.173   6.690  20.027  0.00  0.00    +0.000 A 
ATOM      3  N   UNL     1       1.583   5.731  20.774  0.00  0.00    +0.000 NA
ATOM      4  C   UNL     1       1.985   4.447  20.672  0.00  0.00    +0.000 A 
ATOM      5  N   UNL     1       1.374   3.500  21.483  0.00  0.00    +0.000 N 
ATOM      6  C   UNL     1       2.989   4.136  19.751  0.00  0.00    +0.000 A 
ATOM      7  N   UNL     1       3.568   2.940  19.386  0.00  0.00    +0.000 NA
ATOM      8  C   UNL     1       4.464   3.272  18.482  0.00  0.00    +0.000 A 
ATOM      9  N   UNL     1       4.500   4.628  18.267  0.00  0.00    +0.000 N 
ATOM     10  C   UNL     1       3.531   5.198  19.050  0.00  0.00    +0.000 A 
ATOM     11  N   UNL     1       3.176   6.494  19.146  0.00  0.00    +0.000 NA
ATOM     12  H   UNL     1       2.473   8.605  19.830  0.00  0.00    +0.000 HD
ATOM     13  H   UNL     1       0.464   3.804  21.799  0.00  0.00    +0.000 HD
ATOM     14  H   UNL     1       1.462   2.554  21.127  0.00  0.00    +0.000 HD
ENDROOT
BRANCH   9  15
ATOM     15  C1* UNL     1       5.436   5.285  17.384  0.00  0.00    +0.000 C 
ATOM     16  O4* UNL     1       4.795   5.548  16.117  0.00  0.00    +0.000 OA
ATOM     17  C4* UNL     1       5.750   5.292  15.059  0.00  0.00    +0.000 C 
ATOM     18  C3* UNL     1       7.101   5.056  15.735  0.00  0.00    +0.000 C 
ATOM     19  C2* UNL     1       6.722   4.514  17.105  0.00  0.00    +0.000 C 
BRANCH  18  20
ATOM     20  O3* UNL     1       7.821   6.289  15.934  0.00  0.00    +0.000 OA
ATOM     21  H3* UNL     1       7.961   6.723  15.073  0.00  0.00    +0.000 HD
ENDBRANCH  18  20
BRANCH  19  22
ATOM     22  O2* UNL     1       7.737   4.786  18.074  0.00  0.00    +0.000 OA
ATOM     23  H2* UNL     1       8.025   5.712  17.919  0.00  0.00    +0.000 HD
ENDBRANCH  19  22
BRANCH  17  24
ATOM     24  C5* UNL     1       5.283   4.092  14.231  0.00  0.00    +0.000 C 
BRANCH  24  25
ATOM     25  O5* UNL     1       6.403   3.391  13.696  0.00  0.00    +0.000 OA
ATOM     26  H5* UNL     1       7.197   3.795  14.097  0.00  0.00    +0.000 HD
ENDBRANCH  24  25
ENDBRANCH  17  24
ENDBRANCH   9  15
BRANCH   1  27
ATOM     27  C   UNL     1       1.212   8.321  21.501  0.00  0.00    +0.000 C 
BRANCH  27  28
ATOM     28  C   UNL     1      -0.239   8.815  21.425  0.00  0.00    +0.000 C 
BRANCH  28  32
ATOM     29  C   UNL     1      -0.728  12.163  18.694  0.00  0.00    +0.000 A 
ATOM     30  C   UNL     1      -0.064  12.324  19.911  0.00  0.00    +0.000 A 
ATOM     31  C   UNL     1       0.065  11.252  20.807  0.00  0.00    +0.000 A 
ATOM     32  C   UNL     1      -0.428   9.982  20.479  0.00  0.00    +0.000 A 
ATOM     33  C   UNL     1      -1.062   9.814  19.241  0.00  0.00    +0.000 A 
ATOM     34  C   UNL     1      -1.184  10.894  18.351  0.00  0.00    +0.000 A 
BRANCH  29  35
ATOM     35  N   UNL     1      -0.719  13.194  17.745  0.00  0.00    +0.000 N 
ATOM     36  H   UNL     1      -1.588  13.285  17.228  0.00  0.00    +0.000 HD
ATOM     37  H   UNL     1       0.093  13.189  17.138  0.00  0.00    +0.000 HD
ENDBRANCH  29  35
ENDBRANCH  28  32
ENDBRANCH  27  28
ENDBRANCH   1  27
TORSDOF 9
ENDMDL
MODEL 6
REMARK VINA RESULT:      -8.3      1.075      1.540
REMARK  Name = 
REMARK  9 active torsions:
REMARK  status: ('A' for Active; 'I' for Inactive)
REMARK    1  A    between atoms: N_1  and  C_2
REMARK    2  A    between atoms: C_5  and  C_6
REMARK    3  A    between atoms: C_6  and  C_7
REMARK    4  A    between atoms: C_7  and  N_8
REMARK    5  A    between atoms: N_16  and  C1*_17
REMARK    6  A    between atoms: C4*_19  and  C5*_20
REMARK    7  A    between atoms: C5*_20  and  O5*_21
REMARK    8  A    between atoms: C3*_22  and  O3*_23
REMARK    9  A    between atoms: C2*_24  and  O2*_25
REMARK                            x       y       z     vdW  Elec       q    Type
REMARK                         _______ _______ _______ _____ _____    ______ ____
ROOT
ATOM      1  N   UNL     1       7.607   7.688  18.549  0.00  0.00    +0.000 N 
ATOM      2  C   UNL     1       7.036   6.765  17.672  0.00  0.00    +0.000 A 
ATOM      3  N   UNL     1       7.641   6.548  16.484  0.00  0.00    +0.000 NA
ATOM      4  C   UNL     1       7.118   5.667  15.606  0.00  0.00    +0.000 A 
ATOM      5  N   UNL     1       7.754   5.501  14.382  0.00  0.00    +0.000 N 
ATOM      6  C   UNL     1       5.969   4.962  15.976  0.00  0.00    +0.000 A 
ATOM      7  N   UNL     1       5.242   3.982  15.335  0.00  0.00    +0.000 NA
ATOM      8  C   UNL     1       4.258   3.710  16.165  0.00  0.00    +0.000 A 
ATOM      9  N   UNL     1       4.310   4.484  17.297  0.00  0.00    +0.000 N 
ATOM     10  C   UNL     1       5.426   5.274  17.209  0.00  0.00    +0.000 A 
ATOM     11  N   UNL     1       5.903   6.166  18.098  0.00  0.00    +0.000 NA
ATOM     12  H   UNL     1       6.878   7.977  19.189  0.00  0.00    +0.000 HD
ATOM     13  H   UNL     1       8.723   5.784  14.419  0.00  0.00    +0.000 HD
ATOM     14  H   UNL     1       7.534   4.617  13.935  0.00  0.00    +0.000 HD
ENDROOT
BRANCH   9  15
ATOM     15  C1* UNL     1       3.317   4.455  18.347  0.00  0.00    +0.000 C 
ATOM     16  O4* UNL     1       3.972   4.248  19.617  0.00  0.00    +0.000 OA
ATOM     17  C4* UNL     1       3.162   3.345  20.407  0.00  0.00    +0.000 C 
ATOM     18  C3* UNL     1       1.848   3.157  19.649  0.00  0.00    +0.000 C 
ATOM     19  C2* UNL     1       2.240   3.387  18.197  0.00  0.00    +0.000 C 
BRANCH  18  20
ATOM     20  O3* UNL     1       0.877   4.161  20.006  0.00  0.00    +0.000 OA
ATOM     21  H3* UNL     1       1.284   4.800  20.619  0.00  0.00    +0.000 HD
ENDBRANCH  18  20
BRANCH  19  22
ATOM     22  O2* UNL     1       1.130   3.843  17.421  0.00  0.00    +0.000 OA
ATOM     23  H2* UNL     1       0.758   3.050  16.978  0.00  0.00    +0.000 HD
ENDBRANCH  19  22
BRANCH  17  24
ATOM     24  C5* UNL     1       3.920   2.031  20.616  0.00  0.00    +0.000 C 
BRANCH  24  25
ATOM     25  O5* UNL     1       5.157   2.053  19.908  0.00  0.00    +0.000 OA
ATOM     26  H5* UNL     1       4.943   1.850  18.977  0.00  0.00    +0.000 HD
ENDBRANCH  24  25
ENDBRANCH  17  24
ENDBRANCH   9  15
BRANCH   1  27
ATOM     27  C   UNL     1       8.335   8.770  17.882  0.00  0.00    +0.000 C 
BRANCH  27  28
ATOM     28  C   UNL     1       9.108   9.621  18.899  0.00  0.00    +0.000 C 
BRANCH  28  32
ATOM     29  C   UNL     1      10.547  13.365  17.218  0.00  0.00    +0.000 A 
ATOM     30  C   UNL     1      11.440  12.365  17.605  0.00  0.00    +0.000 A 
ATOM     31  C   UNL     1      10.977  11.170  18.178  0.00  0.00    +0.000 A 
ATOM     32  C   UNL     1       9.605  10.933  18.330  0.00  0.00    +0.000 A 
ATOM     33  C   UNL     1       8.709  11.924  17.906  0.00  0.00    +0.000 A 
ATOM     34  C   UNL     1       9.182  13.116  17.333  0.00  0.00    +0.000 A 
BRANCH  29  35
ATOM     35  N   UNL     1      11.006  14.484  16.511  0.00  0.00    +0.000 N 
ATOM     36  H   UNL     1      11.273  15.264  17.104  0.00  0.00    +0.000 HD
ATOM     37  H   UNL     1      10.399  14.769  15.750  0.00  0.00    +0.000 HD
ENDBRANCH  29  35
ENDBRANCH  28  32
ENDBRANCH  27  28
ENDBRANCH   1  27
TORSDOF 9
ENDMDL
MODEL 7
REMARK VINA RESULT:      -8.0      5.245      7.887
REMARK  Name = 
REMARK  9 active torsions:
REMARK  status: ('A' for Active; 'I' for Inactive)
REMARK    1  A    between atoms: N_1  and  C_2
REMARK    2  A    between atoms: C_5  and  C_6
REMARK    3  A    between atoms: C_6  and  C_7
REMARK    4  A    between atoms: C_7  and  N_8
REMARK    5  A    between atoms: N_16  and  C1*_17
REMARK    6  A    between atoms: C4*_19  and  C5*_20
REMARK    7  A    between atoms: C5*_20  and  O5*_21
REMARK    8  A    between atoms: C3*_22  and  O3*_23
REMARK    9  A    between atoms: C2*_24  and  O2*_25
REMARK                            x       y       z     vdW  Elec       q    Type
REMARK                         _______ _______ _______ _____ _____    ______ ____
ROOT
ATOM      1  N   UNL     1       1.709   7.929  20.225  0.00  0.00    +0.000 N 
ATOM      2  C   UNL     1       2.159   6.617  20.068  0.00  0.00    +0.000 A 
ATOM      3  N   UNL     1       1.575   5.645  20.801  0.00  0.00    +0.000 NA
ATOM      4  C   UNL     1       1.986   4.365  20.682  0.00  0.00    +0.000 A 
ATOM      5  N   UNL     1       1.381   3.403  21.480  0.00  0.00    +0.000 N 
ATOM      6  C   UNL     1       2.991   4.073  19.757  0.00  0.00    +0.000 A 
ATOM      7  N   UNL     1       3.577   2.885  19.375  0.00  0.00    +0.000 NA
ATOM      8  C   UNL     1       4.471   3.235  18.476  0.00  0.00    +0.000 A 
ATOM      9  N   UNL     1       4.498   4.593  18.279  0.00  0.00    +0.000 N 
ATOM     10  C   UNL     1       3.527   5.147  19.071  0.00  0.00    +0.000 A 
ATOM     11  N   UNL     1       3.164   6.440  19.184  0.00  0.00    +0.000 NA
ATOM     12  H   UNL     1       2.448   8.537  19.897  0.00  0.00    +0.000 HD
ATOM     13  H   UNL     1       0.468   3.697  21.800  0.00  0.00    +0.000 HD
ATOM     14  H   UNL     1       1.474   2.462  21.112  0.00  0.00    +0.000 HD
ENDROOT
BRANCH   9  15
ATOM     15  C1* UNL     1       5.431   5.268  17.406  0.00  0.00    +0.000 C 
ATOM     16  O4* UNL     1       4.789   5.542  16.141  0.00  0.00    +0.000 OA
ATOM     17  C4* UNL     1       5.747   5.305  15.081  0.00  0.00    +0.000 C 
ATOM     18  C3* UNL     1       7.098   5.072  15.756  0.00  0.00    +0.000 C 
ATOM     19  C2* UNL     1       6.723   4.510  17.119  0.00  0.00    +0.000 C 
BRANCH  18  20
ATOM     20  O3* UNL     1       7.810   6.307  15.970  0.00  0.00    +0.000 OA
ATOM     21  H3* UNL     1       7.401   7.012  15.434  0.00  0.00    +0.000 HD
ENDBRANCH  18  20
BRANCH  19  22
ATOM     22  O2* UNL     1       7.735   4.778  18.092  0.00  0.00    +0.000 OA
ATOM     23  H2* UNL     1       7.667   4.065  18.763  0.00  0.00    +0.000 HD
ENDBRANCH  19  22
BRANCH  17  24
ATOM     24  C5* UNL     1       5.290   4.112  14.238  0.00  0.00    +0.000 C 
BRANCH  24  25
ATOM     25  O5* UNL     1       6.412   3.463  13.645  0.00  0.00    +0.000 OA
ATOM     26  H5* UNL     1       7.015   4.172  13.352  0.00  0.00    +0.000 HD
ENDBRANCH  24  25
ENDBRANCH  17  24
ENDBRANCH   9  15
BRANCH   1  27
ATOM     27  C   UNL     1       1.190   8.222  21.564  0.00  0.00    +0.000 C 
BRANCH  27  28
ATOM     28  C   UNL     1      -0.293   8.614  21.505  0.00  0.00    +0.000 C 
BRANCH  28  32
ATOM     29  C   UNL     1      -1.009  12.895  21.771  0.00  0.00    +0.000 A 
ATOM     30  C   UNL     1      -0.736  12.290  20.543  0.00  0.00    +0.000 A 
ATOM     31  C   UNL     1      -0.472  10.915  20.461  0.00  0.00    +0.000 A 
ATOM     32  C   UNL     1      -0.525  10.107  21.605  0.00  0.00    +0.000 A 
ATOM     33  C   UNL     1      -0.835  10.711  22.831  0.00  0.00    +0.000 A 
ATOM     34  C   UNL     1      -1.099  12.088  22.901  0.00  0.00    +0.000 A 
BRANCH  29  35
ATOM     35  N   UNL     1      -1.418  14.234  21.821  0.00  0.00    +0.000 N 
ATOM     36  H   UNL     1      -1.947  14.472  22.654  0.00  0.00    +0.000 HD
ATOM     37  H   UNL     1      -1.868  14.560  20.972  0.00  0.00    +0.000 HD
ENDBRANCH  29  35
ENDBRANCH  28  32
ENDBRANCH  27  28
ENDBRANCH   1  27
TORSDOF 9
ENDMDL
MODEL 8
REMARK VINA RESULT:      -8.0      5.047      7.992
REMARK  Name = 
REMARK  9 active torsions:
REMARK  status: ('A' for Active; 'I' for Inactive)
REMARK    1  A    between atoms: N_1  and  C_2
REMARK    2  A    between atoms: C_5  and  C_6
REMARK    3  A    between atoms: C_6  and  C_7
REMARK    4  A    between atoms: C_7  and  N_8
REMARK    5  A    between atoms: N_16  and  C1*_17
REMARK    6  A    between atoms: C4*_19  and  C5*_20
REMARK    7  A    between atoms: C5*_20  and  O5*_21
REMARK    8  A    between atoms: C3*_22  and  O3*_23
REMARK    9  A    between atoms: C2*_24  and  O2*_25
REMARK                            x       y       z     vdW  Elec       q    Type
REMARK                         _______ _______ _______ _____ _____    ______ ____
ROOT
ATOM      1  N   UNL     1       1.863   7.557  20.053  0.00  0.00    +0.000 N 
ATOM      2  C   UNL     1       2.164   6.206  19.877  0.00  0.00    +0.000 A 
ATOM      3  N   UNL     1       1.363   5.288  20.462  0.00  0.00    +0.000 NA
ATOM      4  C   UNL     1       1.623   3.972  20.320  0.00  0.00    +0.000 A 
ATOM      5  N   UNL     1       0.794   3.064  20.967  0.00  0.00    +0.000 N 
ATOM      6  C   UNL     1       2.707   3.590  19.525  0.00  0.00    +0.000 A 
ATOM      7  N   UNL     1       3.189   2.353  19.155  0.00  0.00    +0.000 NA
ATOM      8  C   UNL     1       4.239   2.620  18.410  0.00  0.00    +0.000 A 
ATOM      9  N   UNL     1       4.464   3.970  18.303  0.00  0.00    +0.000 N 
ATOM     10  C   UNL     1       3.466   4.613  18.987  0.00  0.00    +0.000 A 
ATOM     11  N   UNL     1       3.255   5.936  19.130  0.00  0.00    +0.000 NA
ATOM     12  H   UNL     1       2.712   8.076  19.867  0.00  0.00    +0.000 HD
ATOM     13  H   UNL     1      -0.111   3.462  21.176  0.00  0.00    +0.000 HD
ATOM     14  H   UNL     1       0.821   2.137  20.557  0.00  0.00    +0.000 HD
ENDROOT
BRANCH   9  15
ATOM     15  C1* UNL     1       5.590   4.553  17.609  0.00  0.00    +0.000 C 
ATOM     16  O4* UNL     1       6.808   4.220  18.310  0.00  0.00    +0.000 OA
ATOM     17  C4* UNL     1       7.674   5.379  18.299  0.00  0.00    +0.000 C 
ATOM     18  C3* UNL     1       7.026   6.402  17.366  0.00  0.00    +0.000 C 
ATOM     19  C2* UNL     1       5.544   6.069  17.449  0.00  0.00    +0.000 C 
BRANCH  18  20
ATOM     20  O3* UNL     1       7.443   6.217  15.998  0.00  0.00    +0.000 OA
ATOM     21  H3* UNL     1       7.822   5.325  15.894  0.00  0.00    +0.000 HD
ENDBRANCH  18  20
BRANCH  19  22
ATOM     22  O2* UNL     1       4.852   6.466  16.263  0.00  0.00    +0.000 OA
ATOM     23  H2* UNL     1       5.223   5.926  15.533  0.00  0.00    +0.000 HD
ENDBRANCH  19  22
BRANCH  17  24
ATOM     24  C5* UNL     1       7.844   5.903  19.727  0.00  0.00    +0.000 C 
BRANCH  24  25
ATOM     25  O5* UNL     1       8.755   5.081  20.453  0.00  0.00    +0.000 OA
ATOM     26  H5* UNL     1       9.410   4.759  19.804  0.00  0.00    +0.000 HD
ENDBRANCH  24  25
ENDBRANCH  17  24
ENDBRANCH   9  15
BRANCH   1  27
ATOM     27  C   UNL     1       1.197   7.858  21.324  0.00  0.00    +0.000 C 
BRANCH  27  28
ATOM     28  C   UNL     1       1.582   9.255  21.828  0.00  0.00    +0.000 C 
BRANCH  28  32
ATOM     29  C   UNL     1      -1.833  11.928  22.142  0.00  0.00    +0.000 A 
ATOM     30  C   UNL     1      -1.029  11.926  21.001  0.00  0.00    +0.000 A 
ATOM     31  C   UNL     1       0.093  11.088  20.914  0.00  0.00    +0.000 A 
ATOM     32  C   UNL     1       0.403  10.197  21.950  0.00  0.00    +0.000 A 
ATOM     33  C   UNL     1      -0.428  10.174  23.078  0.00  0.00    +0.000 A 
ATOM     34  C   UNL     1      -1.549  11.017  23.155  0.00  0.00    +0.000 A 
BRANCH  29  35
ATOM     35  N   UNL     1      -3.031  12.654  22.157  0.00  0.00    +0.000 N 
ATOM     36  H   UNL     1      -3.683  12.390  21.425  0.00  0.00    +0.000 HD
ATOM     37  H   UNL     1      -2.904  13.659  22.216  0.00  0.00    +0.000 HD
ENDBRANCH  29  35
ENDBRANCH  28  32
ENDBRANCH  27  28
ENDBRANCH   1  27
TORSDOF 9
ENDMDL
MODEL 9
REMARK VINA RESULT:      -8.0      1.227      1.882
REMARK  Name = 
REMARK  9 active torsions:
REMARK  status: ('A' for Active; 'I' for Inactive)
REMARK    1  A    between atoms: N_1  and  C_2
REMARK    2  A    between atoms: C_5  and  C_6
REMARK    3  A    between atoms: C_6  and  C_7
REMARK    4  A    between atoms: C_7  and  N_8
REMARK    5  A    between atoms: N_16  and  C1*_17
REMARK    6  A    between atoms: C4*_19  and  C5*_20
REMARK    7  A    between atoms: C5*_20  and  O5*_21
REMARK    8  A    between atoms: C3*_22  and  O3*_23
REMARK    9  A    between atoms: C2*_24  and  O2*_25
REMARK                            x       y       z     vdW  Elec       q    Type
REMARK                         _______ _______ _______ _____ _____    ______ ____
ROOT
ATOM      1  N   UNL     1       7.555   7.381  18.383  0.00  0.00    +0.000 N 
ATOM      2  C   UNL     1       7.145   6.442  17.436  0.00  0.00    +0.000 A 
ATOM      3  N   UNL     1       7.772   6.421  16.239  0.00  0.00    +0.000 NA
ATOM      4  C   UNL     1       7.402   5.532  15.294  0.00  0.00    +0.000 A 
ATOM      5  N   UNL     1       8.050   5.568  14.067  0.00  0.00    +0.000 N 
ATOM      6  C   UNL     1       6.392   4.616  15.603  0.00  0.00    +0.000 A 
ATOM      7  N   UNL     1       5.839   3.577  14.886  0.00  0.00    +0.000 NA
ATOM      8  C   UNL     1       4.920   3.080  15.685  0.00  0.00    +0.000 A 
ATOM      9  N   UNL     1       4.845   3.766  16.872  0.00  0.00    +0.000 N 
ATOM     10  C   UNL     1       5.811   4.738  16.851  0.00  0.00    +0.000 A 
ATOM     11  N   UNL     1       6.133   5.630  17.808  0.00  0.00    +0.000 NA
ATOM     12  H   UNL     1       6.791   7.494  19.038  0.00  0.00    +0.000 HD
ATOM     13  H   UNL     1       8.957   6.008  14.132  0.00  0.00    +0.000 HD
ATOM     14  H   UNL     1       7.982   4.695  13.554  0.00  0.00    +0.000 HD
ENDROOT
BRANCH   9  15
ATOM     15  C1* UNL     1       3.878   3.490  17.909  0.00  0.00    +0.000 C 
ATOM     16  O4* UNL     1       2.820   4.471  17.849  0.00  0.00    +0.000 OA
ATOM     17  C4* UNL     1       2.453   4.832  19.202  0.00  0.00    +0.000 C 
ATOM     18  C3* UNL     1       3.190   3.867  20.129  0.00  0.00    +0.000 C 
ATOM     19  C2* UNL     1       4.428   3.485  19.331  0.00  0.00    +0.000 C 
BRANCH  18  20
ATOM     20  O3* UNL     1       2.430   2.664  20.363  0.00  0.00    +0.000 OA
ATOM     21  H3* UNL     1       2.106   2.661  21.282  0.00  0.00    +0.000 HD
ENDBRANCH  18  20
BRANCH  19  22
ATOM     22  O2* UNL     1       4.922   2.200  19.715  0.00  0.00    +0.000 OA
ATOM     23  H2* UNL     1       5.761   2.068  19.223  0.00  0.00    +0.000 HD
ENDBRANCH  19  22
BRANCH  17  24
ATOM     24  C5* UNL     1       2.820   6.297  19.456  0.00  0.00    +0.000 C 
BRANCH  24  25
ATOM     25  O5* UNL     1       3.354   6.888  18.274  0.00  0.00    +0.000 OA
ATOM     26  H5* UNL     1       2.588   7.183  17.745  0.00  0.00    +0.000 HD
ENDBRANCH  24  25
ENDBRANCH  17  24
ENDBRANCH   9  15
BRANCH   1  27
ATOM     27  C   UNL     1       8.085   8.619  17.803  0.00  0.00    +0.000 C 
BRANCH  27  28
ATOM     28  C   UNL     1       8.953   9.374  18.819  0.00  0.00    +0.000 C 
BRANCH  28  32
ATOM     29  C   UNL     1      10.171  13.305  17.415  0.00  0.00    +0.000 A 
ATOM     30  C   UNL     1      11.119  12.366  17.823  0.00  0.00    +0.000 A 
ATOM     31  C   UNL     1      10.725  11.109  18.308  0.00  0.00    +0.000 A 
ATOM     32  C   UNL     1       9.371  10.750  18.347  0.00  0.00    +0.000 A 
ATOM     33  C   UNL     1       8.423  11.681  17.901  0.00  0.00    +0.000 A 
ATOM     34  C   UNL     1       8.829  12.936  17.417  0.00  0.00    +0.000 A 
BRANCH  29  35
ATOM     35  N   UNL     1      10.579  14.493  16.794  0.00  0.00    +0.000 N 
ATOM     36  H   UNL     1      10.551  15.305  17.402  0.00  0.00    +0.000 HD
ATOM     37  H   UNL     1      10.133  14.665  15.899  0.00  0.00    +0.000 HD
ENDBRANCH  29  35
ENDBRANCH  28  32
ENDBRANCH  27  28
ENDBRANCH   1  27
TORSDOF 9
ENDMDL
