MODEL 1
REMARK VINA RESULT:      -7.5      0.000      0.000
REMARK  Name = 
REMARK  7 active torsions:
REMARK  status: ('A' for Active; 'I' for Inactive)
REMARK    1  A    between atoms: C_2  and  O_3
REMARK    2  A    between atoms: C_2  and  C_4
REMARK    3  A    between atoms: C_4  and  C_6
REMARK    4  A    between atoms: C_4  and  P_16
REMARK    5  A    between atoms: C_6  and  C_7
REMARK    6  A    between atoms: P_16  and  O_18
REMARK    7  A    between atoms: P_16  and  O_19
REMARK                            x       y       z     vdW  Elec       q    Type
REMARK                         _______ _______ _______ _____ _____    ______ ____
ROOT
ATOM      1  C   UNL     1       5.782   4.879  16.788  0.00  0.00    +0.000 C 
ATOM      2  F   UNL     1       4.907   4.282  15.919  0.00  0.00    +0.000 F 
ENDROOT
BRANCH   1   4
ATOM      3  O   UNL     1       7.578   5.195  15.233  0.00  0.00    +0.000 OA
ATOM      4  C   UNL     1       7.197   4.758  16.314  0.00  0.00    +0.000 C 
BRANCH   4   5
ATOM      5  O   UNL     1       8.011   4.090  17.164  0.00  0.00    +0.000 OA
ATOM      6  H   UNL     1       7.586   3.924  18.036  0.00  0.00    +0.000 HD
ENDBRANCH   4   5
ENDBRANCH   1   4
BRANCH   1   7
ATOM      7  P   UNL     1       5.317   6.602  16.690  0.00  0.00    +0.000 P 
ATOM      8  O   UNL     1       4.140   7.020  17.513  0.00  0.00    +0.000 OA
BRANCH   7   9
ATOM      9  O   UNL     1       6.629   7.486  16.990  0.00  0.00    +0.000 OA
ATOM     10  H   UNL     1       6.862   7.605  17.941  0.00  0.00    +0.000 HD
ENDBRANCH   7   9
BRANCH   7  11
ATOM     11  O   UNL     1       5.103   6.951  15.137  0.00  0.00    +0.000 OA
ATOM     12  H   UNL     1       5.637   7.728  14.874  0.00  0.00    +0.000 HD
ENDBRANCH   7  11
ENDBRANCH   1   7
BRANCH   1  13
ATOM     13  C   UNL     1       5.583   4.312  18.191  0.00  0.00    +0.000 C 
BRANCH  13  14
ATOM     14  C   UNL     1       4.315   3.536  18.350  0.00  0.00    +0.000 A 
ATOM     15  C   UNL     1       3.939   2.333  17.786  0.00  0.00    +0.000 A 
ATOM     16  N   UNL     1       2.672   1.980  18.156  0.00  0.00    +0.000 NA
ATOM     17  C   UNL     1       2.266   2.931  18.967  0.00  0.00    +0.000 A 
ATOM     18  C   UNL     1       1.033   3.102  19.659  0.00  0.00    +0.000 A 
ATOM     19  C   UNL     1       0.863   4.161  20.471  0.00  0.00    +0.000 A 
ATOM     20  C   UNL     1       1.917   5.145  20.665  0.00  0.00    +0.000 A 
ATOM     21  C   UNL     1       3.076   5.001  19.998  0.00  0.00    +0.000 A 
ATOM     22  N   UNL     1       3.247   3.904  19.149  0.00  0.00    +0.000 N 
ENDBRANCH  13  14
ENDBRANCH   1  13
TORSDOF 7
ENDMDL
MODEL 2
REMARK VINA RESULT:      -7.5      1.725      2.340
REMARK  Name = 
REMARK  7 active torsions:
REMARK  status: ('A' for Active; 'I' for Inactive)
REMARK    1  A    between atoms: C_2  and  O_3
REMARK    2  A    between atoms: C_2  and  C_4
REMARK    3  A    between atoms: C_4  and  C_6
REMARK    4  A    between atoms: C_4  and  P_16
REMARK    5  A    between atoms: C_6  and  C_7
REMARK    6  A    between atoms: P_16  and  O_18
REMARK    7  A    between atoms: P_16  and  O_19
REMARK                            x       y       z     vdW  Elec       q    Type
REMARK                         _______ _______ _______ _____ _____    ______ ____
ROOT
ATOM      1  C   UNL     1       5.563   5.035  17.436  0.00  0.00    +0.000 C 
ATOM      2  F   UNL     1       4.774   5.947  18.085  0.00  0.00    +0.000 F 
ENDROOT
BRANCH   1   4
ATOM      3  O   UNL     1       5.450   6.483  15.529  0.00  0.00    +0.000 OA
ATOM      4  C   UNL     1       5.724   5.378  15.988  0.00  0.00    +0.000 C 
BRANCH   4   5
ATOM      5  O   UNL     1       6.161   4.353  15.220  0.00  0.00    +0.000 OA
ATOM      6  H   UNL     1       5.437   3.732  14.978  0.00  0.00    +0.000 HD
ENDBRANCH   4   5
ENDBRANCH   1   4
BRANCH   1   7
ATOM      7  P   UNL     1       7.150   5.254  18.230  0.00  0.00    +0.000 P 
ATOM      8  O   UNL     1       7.140   5.335  19.723  0.00  0.00    +0.000 OA
BRANCH   7   9
ATOM      9  O   UNL     1       8.141   4.113  17.677  0.00  0.00    +0.000 OA
ATOM     10  H   UNL     1       8.510   4.261  16.775  0.00  0.00    +0.000 HD
ENDBRANCH   7   9
BRANCH   7  11
ATOM     11  O   UNL     1       7.836   6.551  17.575  0.00  0.00    +0.000 OA
ATOM     12  H   UNL     1       7.864   6.480  16.599  0.00  0.00    +0.000 HD
ENDBRANCH   7  11
ENDBRANCH   1   7
BRANCH   1  13
ATOM     13  C   UNL     1       5.008   3.629  17.648  0.00  0.00    +0.000 C 
BRANCH  13  14
ATOM     14  C   UNL     1       3.538   3.599  17.915  0.00  0.00    +0.000 A 
ATOM     15  C   UNL     1       2.479   3.834  17.060  0.00  0.00    +0.000 A 
ATOM     16  N   UNL     1       1.281   3.747  17.710  0.00  0.00    +0.000 NA
ATOM     17  C   UNL     1       1.577   3.430  18.951  0.00  0.00    +0.000 A 
ATOM     18  C   UNL     1       0.740   3.208  20.081  0.00  0.00    +0.000 A 
ATOM     19  C   UNL     1       1.286   2.857  21.260  0.00  0.00    +0.000 A 
ATOM     20  C   UNL     1       2.724   2.694  21.410  0.00  0.00    +0.000 A 
ATOM     21  C   UNL     1       3.522   2.924  20.352  0.00  0.00    +0.000 A 
ATOM     22  N   UNL     1       2.953   3.295  19.132  0.00  0.00    +0.000 N 
ENDBRANCH  13  14
ENDBRANCH   1  13
TORSDOF 7
ENDMDL
MODEL 3
REMARK VINA RESULT:      -7.4      3.936      5.760
REMARK  Name = 
REMARK  7 active torsions:
REMARK  status: ('A' for Active; 'I' for Inactive)
REMARK    1  A    between atoms: C_2  and  O_3
REMARK    2  A    between atoms: C_2  and  C_4
REMARK    3  A    between atoms: C_4  and  C_6
REMARK    4  A    between atoms: C_4  and  P_16
REMARK    5  A    between atoms: C_6  and  C_7
REMARK    6  A    between atoms: P_16  and  O_18
REMARK    7  A    between atoms: P_16  and  O_19
REMARK                            x       y       z     vdW  Elec       q    Type
REMARK                         _______ _______ _______ _____ _____    ______ ____
ROOT
ATOM      1  C   UNL     1       2.912   3.462  19.292  0.00  0.00    +0.000 C 
ATOM      2  F   UNL     1       3.975   2.604  19.403  0.00  0.00    +0.000 F 
ENDROOT
BRANCH   1   4
ATOM      3  O   UNL     1       1.212   3.643  17.613  0.00  0.00    +0.000 OA
ATOM      4  C   UNL     1       1.868   2.927  18.362  0.00  0.00    +0.000 C 
BRANCH   4   5
ATOM      5  O   UNL     1       1.683   1.589  18.447  0.00  0.00    +0.000 OA
ATOM      6  H   UNL     1       2.488   1.084  18.191  0.00  0.00    +0.000 HD
ENDBRANCH   4   5
ENDBRANCH   1   4
BRANCH   1   7
ATOM      7  P   UNL     1       2.228   3.456  20.944  0.00  0.00    +0.000 P 
ATOM      8  O   UNL     1       2.830   2.483  21.908  0.00  0.00    +0.000 OA
BRANCH   7   9
ATOM      9  O   UNL     1       2.250   4.968  21.494  0.00  0.00    +0.000 OA
ATOM     10  H   UNL     1       1.372   5.363  21.706  0.00  0.00    +0.000 HD
ENDBRANCH   7   9
BRANCH   7  11
ATOM     11  O   UNL     1       0.643   3.240  20.803  0.00  0.00    +0.000 OA
ATOM     12  H   UNL     1       0.418   2.288  20.768  0.00  0.00    +0.000 HD
ENDBRANCH   7  11
ENDBRANCH   1   7
BRANCH   1  13
ATOM     13  C   UNL     1       3.408   4.847  18.885  0.00  0.00    +0.000 C 
BRANCH  13  14
ATOM     14  C   UNL     1       4.857   4.882  18.520  0.00  0.00    +0.000 A 
ATOM     15  C   UNL     1       5.965   5.083  19.319  0.00  0.00    +0.000 A 
ATOM     16  N   UNL     1       7.118   5.082  18.587  0.00  0.00    +0.000 NA
ATOM     17  C   UNL     1       6.746   4.853  17.347  0.00  0.00    +0.000 A 
ATOM     18  C   UNL     1       7.510   4.744  16.151  0.00  0.00    +0.000 A 
ATOM     19  C   UNL     1       6.894   4.469  14.986  0.00  0.00    +0.000 A 
ATOM     20  C   UNL     1       5.454   4.275  14.918  0.00  0.00    +0.000 A 
ATOM     21  C   UNL     1       4.724   4.398  16.041  0.00  0.00    +0.000 A 
ATOM     22  N   UNL     1       5.365   4.691  17.247  0.00  0.00    +0.000 N 
ENDBRANCH  13  14
ENDBRANCH   1  13
TORSDOF 7
ENDMDL
MODEL 4
REMARK VINA RESULT:      -7.3      1.855      2.637
REMARK  Name = 
REMARK  7 active torsions:
REMARK  status: ('A' for Active; 'I' for Inactive)
REMARK    1  A    between atoms: C_2  and  O_3
REMARK    2  A    between atoms: C_2  and  C_4
REMARK    3  A    between atoms: C_4  and  C_6
REMARK    4  A    between atoms: C_4  and  P_16
REMARK    5  A    between atoms: C_6  and  C_7
REMARK    6  A    between atoms: P_16  and  O_18
REMARK    7  A    between atoms: P_16  and  O_19
REMARK                            x       y       z     vdW  Elec       q    Type
REMARK                         _______ _______ _______ _____ _____    ______ ____
ROOT
ATOM      1  C   UNL     1       5.477   5.432  18.129  0.00  0.00    +0.000 C 
ATOM      2  F   UNL     1       4.837   5.924  19.235  0.00  0.00    +0.000 F 
ENDROOT
BRANCH   1   4
ATOM      3  O   UNL     1       6.034   6.312  15.970  0.00  0.00    +0.000 OA
ATOM      4  C   UNL     1       5.283   6.321  16.940  0.00  0.00    +0.000 C 
BRANCH   4   5
ATOM      5  O   UNL     1       4.228   7.163  17.044  0.00  0.00    +0.000 OA
ATOM      6  H   UNL     1       3.516   6.801  17.619  0.00  0.00    +0.000 HD
ENDBRANCH   4   5
ENDBRANCH   1   4
BRANCH   1   7
ATOM      7  P   UNL     1       7.199   5.519  18.601  0.00  0.00    +0.000 P 
ATOM      8  O   UNL     1       7.504   5.287  20.047  0.00  0.00    +0.000 OA
BRANCH   7   9
ATOM      9  O   UNL     1       8.029   4.543  17.627  0.00  0.00    +0.000 OA
ATOM     10  H   UNL     1       7.707   4.485  16.697  0.00  0.00    +0.000 HD
ENDBRANCH   7   9
BRANCH   7  11
ATOM     11  O   UNL     1       7.759   6.940  18.103  0.00  0.00    +0.000 OA
ATOM     12  H   UNL     1       7.376   7.186  17.237  0.00  0.00    +0.000 HD
ENDBRANCH   7  11
ENDBRANCH   1   7
BRANCH   1  13
ATOM     13  C   UNL     1       5.029   3.997  17.869  0.00  0.00    +0.000 C 
BRANCH  13  14
ATOM     14  C   UNL     1       3.559   3.786  18.045  0.00  0.00    +0.000 A 
ATOM     15  C   UNL     1       2.534   3.897  17.125  0.00  0.00    +0.000 A 
ATOM     16  N   UNL     1       1.318   3.660  17.699  0.00  0.00    +0.000 NA
ATOM     17  C   UNL     1       1.573   3.375  18.957  0.00  0.00    +0.000 A 
ATOM     18  C   UNL     1       0.701   3.046  20.033  0.00  0.00    +0.000 A 
ATOM     19  C   UNL     1       1.212   2.757  21.244  0.00  0.00    +0.000 A 
ATOM     20  C   UNL     1       2.647   2.770  21.484  0.00  0.00    +0.000 A 
ATOM     21  C   UNL     1       3.475   3.101  20.477  0.00  0.00    +0.000 A 
ATOM     22  N   UNL     1       2.941   3.407  19.223  0.00  0.00    +0.000 N 
ENDBRANCH  13  14
ENDBRANCH   1  13
TORSDOF 7
ENDMDL
MODEL 5
REMARK VINA RESULT:      -7.3      1.911      2.804
REMARK  Name = 
REMARK  7 active torsions:
REMARK  status: ('A' for Active; 'I' for Inactive)
REMARK    1  A    between atoms: C_2  and  O_3
REMARK    2  A    between atoms: C_2  and  C_4
REMARK    3  A    between atoms: C_4  and  C_6
REMARK    4  A    between atoms: C_4  and  P_16
REMARK    5  A    between atoms: C_6  and  C_7
REMARK    6  A    between atoms: P_16  and  O_18
REMARK    7  A    between atoms: P_16  and  O_19
REMARK                            x       y       z     vdW  Elec       q    Type
REMARK                         _______ _______ _______ _____ _____    ______ ____
ROOT
ATOM      1  C   UNL     1       5.621   5.411  18.305  0.00  0.00    +0.000 C 
ATOM      2  F   UNL     1       5.102   5.777  19.520  0.00  0.00    +0.000 F 
ENDROOT
BRANCH   1   4
ATOM      3  O   UNL     1       5.945   6.524  16.208  0.00  0.00    +0.000 OA
ATOM      4  C   UNL     1       5.298   6.416  17.244  0.00  0.00    +0.000 C 
BRANCH   4   5
ATOM      5  O   UNL     1       4.252   7.222  17.543  0.00  0.00    +0.000 OA
ATOM      6  H   UNL     1       3.820   7.588  16.739  0.00  0.00    +0.000 HD
ENDBRANCH   4   5
ENDBRANCH   1   4
BRANCH   1   7
ATOM      7  P   UNL     1       7.383   5.471  18.597  0.00  0.00    +0.000 P 
ATOM      8  O   UNL     1       8.201   4.404  17.943  0.00  0.00    +0.000 OA
BRANCH   7   9
ATOM      9  O   UNL     1       7.894   6.954  18.236  0.00  0.00    +0.000 OA
ATOM     10  H   UNL     1       8.857   7.123  18.367  0.00  0.00    +0.000 HD
ENDBRANCH   7   9
BRANCH   7  11
ATOM     11  O   UNL     1       7.603   5.488  20.189  0.00  0.00    +0.000 OA
ATOM     12  H   UNL     1       8.555   5.490  20.413  0.00  0.00    +0.000 HD
ENDBRANCH   7  11
ENDBRANCH   1   7
BRANCH   1  13
ATOM     13  C   UNL     1       5.149   4.005  17.946  0.00  0.00    +0.000 C 
BRANCH  13  14
ATOM     14  C   UNL     1       3.671   3.818  18.069  0.00  0.00    +0.000 A 
ATOM     15  C   UNL     1       2.680   3.958  17.117  0.00  0.00    +0.000 A 
ATOM     16  N   UNL     1       1.441   3.735  17.648  0.00  0.00    +0.000 NA
ATOM     17  C   UNL     1       1.649   3.428  18.909  0.00  0.00    +0.000 A 
ATOM     18  C   UNL     1       0.736   3.100  19.950  0.00  0.00    +0.000 A 
ATOM     19  C   UNL     1       1.201   2.786  21.174  0.00  0.00    +0.000 A 
ATOM     20  C   UNL     1       2.627   2.770  21.461  0.00  0.00    +0.000 A 
ATOM     21  C   UNL     1       3.493   3.100  20.487  0.00  0.00    +0.000 A 
ATOM     22  N   UNL     1       3.007   3.433  19.221  0.00  0.00    +0.000 N 
ENDBRANCH  13  14
ENDBRANCH   1  13
TORSDOF 7
ENDMDL
MODEL 6
REMARK VINA RESULT:      -7.3      1.754      2.468
REMARK  Name = 
REMARK  7 active torsions:
REMARK  status: ('A' for Active; 'I' for Inactive)
REMARK    1  A    between atoms: C_2  and  O_3
REMARK    2  A    between atoms: C_2  and  C_4
REMARK    3  A    between atoms: C_4  and  C_6
REMARK    4  A    between atoms: C_4  and  P_16
REMARK    5  A    between atoms: C_6  and  C_7
REMARK    6  A    between atoms: P_16  and  O_18
REMARK    7  A    between atoms: P_16  and  O_19
REMARK                            x       y       z     vdW  Elec       q    Type
REMARK                         _______ _______ _______ _____ _____    ______ ____
ROOT
ATOM      1  C   UNL     1       5.453   5.129  17.417  0.00  0.00    +0.000 C 
ATOM      2  F   UNL     1       4.677   6.008  18.126  0.00  0.00    +0.000 F 
ENDROOT
BRANCH   1   4
ATOM      3  O   UNL     1       5.562   4.648  15.072  0.00  0.00    +0.000 OA
ATOM      4  C   UNL     1       5.504   5.487  15.964  0.00  0.00    +0.000 C 
BRANCH   4   5
ATOM      5  O   UNL     1       5.520   6.819  15.722  0.00  0.00    +0.000 OA
ATOM      6  H   UNL     1       6.377   7.233  15.970  0.00  0.00    +0.000 HD
ENDBRANCH   4   5
ENDBRANCH   1   4
BRANCH   1   7
ATOM      7  P   UNL     1       7.080   5.399  18.105  0.00  0.00    +0.000 P 
ATOM      8  O   UNL     1       7.820   6.602  17.610  0.00  0.00    +0.000 OA
BRANCH   7   9
ATOM      9  O   UNL     1       6.951   5.367  19.709  0.00  0.00    +0.000 OA
ATOM     10  H   UNL     1       7.476   4.672  20.171  0.00  0.00    +0.000 HD
ENDBRANCH   7   9
BRANCH   7  11
ATOM     11  O   UNL     1       7.926   4.053  17.874  0.00  0.00    +0.000 OA
ATOM     12  H   UNL     1       7.998   3.841  16.921  0.00  0.00    +0.000 HD
ENDBRANCH   7  11
ENDBRANCH   1   7
BRANCH   1  13
ATOM     13  C   UNL     1       4.963   3.703  17.653  0.00  0.00    +0.000 C 
BRANCH  13  14
ATOM     14  C   UNL     1       3.497   3.610  17.928  0.00  0.00    +0.000 A 
ATOM     15  C   UNL     1       2.425   3.781  17.074  0.00  0.00    +0.000 A 
ATOM     16  N   UNL     1       1.234   3.651  17.731  0.00  0.00    +0.000 NA
ATOM     17  C   UNL     1       1.550   3.371  18.976  0.00  0.00    +0.000 A 
ATOM     18  C   UNL     1       0.728   3.132  20.114  0.00  0.00    +0.000 A 
ATOM     19  C   UNL     1       1.294   2.828  21.296  0.00  0.00    +0.000 A 
ATOM     20  C   UNL     1       2.739   2.735  21.443  0.00  0.00    +0.000 A 
ATOM     21  C   UNL     1       3.521   2.981  20.377  0.00  0.00    +0.000 A 
ATOM     22  N   UNL     1       2.931   3.303  19.153  0.00  0.00    +0.000 N 
ENDBRANCH  13  14
ENDBRANCH   1  13
TORSDOF 7
ENDMDL
MODEL 7
REMARK VINA RESULT:      -7.2      1.813      2.820
REMARK  Name = 
REMARK  7 active torsions:
REMARK  status: ('A' for Active; 'I' for Inactive)
REMARK    1  A    between atoms: C_2  and  O_3
REMARK    2  A    between atoms: C_2  and  C_4
REMARK    3  A    between atoms: C_4  and  C_6
REMARK    4  A    between atoms: C_4  and  P_16
REMARK    5  A    between atoms: C_6  and  C_7
REMARK    6  A    between atoms: P_16  and  O_18
REMARK    7  A    between atoms: P_16  and  O_19
REMARK                            x       y       z     vdW  Elec       q    Type
REMARK                         _______ _______ _______ _____ _____    ______ ____
ROOT
ATOM      1  C   UNL     1       5.923   5.227  16.437  0.00  0.00    +0.000 C 
ATOM      2  F   UNL     1       5.843   6.594  16.414  0.00  0.00    +0.000 F 
ENDROOT
BRANCH   1   4
ATOM      3  O   UNL     1       7.506   5.346  14.642  0.00  0.00    +0.000 OA
ATOM      4  C   UNL     1       6.657   4.697  15.245  0.00  0.00    +0.000 C 
BRANCH   4   5
ATOM      5  O   UNL     1       6.274   3.456  14.864  0.00  0.00    +0.000 OA
ATOM      6  H   UNL     1       5.876   2.945  15.605  0.00  0.00    +0.000 HD
ENDBRANCH   4   5
ENDBRANCH   1   4
BRANCH   1   7
ATOM      7  P   UNL     1       6.930   4.917  17.881  0.00  0.00    +0.000 P 
ATOM      8  O   UNL     1       7.311   6.113  18.695  0.00  0.00    +0.000 OA
BRANCH   7   9
ATOM      9  O   UNL     1       6.204   3.777  18.756  0.00  0.00    +0.000 OA
ATOM     10  H   UNL     1       6.790   3.073  19.119  0.00  0.00    +0.000 HD
ENDBRANCH   7   9
BRANCH   7  11
ATOM     11  O   UNL     1       8.225   4.101  17.393  0.00  0.00    +0.000 OA
ATOM     12  H   UNL     1       7.971   3.252  16.978  0.00  0.00    +0.000 HD
ENDBRANCH   7  11
ENDBRANCH   1   7
BRANCH   1  13
ATOM     13  C   UNL     1       4.525   4.631  16.579  0.00  0.00    +0.000 C 
BRANCH  13  14
ATOM     14  C   UNL     1       3.705   5.273  17.651  0.00  0.00    +0.000 A 
ATOM     15  C   UNL     1       3.523   6.611  17.943  0.00  0.00    +0.000 A 
ATOM     16  N   UNL     1       2.723   6.782  19.037  0.00  0.00    +0.000 NA
ATOM     17  C   UNL     1       2.380   5.570  19.413  0.00  0.00    +0.000 A 
ATOM     18  C   UNL     1       1.563   5.125  20.490  0.00  0.00    +0.000 A 
ATOM     19  C   UNL     1       1.328   3.809  20.654  0.00  0.00    +0.000 A 
ATOM     20  C   UNL     1       1.893   2.821  19.748  0.00  0.00    +0.000 A 
ATOM     21  C   UNL     1       2.684   3.233  18.741  0.00  0.00    +0.000 A 
ATOM     22  N   UNL     1       2.931   4.598  18.579  0.00  0.00    +0.000 N 
ENDBRANCH  13  14
ENDBRANCH   1  13
TORSDOF 7
ENDMDL
MODEL 8
REMARK VINA RESULT:      -7.2      1.462      1.962
REMARK  Name = 
REMARK  7 active torsions:
REMARK  status: ('A' for Active; 'I' for Inactive)
REMARK    1  A    between atoms: C_2  and  O_3
REMARK    2  A    between atoms: C_2  and  C_4
REMARK    3  A    between atoms: C_4  and  C_6
REMARK    4  A    between atoms: C_4  and  P_16
REMARK    5  A    between atoms: C_6  and  C_7
REMARK    6  A    between atoms: P_16  and  O_18
REMARK    7  A    between atoms: P_16  and  O_19
REMARK                            x       y       z     vdW  Elec       q    Type
REMARK                         _______ _______ _______ _____ _____    ______ ____
ROOT
ATOM      1  C   UNL     1       5.888   4.968  17.631  0.00  0.00    +0.000 C 
ATOM      2  F   UNL     1       5.635   3.702  17.172  0.00  0.00    +0.000 F 
ENDROOT
BRANCH   1   4
ATOM      3  O   UNL     1       6.785   5.427  19.806  0.00  0.00    +0.000 OA
ATOM      4  C   UNL     1       6.956   4.970  18.680  0.00  0.00    +0.000 C 
BRANCH   4   5
ATOM      5  O   UNL     1       8.140   4.459  18.268  0.00  0.00    +0.000 OA
ATOM      6  H   UNL     1       8.043   3.561  17.877  0.00  0.00    +0.000 HD
ENDBRANCH   4   5
ENDBRANCH   1   4
BRANCH   1   7
ATOM      7  P   UNL     1       6.541   5.787  16.183  0.00  0.00    +0.000 P 
ATOM      8  O   UNL     1       5.538   6.378  15.245  0.00  0.00    +0.000 OA
BRANCH   7   9
ATOM      9  O   UNL     1       7.638   6.859  16.674  0.00  0.00    +0.000 OA
ATOM     10  H   UNL     1       8.003   7.453  15.977  0.00  0.00    +0.000 HD
ENDBRANCH   7   9
BRANCH   7  11
ATOM     11  O   UNL     1       7.502   4.739  15.435  0.00  0.00    +0.000 OA
ATOM     12  H   UNL     1       7.510   3.876  15.897  0.00  0.00    +0.000 HD
ENDBRANCH   7  11
ENDBRANCH   1   7
BRANCH   1  13
ATOM     13  C   UNL     1       4.590   5.610  18.113  0.00  0.00    +0.000 C 
BRANCH  13  14
ATOM     14  C   UNL     1       3.419   4.681  18.096  0.00  0.00    +0.000 A 
ATOM     15  C   UNL     1       2.764   4.105  17.025  0.00  0.00    +0.000 A 
ATOM     16  N   UNL     1       1.707   3.343  17.435  0.00  0.00    +0.000 NA
ATOM     17  C   UNL     1       1.713   3.412  18.748  0.00  0.00    +0.000 A 
ATOM     18  C   UNL     1       0.850   2.824  19.716  0.00  0.00    +0.000 A 
ATOM     19  C   UNL     1       1.083   3.019  21.027  0.00  0.00    +0.000 A 
ATOM     20  C   UNL     1       2.207   3.821  21.485  0.00  0.00    +0.000 A 
ATOM     21  C   UNL     1       3.013   4.397  20.576  0.00  0.00    +0.000 A 
ATOM     22  N   UNL     1       2.764   4.199  19.216  0.00  0.00    +0.000 N 
ENDBRANCH  13  14
ENDBRANCH   1  13
TORSDOF 7
ENDMDL
MODEL 9
REMARK VINA RESULT:      -7.2      1.638      2.920
REMARK  Name = 
REMARK  7 active torsions:
REMARK  status: ('A' for Active; 'I' for Inactive)
REMARK    1  A    between atoms: C_2  and  O_3
REMARK    2  A    between atoms: C_2  and  C_4
REMARK    3  A    between atoms: C_4  and  C_6
REMARK    4  A    between atoms: C_4  and  P_16
REMARK    5  A    between atoms: C_6  and  C_7
REMARK    6  A    between atoms: P_16  and  O_18
REMARK    7  A    between atoms: P_16  and  O_19
REMARK                            x       y       z     vdW  Elec       q    Type
REMARK                         _______ _______ _______ _____ _____    ______ ____
ROOT
ATOM      1  C   UNL     1       5.329   4.773  17.293  0.00  0.00    +0.000 C 
ATOM      2  F   UNL     1       5.019   3.574  16.706  0.00  0.00    +0.000 F 
ENDROOT
BRANCH   1   4
ATOM      3  O   UNL     1       6.388   5.470  19.327  0.00  0.00    +0.000 OA
ATOM      4  C   UNL     1       5.810   4.589  18.699  0.00  0.00    +0.000 C 
BRANCH   4   5
ATOM      5  O   UNL     1       5.588   3.353  19.204  0.00  0.00    +0.000 OA
ATOM      6  H   UNL     1       5.285   3.381  20.139  0.00  0.00    +0.000 HD
ENDBRANCH   4   5
ENDBRANCH   1   4
BRANCH   1   7
ATOM      7  P   UNL     1       6.709   5.346  16.312  0.00  0.00    +0.000 P 
ATOM      8  O   UNL     1       7.941   4.498  16.340  0.00  0.00    +0.000 OA
BRANCH   7   9
ATOM      9  O   UNL     1       6.175   5.615  14.818  0.00  0.00    +0.000 OA
ATOM     10  H   UNL     1       6.543   5.030  14.115  0.00  0.00    +0.000 HD
ENDBRANCH   7   9
BRANCH   7  11
ATOM     11  O   UNL     1       7.022   6.855  16.765  0.00  0.00    +0.000 OA
ATOM     12  H   UNL     1       6.658   7.038  17.655  0.00  0.00    +0.000 HD
ENDBRANCH   7  11
ENDBRANCH   1   7
BRANCH   1  13
ATOM     13  C   UNL     1       4.132   5.716  17.201  0.00  0.00    +0.000 C 
BRANCH  13  14
ATOM     14  C   UNL     1       3.204   5.623  18.368  0.00  0.00    +0.000 A 
ATOM     15  C   UNL     1       2.934   6.547  19.359  0.00  0.00    +0.000 A 
ATOM     16  N   UNL     1       2.047   6.056  20.275  0.00  0.00    +0.000 NA
ATOM     17  C   UNL     1       1.737   4.851  19.852  0.00  0.00    +0.000 A 
ATOM     18  C   UNL     1       0.864   3.867  20.398  0.00  0.00    +0.000 A 
ATOM     19  C   UNL     1       0.684   2.699  19.753  0.00  0.00    +0.000 A 
ATOM     20  C   UNL     1       1.363   2.415  18.498  0.00  0.00    +0.000 A 
ATOM     21  C   UNL     1       2.206   3.331  17.988  0.00  0.00    +0.000 A 
ATOM     22  N   UNL     1       2.397   4.538  18.664  0.00  0.00    +0.000 N 
ENDBRANCH  13  14
ENDBRANCH   1  13
TORSDOF 7
ENDMDL
