MODEL 1
REMARK VINA RESULT:      -7.8      0.000      0.000
REMARK  Name = 
REMARK  10 active torsions:
REMARK  status: ('A' for Active; 'I' for Inactive)
REMARK    1  A    between atoms: C_1  and  C_2
REMARK    2  A    between atoms: C_2  and  N_3
REMARK    3  A    between atoms: N_3  and  C_4
REMARK    4  A    between atoms: C_4  and  C_5
REMARK    5  A    between atoms: C_5  and  N_6
REMARK    6  A    between atoms: N_6  and  C_7
REMARK    7  A    between atoms: C_9  and  C_10
REMARK    8  A    between atoms: C_13  and  S_14
REMARK    9  A    between atoms: S_14  and  C_15
REMARK   10  A    between atoms: C_19  and  C_20
REMARK                            x       y       z     vdW  Elec       q    Type
REMARK                         _______ _______ _______ _____ _____    ______ ____
ROOT
ATOM      1  C   UNL     1       1.514  10.017  18.676  0.00  0.00    +0.000 A 
ATOM      2  C   UNL     1       2.264   9.131  17.989  0.00  0.00    +0.000 A 
ATOM      3  C   UNL     1       2.557   7.812  18.517  0.00  0.00    +0.000 A 
ATOM      4  C   UNL     1       2.048   7.454  19.725  0.00  0.00    +0.000 A 
ATOM      5  C   UNL     1       1.277   8.362  20.495  0.00  0.00    +0.000 A 
ATOM      6  N   UNL     1       0.723   8.199  21.674  0.00  0.00    +0.000 NA
ATOM      7  C   UNL     1       0.090   9.375  21.944  0.00  0.00    +0.000 A 
ATOM      8  C   UNL     1      -0.657   9.708  23.084  0.00  0.00    +0.000 A 
ATOM      9  C   UNL     1      -1.235  10.975  23.168  0.00  0.00    +0.000 A 
ATOM     10  C   UNL     1      -1.075  11.891  22.132  0.00  0.00    +0.000 A 
ATOM     11  C   UNL     1      -0.337  11.573  20.984  0.00  0.00    +0.000 A 
ATOM     12  C   UNL     1       0.251  10.298  20.906  0.00  0.00    +0.000 A 
ATOM     13  N   UNL     1       1.033   9.634  19.963  0.00  0.00    +0.000 N 
ENDROOT
BRANCH   3  14
ATOM     14  C   UNL     1       3.391   6.861  17.734  0.00  0.00    +0.000 A 
ATOM     15  C   UNL     1       3.040   5.508  17.653  0.00  0.00    +0.000 A 
ATOM     16  C   UNL     1       3.890   4.586  17.024  0.00  0.00    +0.000 A 
ATOM     17  C   UNL     1       5.095   5.009  16.448  0.00  0.00    +0.000 A 
ATOM     18  C   UNL     1       5.412   6.372  16.476  0.00  0.00    +0.000 A 
ATOM     19  C   UNL     1       4.569   7.293  17.110  0.00  0.00    +0.000 A 
BRANCH  17  20
ATOM     20  S   UNL     1       6.315   3.808  15.848  0.00  0.00    +0.000 S 
ATOM     21  C   UNL     1       6.117   4.011  14.066  0.00  0.00    +0.000 C 
ATOM     22  O   UNL     1       7.735   4.360  16.230  0.00  0.00    +0.000 OA
ENDBRANCH  17  20
ENDBRANCH   3  14
BRANCH   1  23
ATOM     23  N   UNL     1       1.231  11.247  18.116  0.00  0.00    +0.000 N 
ATOM     24  H   UNL     1       0.465  11.269  17.459  0.00  0.00    +0.000 HD
BRANCH  23  25
ATOM     25  C   UNL     1       2.252  12.284  17.930  0.00  0.00    +0.000 C 
BRANCH  25  26
ATOM     26  C   UNL     1       2.290  13.249  19.128  0.00  0.00    +0.000 C 
BRANCH  26  27
ATOM     27  N   UNL     1       2.132  14.640  18.693  0.00  0.00    +0.000 NA
ATOM     28  H   UNL     1       3.011  15.143  18.769  0.00  0.00    +0.000 HD
BRANCH  27  30
ATOM     29  C   UNL     1      -0.259  14.806  19.032  0.00  0.00    +0.000 C 
ATOM     30  C   UNL     1       1.102  15.329  19.460  0.00  0.00    +0.000 C 
ENDBRANCH  27  30
ENDBRANCH  26  27
ENDBRANCH  25  26
ENDBRANCH  23  25
ENDBRANCH   1  23
BRANCH   4  31
ATOM     31  C   UNL     1       2.325   6.053  20.243  0.00  0.00    +0.000 C 
ATOM     32  N   UNL     1       2.557   4.890  20.673  0.00  0.00    +0.000 NA
ENDBRANCH   4  31
TORSDOF 8
ENDMDL
MODEL 2
REMARK VINA RESULT:      -7.7      0.671      1.043
REMARK  Name = 
REMARK  10 active torsions:
REMARK  status: ('A' for Active; 'I' for Inactive)
REMARK    1  A    between atoms: C_1  and  C_2
REMARK    2  A    between atoms: C_2  and  N_3
REMARK    3  A    between atoms: N_3  and  C_4
REMARK    4  A    between atoms: C_4  and  C_5
REMARK    5  A    between atoms: C_5  and  N_6
REMARK    6  A    between atoms: N_6  and  C_7
REMARK    7  A    between atoms: C_9  and  C_10
REMARK    8  A    between atoms: C_13  and  S_14
REMARK    9  A    between atoms: S_14  and  C_15
REMARK   10  A    between atoms: C_19  and  C_20
REMARK                            x       y       z     vdW  Elec       q    Type
REMARK                         _______ _______ _______ _____ _____    ______ ____
ROOT
ATOM      1  C   UNL     1       1.481   9.966  18.655  0.00  0.00    +0.000 A 
ATOM      2  C   UNL     1       2.234   9.087  17.963  0.00  0.00    +0.000 A 
ATOM      3  C   UNL     1       2.555   7.776  18.495  0.00  0.00    +0.000 A 
ATOM      4  C   UNL     1       2.068   7.419  19.713  0.00  0.00    +0.000 A 
ATOM      5  C   UNL     1       1.294   8.320  20.488  0.00  0.00    +0.000 A 
ATOM      6  N   UNL     1       0.760   8.157  21.677  0.00  0.00    +0.000 NA
ATOM      7  C   UNL     1       0.114   9.325  21.947  0.00  0.00    +0.000 A 
ATOM      8  C   UNL     1      -0.622   9.655  23.096  0.00  0.00    +0.000 A 
ATOM      9  C   UNL     1      -1.217  10.914  23.181  0.00  0.00    +0.000 A 
ATOM     10  C   UNL     1      -1.086  11.824  22.136  0.00  0.00    +0.000 A 
ATOM     11  C   UNL     1      -0.361  11.510  20.980  0.00  0.00    +0.000 A 
ATOM     12  C   UNL     1       0.246  10.244  20.902  0.00  0.00    +0.000 A 
ATOM     13  N   UNL     1       1.024   9.585  19.952  0.00  0.00    +0.000 N 
ENDROOT
BRANCH   3  14
ATOM     14  C   UNL     1       3.391   6.833  17.707  0.00  0.00    +0.000 A 
ATOM     15  C   UNL     1       3.053   5.476  17.631  0.00  0.00    +0.000 A 
ATOM     16  C   UNL     1       3.908   4.562  16.996  0.00  0.00    +0.000 A 
ATOM     17  C   UNL     1       5.102   4.995  16.409  0.00  0.00    +0.000 A 
ATOM     18  C   UNL     1       5.406   6.362  16.432  0.00  0.00    +0.000 A 
ATOM     19  C   UNL     1       4.559   7.275  17.072  0.00  0.00    +0.000 A 
BRANCH  17  20
ATOM     20  S   UNL     1       6.330   3.807  15.800  0.00  0.00    +0.000 S 
ATOM     21  C   UNL     1       6.135   4.026  14.020  0.00  0.00    +0.000 C 
ATOM     22  O   UNL     1       7.747   4.361  16.191  0.00  0.00    +0.000 OA
ENDBRANCH  17  20
ENDBRANCH   3  14
BRANCH   1  23
ATOM     23  N   UNL     1       1.171  11.188  18.092  0.00  0.00    +0.000 N 
ATOM     24  H   UNL     1       0.568  11.162  17.283  0.00  0.00    +0.000 HD
BRANCH  23  25
ATOM     25  C   UNL     1       2.069  12.346  18.173  0.00  0.00    +0.000 C 
BRANCH  25  26
ATOM     26  C   UNL     1       1.287  13.635  18.479  0.00  0.00    +0.000 C 
BRANCH  26  27
ATOM     27  N   UNL     1       2.194  14.764  18.701  0.00  0.00    +0.000 NA
ATOM     28  H   UNL     1       1.906  15.570  18.155  0.00  0.00    +0.000 HD
BRANCH  27  30
ATOM     29  C   UNL     1       4.491  15.042  19.415  0.00  0.00    +0.000 C 
ATOM     30  C   UNL     1       3.573  14.417  18.376  0.00  0.00    +0.000 C 
ENDBRANCH  27  30
ENDBRANCH  26  27
ENDBRANCH  25  26
ENDBRANCH  23  25
ENDBRANCH   1  23
BRANCH   4  31
ATOM     31  C   UNL     1       2.374   6.025  20.236  0.00  0.00    +0.000 C 
ATOM     32  N   UNL     1       2.627   4.868  20.670  0.00  0.00    +0.000 NA
ENDBRANCH   4  31
TORSDOF 8
ENDMDL
MODEL 3
REMARK VINA RESULT:      -7.7      1.863      2.489
REMARK  Name = 
REMARK  10 active torsions:
REMARK  status: ('A' for Active; 'I' for Inactive)
REMARK    1  A    between atoms: C_1  and  C_2
REMARK    2  A    between atoms: C_2  and  N_3
REMARK    3  A    between atoms: N_3  and  C_4
REMARK    4  A    between atoms: C_4  and  C_5
REMARK    5  A    between atoms: C_5  and  N_6
REMARK    6  A    between atoms: N_6  and  C_7
REMARK    7  A    between atoms: C_9  and  C_10
REMARK    8  A    between atoms: C_13  and  S_14
REMARK    9  A    between atoms: S_14  and  C_15
REMARK   10  A    between atoms: C_19  and  C_20
REMARK                            x       y       z     vdW  Elec       q    Type
REMARK                         _______ _______ _______ _____ _____    ______ ____
ROOT
ATOM      1  C   UNL     1       1.144   9.802  18.629  0.00  0.00    +0.000 A 
ATOM      2  C   UNL     1       1.915   8.944  17.931  0.00  0.00    +0.000 A 
ATOM      3  C   UNL     1       2.395   7.705  18.514  0.00  0.00    +0.000 A 
ATOM      4  C   UNL     1       2.043   7.394  19.789  0.00  0.00    +0.000 A 
ATOM      5  C   UNL     1       1.256   8.278  20.571  0.00  0.00    +0.000 A 
ATOM      6  N   UNL     1       0.837   8.154  21.809  0.00  0.00    +0.000 NA
ATOM      7  C   UNL     1       0.111   9.279  22.061  0.00  0.00    +0.000 A 
ATOM      8  C   UNL     1      -0.556   9.625  23.246  0.00  0.00    +0.000 A 
ATOM      9  C   UNL     1      -1.254  10.831  23.303  0.00  0.00    +0.000 A 
ATOM     10  C   UNL     1      -1.291  11.674  22.196  0.00  0.00    +0.000 A 
ATOM     11  C   UNL     1      -0.636  11.342  21.003  0.00  0.00    +0.000 A 
ATOM     12  C   UNL     1       0.074  10.130  20.952  0.00  0.00    +0.000 A 
ATOM     13  N   UNL     1       0.830   9.475  19.981  0.00  0.00    +0.000 N 
ENDROOT
BRANCH   3  14
ATOM     14  C   UNL     1       3.247   6.783  17.716  0.00  0.00    +0.000 A 
ATOM     15  C   UNL     1       2.935   5.421  17.632  0.00  0.00    +0.000 A 
ATOM     16  C   UNL     1       3.804   4.527  16.988  0.00  0.00    +0.000 A 
ATOM     17  C   UNL     1       4.989   4.988  16.402  0.00  0.00    +0.000 A 
ATOM     18  C   UNL     1       5.267   6.360  16.433  0.00  0.00    +0.000 A 
ATOM     19  C   UNL     1       4.404   7.252  17.082  0.00  0.00    +0.000 A 
BRANCH  17  20
ATOM     20  S   UNL     1       6.237   3.827  15.781  0.00  0.00    +0.000 S 
ATOM     21  C   UNL     1       6.044   4.067  14.003  0.00  0.00    +0.000 C 
ATOM     22  O   UNL     1       7.643   4.398  16.184  0.00  0.00    +0.000 OA
ENDBRANCH  17  20
ENDBRANCH   3  14
BRANCH   1  23
ATOM     23  N   UNL     1       0.680  10.951  18.019  0.00  0.00    +0.000 N 
ATOM     24  H   UNL     1       1.317  11.735  18.010  0.00  0.00    +0.000 HD
BRANCH  23  25
ATOM     25  C   UNL     1      -0.745  11.293  17.958  0.00  0.00    +0.000 C 
BRANCH  25  26
ATOM     26  C   UNL     1      -1.605  10.046  17.688  0.00  0.00    +0.000 C 
BRANCH  26  27
ATOM     27  N   UNL     1      -1.807   9.845  16.250  0.00  0.00    +0.000 NA
ATOM     28  H   UNL     1      -0.931   9.943  15.746  0.00  0.00    +0.000 HD
BRANCH  27  30
ATOM     29  C   UNL     1      -3.382  10.179  14.443  0.00  0.00    +0.000 C 
ATOM     30  C   UNL     1      -2.792  10.774  15.711  0.00  0.00    +0.000 C 
ENDBRANCH  27  30
ENDBRANCH  26  27
ENDBRANCH  25  26
ENDBRANCH  23  25
ENDBRANCH   1  23
BRANCH   4  31
ATOM     31  C   UNL     1       2.515   6.072  20.370  0.00  0.00    +0.000 C 
ATOM     32  N   UNL     1       2.908   4.974  20.851  0.00  0.00    +0.000 NA
ENDBRANCH   4  31
TORSDOF 8
ENDMDL
MODEL 4
REMARK VINA RESULT:      -7.5      4.045      8.048
REMARK  Name = 
REMARK  10 active torsions:
REMARK  status: ('A' for Active; 'I' for Inactive)
REMARK    1  A    between atoms: C_1  and  C_2
REMARK    2  A    between atoms: C_2  and  N_3
REMARK    3  A    between atoms: N_3  and  C_4
REMARK    4  A    between atoms: C_4  and  C_5
REMARK    5  A    between atoms: C_5  and  N_6
REMARK    6  A    between atoms: N_6  and  C_7
REMARK    7  A    between atoms: C_9  and  C_10
REMARK    8  A    between atoms: C_13  and  S_14
REMARK    9  A    between atoms: S_14  and  C_15
REMARK   10  A    between atoms: C_19  and  C_20
REMARK                            x       y       z     vdW  Elec       q    Type
REMARK                         _______ _______ _______ _____ _____    ______ ____
ROOT
ATOM      1  C   UNL     1       3.090   7.111  18.044  0.00  0.00    +0.000 A 
ATOM      2  C   UNL     1       2.637   8.373  17.909  0.00  0.00    +0.000 A 
ATOM      3  C   UNL     1       1.737   8.967  18.881  0.00  0.00    +0.000 A 
ATOM      4  C   UNL     1       1.359   8.238  19.964  0.00  0.00    +0.000 A 
ATOM      5  C   UNL     1       1.790   6.897  20.134  0.00  0.00    +0.000 A 
ATOM      6  N   UNL     1       1.517   6.045  21.096  0.00  0.00    +0.000 NA
ATOM      7  C   UNL     1       2.196   4.908  20.777  0.00  0.00    +0.000 A 
ATOM      8  C   UNL     1       2.238   3.702  21.492  0.00  0.00    +0.000 A 
ATOM      9  C   UNL     1       3.002   2.646  20.996  0.00  0.00    +0.000 A 
ATOM     10  C   UNL     1       3.716   2.792  19.810  0.00  0.00    +0.000 A 
ATOM     11  C   UNL     1       3.691   3.991  19.086  0.00  0.00    +0.000 A 
ATOM     12  C   UNL     1       2.912   5.050  19.584  0.00  0.00    +0.000 A 
ATOM     13  N   UNL     1       2.639   6.351  19.163  0.00  0.00    +0.000 N 
ENDROOT
BRANCH   3  14
ATOM     14  C   UNL     1       1.253  10.361  18.699  0.00  0.00    +0.000 A 
ATOM     15  C   UNL     1       2.153  11.434  18.713  0.00  0.00    +0.000 A 
ATOM     16  C   UNL     1       1.688  12.756  18.671  0.00  0.00    +0.000 A 
ATOM     17  C   UNL     1       0.316  13.025  18.593  0.00  0.00    +0.000 A 
ATOM     18  C   UNL     1      -0.577  11.949  18.516  0.00  0.00    +0.000 A 
ATOM     19  C   UNL     1      -0.116  10.628  18.566  0.00  0.00    +0.000 A 
BRANCH  17  20
ATOM     20  S   UNL     1      -0.318  14.715  18.780  0.00  0.00    +0.000 S 
ATOM     21  C   UNL     1      -1.105  14.585  20.399  0.00  0.00    +0.000 C 
ATOM     22  O   UNL     1       0.925  15.662  18.934  0.00  0.00    +0.000 OA
ENDBRANCH  17  20
ENDBRANCH   3  14
BRANCH   1  23
ATOM     23  N   UNL     1       3.974   6.602  17.112  0.00  0.00    +0.000 N 
ATOM     24  H   UNL     1       3.799   5.656  16.807  0.00  0.00    +0.000 HD
BRANCH  23  25
ATOM     25  C   UNL     1       5.368   7.048  17.021  0.00  0.00    +0.000 C 
BRANCH  25  26
ATOM     26  C   UNL     1       6.339   5.857  17.108  0.00  0.00    +0.000 C 
BRANCH  26  27
ATOM     27  N   UNL     1       7.138   5.736  15.886  0.00  0.00    +0.000 NA
ATOM     28  H   UNL     1       6.896   6.466  15.223  0.00  0.00    +0.000 HD
BRANCH  27  30
ATOM     29  C   UNL     1       5.665   4.424  14.483  0.00  0.00    +0.000 C 
ATOM     30  C   UNL     1       6.970   4.429  15.261  0.00  0.00    +0.000 C 
ENDBRANCH  27  30
ENDBRANCH  26  27
ENDBRANCH  25  26
ENDBRANCH  23  25
ENDBRANCH   1  23
BRANCH   4  31
ATOM     31  C   UNL     1       0.454   8.888  20.997  0.00  0.00    +0.000 C 
ATOM     32  N   UNL     1      -0.297   9.428  21.854  0.00  0.00    +0.000 NA
ENDBRANCH   4  31
TORSDOF 8
ENDMDL
MODEL 5
REMARK VINA RESULT:      -7.5      4.141      8.932
REMARK  Name = 
REMARK  10 active torsions:
REMARK  status: ('A' for Active; 'I' for Inactive)
REMARK    1  A    between atoms: C_1  and  C_2
REMARK    2  A    between atoms: C_2  and  N_3
REMARK    3  A    between atoms: N_3  and  C_4
REMARK    4  A    between atoms: C_4  and  C_5
REMARK    5  A    between atoms: C_5  and  N_6
REMARK    6  A    between atoms: N_6  and  C_7
REMARK    7  A    between atoms: C_9  and  C_10
REMARK    8  A    between atoms: C_13  and  S_14
REMARK    9  A    between atoms: S_14  and  C_15
REMARK   10  A    between atoms: C_19  and  C_20
REMARK                            x       y       z     vdW  Elec       q    Type
REMARK                         _______ _______ _______ _____ _____    ______ ____
ROOT
ATOM      1  C   UNL     1       2.820   5.691  19.933  0.00  0.00    +0.000 A 
ATOM      2  C   UNL     1       2.009   6.552  20.581  0.00  0.00    +0.000 A 
ATOM      3  C   UNL     1       1.734   7.878  20.059  0.00  0.00    +0.000 A 
ATOM      4  C   UNL     1       2.292   8.252  18.878  0.00  0.00    +0.000 A 
ATOM      5  C   UNL     1       3.171   7.390  18.174  0.00  0.00    +0.000 A 
ATOM      6  N   UNL     1       3.807   7.585  17.042  0.00  0.00    +0.000 NA
ATOM      7  C   UNL     1       4.503   6.436  16.814  0.00  0.00    +0.000 A 
ATOM      8  C   UNL     1       5.339   6.137  15.727  0.00  0.00    +0.000 A 
ATOM      9  C   UNL     1       5.964   4.891  15.675  0.00  0.00    +0.000 A 
ATOM     10  C   UNL     1       5.754   3.958  16.686  0.00  0.00    +0.000 A 
ATOM     11  C   UNL     1       4.919   4.237  17.776  0.00  0.00    +0.000 A 
ATOM     12  C   UNL     1       4.298   5.497  17.830  0.00  0.00    +0.000 A 
ATOM     13  N   UNL     1       3.432   6.127  18.721  0.00  0.00    +0.000 N 
ENDROOT
BRANCH   3  14
ATOM     14  C   UNL     1       0.839   8.804  20.802  0.00  0.00    +0.000 A 
ATOM     15  C   UNL     1      -0.151   9.530  20.127  0.00  0.00    +0.000 A 
ATOM     16  C   UNL     1      -0.911  10.497  20.801  0.00  0.00    +0.000 A 
ATOM     17  C   UNL     1      -0.706  10.738  22.165  0.00  0.00    +0.000 A 
ATOM     18  C   UNL     1       0.240   9.967  22.850  0.00  0.00    +0.000 A 
ATOM     19  C   UNL     1       1.006   9.005  22.178  0.00  0.00    +0.000 A 
BRANCH  17  20
ATOM     20  S   UNL     1      -1.501  12.141  22.996  0.00  0.00    +0.000 S 
ATOM     21  C   UNL     1      -1.807  13.221  21.583  0.00  0.00    +0.000 C 
ATOM     22  O   UNL     1      -2.895  11.642  23.519  0.00  0.00    +0.000 OA
ENDBRANCH  17  20
ENDBRANCH   3  14
BRANCH   1  23
ATOM     23  N   UNL     1       3.022   4.427  20.451  0.00  0.00    +0.000 N 
ATOM     24  H   UNL     1       3.393   3.740  19.810  0.00  0.00    +0.000 HD
BRANCH  23  25
ATOM     25  C   UNL     1       2.226   3.891  21.560  0.00  0.00    +0.000 C 
BRANCH  25  26
ATOM     26  C   UNL     1       1.418   2.658  21.120  0.00  0.00    +0.000 C 
BRANCH  26  27
ATOM     27  N   UNL     1       0.451   3.005  20.075  0.00  0.00    +0.000 NA
ATOM     28  H   UNL     1      -0.495   2.780  20.370  0.00  0.00    +0.000 HD
BRANCH  27  30
ATOM     29  C   UNL     1       1.276   3.347  17.825  0.00  0.00    +0.000 C 
ATOM     30  C   UNL     1       0.748   2.326  18.820  0.00  0.00    +0.000 C 
ENDBRANCH  27  30
ENDBRANCH  26  27
ENDBRANCH  25  26
ENDBRANCH  23  25
ENDBRANCH   1  23
BRANCH   4  31
ATOM     31  C   UNL     1       1.957   9.626  18.321  0.00  0.00    +0.000 C 
ATOM     32  N   UNL     1       1.680  10.766  17.859  0.00  0.00    +0.000 NA
ENDBRANCH   4  31
TORSDOF 8
ENDMDL
MODEL 6
REMARK VINA RESULT:      -7.5      4.090      7.834
REMARK  Name = 
REMARK  10 active torsions:
REMARK  status: ('A' for Active; 'I' for Inactive)
REMARK    1  A    between atoms: C_1  and  C_2
REMARK    2  A    between atoms: C_2  and  N_3
REMARK    3  A    between atoms: N_3  and  C_4
REMARK    4  A    between atoms: C_4  and  C_5
REMARK    5  A    between atoms: C_5  and  N_6
REMARK    6  A    between atoms: N_6  and  C_7
REMARK    7  A    between atoms: C_9  and  C_10
REMARK    8  A    between atoms: C_13  and  S_14
REMARK    9  A    between atoms: S_14  and  C_15
REMARK   10  A    between atoms: C_19  and  C_20
REMARK                            x       y       z     vdW  Elec       q    Type
REMARK                         _______ _______ _______ _____ _____    ______ ____
ROOT
ATOM      1  C   UNL     1       3.004   6.921  17.995  0.00  0.00    +0.000 A 
ATOM      2  C   UNL     1       2.569   8.190  17.860  0.00  0.00    +0.000 A 
ATOM      3  C   UNL     1       1.738   8.821  18.868  0.00  0.00    +0.000 A 
ATOM      4  C   UNL     1       1.408   8.122  19.985  0.00  0.00    +0.000 A 
ATOM      5  C   UNL     1       1.820   6.776  20.159  0.00  0.00    +0.000 A 
ATOM      6  N   UNL     1       1.585   5.949  21.152  0.00  0.00    +0.000 NA
ATOM      7  C   UNL     1       2.221   4.791  20.819  0.00  0.00    +0.000 A 
ATOM      8  C   UNL     1       2.279   3.599  21.555  0.00  0.00    +0.000 A 
ATOM      9  C   UNL     1       2.993   2.517  21.039  0.00  0.00    +0.000 A 
ATOM     10  C   UNL     1       3.641   2.625  19.812  0.00  0.00    +0.000 A 
ATOM     11  C   UNL     1       3.599   3.810  19.065  0.00  0.00    +0.000 A 
ATOM     12  C   UNL     1       2.872   4.895  19.585  0.00  0.00    +0.000 A 
ATOM     13  N   UNL     1       2.601   6.192  19.153  0.00  0.00    +0.000 N 
ENDROOT
BRANCH   3  14
ATOM     14  C   UNL     1       1.273  10.221  18.685  0.00  0.00    +0.000 A 
ATOM     15  C   UNL     1       2.190  11.280  18.676  0.00  0.00    +0.000 A 
ATOM     16  C   UNL     1       1.745  12.610  18.632  0.00  0.00    +0.000 A 
ATOM     17  C   UNL     1       0.377  12.900  18.576  0.00  0.00    +0.000 A 
ATOM     18  C   UNL     1      -0.534  11.838  18.522  0.00  0.00    +0.000 A 
ATOM     19  C   UNL     1      -0.093  10.510  18.573  0.00  0.00    +0.000 A 
BRANCH  17  20
ATOM     20  S   UNL     1      -0.227  14.600  18.763  0.00  0.00    +0.000 S 
ATOM     21  C   UNL     1      -1.121  14.455  20.323  0.00  0.00    +0.000 C 
ATOM     22  O   UNL     1       1.025  15.512  19.019  0.00  0.00    +0.000 OA
ENDBRANCH  17  20
ENDBRANCH   3  14
BRANCH   1  23
ATOM     23  N   UNL     1       3.823   6.376  17.026  0.00  0.00    +0.000 N 
ATOM     24  H   UNL     1       3.766   5.374  16.911  0.00  0.00    +0.000 HD
BRANCH  23  25
ATOM     25  C   UNL     1       5.099   6.985  16.636  0.00  0.00    +0.000 C 
BRANCH  25  26
ATOM     26  C   UNL     1       6.273   6.021  16.880  0.00  0.00    +0.000 C 
BRANCH  26  27
ATOM     27  N   UNL     1       7.552   6.737  16.896  0.00  0.00    +0.000 NA
ATOM     28  H   UNL     1       8.277   6.190  16.441  0.00  0.00    +0.000 HD
BRANCH  27  30
ATOM     29  C   UNL     1       7.783   5.844  19.133  0.00  0.00    +0.000 C 
ATOM     30  C   UNL     1       7.964   7.070  18.254  0.00  0.00    +0.000 C 
ENDBRANCH  27  30
ENDBRANCH  26  27
ENDBRANCH  25  26
ENDBRANCH  23  25
ENDBRANCH   1  23
BRANCH   4  31
ATOM     31  C   UNL     1       0.576   8.812  21.054  0.00  0.00    +0.000 C 
ATOM     32  N   UNL     1      -0.114   9.384  21.941  0.00  0.00    +0.000 NA
ENDBRANCH   4  31
TORSDOF 8
ENDMDL
MODEL 7
REMARK VINA RESULT:      -7.4      0.564      1.032
REMARK  Name = 
REMARK  10 active torsions:
REMARK  status: ('A' for Active; 'I' for Inactive)
REMARK    1  A    between atoms: C_1  and  C_2
REMARK    2  A    between atoms: C_2  and  N_3
REMARK    3  A    between atoms: N_3  and  C_4
REMARK    4  A    between atoms: C_4  and  C_5
REMARK    5  A    between atoms: C_5  and  N_6
REMARK    6  A    between atoms: N_6  and  C_7
REMARK    7  A    between atoms: C_9  and  C_10
REMARK    8  A    between atoms: C_13  and  S_14
REMARK    9  A    between atoms: S_14  and  C_15
REMARK   10  A    between atoms: C_19  and  C_20
REMARK                            x       y       z     vdW  Elec       q    Type
REMARK                         _______ _______ _______ _____ _____    ______ ____
ROOT
ATOM      1  C   UNL     1       1.736   9.660  18.601  0.00  0.00    +0.000 A 
ATOM      2  C   UNL     1       2.536   8.780  17.964  0.00  0.00    +0.000 A 
ATOM      3  C   UNL     1       2.850   7.484  18.537  0.00  0.00    +0.000 A 
ATOM      4  C   UNL     1       2.308   7.142  19.735  0.00  0.00    +0.000 A 
ATOM      5  C   UNL     1       1.482   8.044  20.453  0.00  0.00    +0.000 A 
ATOM      6  N   UNL     1       0.891   7.894  21.616  0.00  0.00    +0.000 NA
ATOM      7  C   UNL     1       0.214   9.057  21.832  0.00  0.00    +0.000 A 
ATOM      8  C   UNL     1      -0.583   9.396  22.935  0.00  0.00    +0.000 A 
ATOM      9  C   UNL     1      -1.201  10.646  22.966  0.00  0.00    +0.000 A 
ATOM     10  C   UNL     1      -1.031  11.539  21.912  0.00  0.00    +0.000 A 
ATOM     11  C   UNL     1      -0.243  11.216  20.800  0.00  0.00    +0.000 A 
ATOM     12  C   UNL     1       0.385   9.958  20.777  0.00  0.00    +0.000 A 
ATOM     13  N   UNL     1       1.220   9.295  19.880  0.00  0.00    +0.000 N 
ENDROOT
BRANCH   3  14
ATOM     14  C   UNL     1       3.739   6.541  17.809  0.00  0.00    +0.000 A 
ATOM     15  C   UNL     1       5.041   6.918  17.457  0.00  0.00    +0.000 A 
ATOM     16  C   UNL     1       5.836   6.080  16.661  0.00  0.00    +0.000 A 
ATOM     17  C   UNL     1       5.348   4.844  16.221  0.00  0.00    +0.000 A 
ATOM     18  C   UNL     1       4.069   4.443  16.627  0.00  0.00    +0.000 A 
ATOM     19  C   UNL     1       3.270   5.280  17.415  0.00  0.00    +0.000 A 
BRANCH  17  20
ATOM     20  S   UNL     1       6.259   3.860  14.999  0.00  0.00    +0.000 S 
ATOM     21  C   UNL     1       5.189   4.062  13.560  0.00  0.00    +0.000 C 
ATOM     22  O   UNL     1       7.601   4.618  14.700  0.00  0.00    +0.000 OA
ENDBRANCH  17  20
ENDBRANCH   3  14
BRANCH   1  23
ATOM     23  N   UNL     1       1.437  10.866  17.999  0.00  0.00    +0.000 N 
ATOM     24  H   UNL     1       0.725  10.839  17.283  0.00  0.00    +0.000 HD
BRANCH  23  25
ATOM     25  C   UNL     1       2.416  11.952  17.876  0.00  0.00    +0.000 C 
BRANCH  25  26
ATOM     26  C   UNL     1       2.282  12.955  19.035  0.00  0.00    +0.000 C 
BRANCH  26  27
ATOM     27  N   UNL     1       1.674  14.209  18.581  0.00  0.00    +0.000 NA
ATOM     28  H   UNL     1       2.373  14.818  18.165  0.00  0.00    +0.000 HD
BRANCH  27  30
ATOM     29  C   UNL     1      -0.500  14.746  19.498  0.00  0.00    +0.000 C 
ATOM     30  C   UNL     1       1.001  14.906  19.670  0.00  0.00    +0.000 C 
ENDBRANCH  27  30
ENDBRANCH  26  27
ENDBRANCH  25  26
ENDBRANCH  23  25
ENDBRANCH   1  23
BRANCH   4  31
ATOM     31  C   UNL     1       2.608   5.763  20.299  0.00  0.00    +0.000 C 
ATOM     32  N   UNL     1       2.858   4.619  20.768  0.00  0.00    +0.000 NA
ENDBRANCH   4  31
TORSDOF 8
ENDMDL
MODEL 8
REMARK VINA RESULT:      -7.3      0.940      1.532
REMARK  Name = 
REMARK  10 active torsions:
REMARK  status: ('A' for Active; 'I' for Inactive)
REMARK    1  A    between atoms: C_1  and  C_2
REMARK    2  A    between atoms: C_2  and  N_3
REMARK    3  A    between atoms: N_3  and  C_4
REMARK    4  A    between atoms: C_4  and  C_5
REMARK    5  A    between atoms: C_5  and  N_6
REMARK    6  A    between atoms: N_6  and  C_7
REMARK    7  A    between atoms: C_9  and  C_10
REMARK    8  A    between atoms: C_13  and  S_14
REMARK    9  A    between atoms: S_14  and  C_15
REMARK   10  A    between atoms: C_19  and  C_20
REMARK                            x       y       z     vdW  Elec       q    Type
REMARK                         _______ _______ _______ _____ _____    ______ ____
ROOT
ATOM      1  C   UNL     1       1.652   9.873  18.709  0.00  0.00    +0.000 A 
ATOM      2  C   UNL     1       2.426   8.931  18.133  0.00  0.00    +0.000 A 
ATOM      3  C   UNL     1       2.653   7.644  18.763  0.00  0.00    +0.000 A 
ATOM      4  C   UNL     1       2.054   7.375  19.953  0.00  0.00    +0.000 A 
ATOM      5  C   UNL     1       1.253   8.344  20.608  0.00  0.00    +0.000 A 
ATOM      6  N   UNL     1       0.617   8.269  21.755  0.00  0.00    +0.000 NA
ATOM      7  C   UNL     1      -0.006   9.471  21.904  0.00  0.00    +0.000 A 
ATOM      8  C   UNL     1      -0.822   9.892  22.965  0.00  0.00    +0.000 A 
ATOM      9  C   UNL     1      -1.375  11.172  22.929  0.00  0.00    +0.000 A 
ATOM     10  C   UNL     1      -1.124  12.015  21.850  0.00  0.00    +0.000 A 
ATOM     11  C   UNL     1      -0.318  11.609  20.778  0.00  0.00    +0.000 A 
ATOM     12  C   UNL     1       0.246  10.322  20.823  0.00  0.00    +0.000 A 
ATOM     13  N   UNL     1       1.075   9.584  19.981  0.00  0.00    +0.000 N 
ENDROOT
BRANCH   3  14
ATOM     14  C   UNL     1       3.516   6.629  18.102  0.00  0.00    +0.000 A 
ATOM     15  C   UNL     1       4.879   6.878  17.900  0.00  0.00    +0.000 A 
ATOM     16  C   UNL     1       5.668   5.981  17.164  0.00  0.00    +0.000 A 
ATOM     17  C   UNL     1       5.108   4.811  16.637  0.00  0.00    +0.000 A 
ATOM     18  C   UNL     1       3.760   4.534  16.894  0.00  0.00    +0.000 A 
ATOM     19  C   UNL     1       2.969   5.432  17.622  0.00  0.00    +0.000 A 
BRANCH  17  20
ATOM     20  S   UNL     1       6.042   3.764  15.486  0.00  0.00    +0.000 S 
ATOM     21  C   UNL     1       5.320   4.288  13.917  0.00  0.00    +0.000 C 
ATOM     22  O   UNL     1       7.531   4.262  15.510  0.00  0.00    +0.000 OA
ENDBRANCH  17  20
ENDBRANCH   3  14
BRANCH   1  23
ATOM     23  N   UNL     1       1.435  11.069  18.053  0.00  0.00    +0.000 N 
ATOM     24  H   UNL     1       0.645  11.093  17.425  0.00  0.00    +0.000 HD
BRANCH  23  25
ATOM     25  C   UNL     1       2.520  12.006  17.740  0.00  0.00    +0.000 C 
BRANCH  25  26
ATOM     26  C   UNL     1       2.327  13.345  18.472  0.00  0.00    +0.000 C 
BRANCH  26  27
ATOM     27  N   UNL     1       2.932  14.450  17.723  0.00  0.00    +0.000 NA
ATOM     28  H   UNL     1       3.281  14.128  16.825  0.00  0.00    +0.000 HD
BRANCH  27  30
ATOM     29  C   UNL     1       5.338  14.687  17.843  0.00  0.00    +0.000 C 
ATOM     30  C   UNL     1       4.012  15.080  18.473  0.00  0.00    +0.000 C 
ENDBRANCH  27  30
ENDBRANCH  26  27
ENDBRANCH  25  26
ENDBRANCH  23  25
ENDBRANCH   1  23
BRANCH   4  31
ATOM     31  C   UNL     1       2.264   6.006  20.577  0.00  0.00    +0.000 C 
ATOM     32  N   UNL     1       2.440   4.869  21.096  0.00  0.00    +0.000 NA
ENDBRANCH   4  31
TORSDOF 8
ENDMDL
MODEL 9
REMARK VINA RESULT:      -7.2      4.151      8.072
REMARK  Name = 
REMARK  10 active torsions:
REMARK  status: ('A' for Active; 'I' for Inactive)
REMARK    1  A    between atoms: C_1  and  C_2
REMARK    2  A    between atoms: C_2  and  N_3
REMARK    3  A    between atoms: N_3  and  C_4
REMARK    4  A    between atoms: C_4  and  C_5
REMARK    5  A    between atoms: C_5  and  N_6
REMARK    6  A    between atoms: N_6  and  C_7
REMARK    7  A    between atoms: C_9  and  C_10
REMARK    8  A    between atoms: C_13  and  S_14
REMARK    9  A    between atoms: S_14  and  C_15
REMARK   10  A    between atoms: C_19  and  C_20
REMARK                            x       y       z     vdW  Elec       q    Type
REMARK                         _______ _______ _______ _____ _____    ______ ____
ROOT
ATOM      1  C   UNL     1       2.834   7.371  18.120  0.00  0.00    +0.000 A 
ATOM      2  C   UNL     1       2.339   8.624  18.175  0.00  0.00    +0.000 A 
ATOM      3  C   UNL     1       1.513   9.067  19.283  0.00  0.00    +0.000 A 
ATOM      4  C   UNL     1       1.249   8.204  20.298  0.00  0.00    +0.000 A 
ATOM      5  C   UNL     1       1.727   6.869  20.271  0.00  0.00    +0.000 A 
ATOM      6  N   UNL     1       1.561   5.902  21.143  0.00  0.00    +0.000 NA
ATOM      7  C   UNL     1       2.238   4.834  20.635  0.00  0.00    +0.000 A 
ATOM      8  C   UNL     1       2.373   3.555  21.195  0.00  0.00    +0.000 A 
ATOM      9  C   UNL     1       3.118   2.592  20.514  0.00  0.00    +0.000 A 
ATOM     10  C   UNL     1       3.721   2.901  19.299  0.00  0.00    +0.000 A 
ATOM     11  C   UNL     1       3.602   4.175  18.727  0.00  0.00    +0.000 A 
ATOM     12  C   UNL     1       2.844   5.140  19.412  0.00  0.00    +0.000 A 
ATOM     13  N   UNL     1       2.502   6.470  19.174  0.00  0.00    +0.000 N 
ENDROOT
BRANCH   3  14
ATOM     14  C   UNL     1       0.979  10.455  19.309  0.00  0.00    +0.000 A 
ATOM     15  C   UNL     1      -0.191  10.781  18.612  0.00  0.00    +0.000 A 
ATOM     16  C   UNL     1      -0.625  12.112  18.530  0.00  0.00    +0.000 A 
ATOM     17  C   UNL     1       0.093  13.135  19.161  0.00  0.00    +0.000 A 
ATOM     18  C   UNL     1       1.227  12.797  19.910  0.00  0.00    +0.000 A 
ATOM     19  C   UNL     1       1.667  11.470  19.987  0.00  0.00    +0.000 A 
BRANCH  17  20
ATOM     20  S   UNL     1      -0.311  14.879  18.869  0.00  0.00    +0.000 S 
ATOM     21  C   UNL     1      -1.115  15.290  20.431  0.00  0.00    +0.000 C 
ATOM     22  O   UNL     1       1.047  15.667  18.815  0.00  0.00    +0.000 OA
ENDBRANCH  17  20
ENDBRANCH   3  14
BRANCH   1  23
ATOM     23  N   UNL     1       3.646   7.007  17.063  0.00  0.00    +0.000 N 
ATOM     24  H   UNL     1       3.252   6.344  16.411  0.00  0.00    +0.000 HD
BRANCH  23  25
ATOM     25  C   UNL     1       5.110   7.011  17.154  0.00  0.00    +0.000 C 
BRANCH  25  26
ATOM     26  C   UNL     1       5.743   6.306  15.942  0.00  0.00    +0.000 C 
BRANCH  26  27
ATOM     27  N   UNL     1       7.135   5.934  16.214  0.00  0.00    +0.000 NA
ATOM     28  H   UNL     1       7.685   5.948  15.361  0.00  0.00    +0.000 HD
BRANCH  27  30
ATOM     29  C   UNL     1       7.789   4.783  18.241  0.00  0.00    +0.000 C 
ATOM     30  C   UNL     1       7.228   4.620  16.838  0.00  0.00    +0.000 C 
ENDBRANCH  27  30
ENDBRANCH  26  27
ENDBRANCH  25  26
ENDBRANCH  23  25
ENDBRANCH   1  23
BRANCH   4  31
ATOM     31  C   UNL     1       0.422   8.697  21.473  0.00  0.00    +0.000 C 
ATOM     32  N   UNL     1      -0.266   9.106  22.449  0.00  0.00    +0.000 NA
ENDBRANCH   4  31
TORSDOF 8
ENDMDL
