MODEL 1
REMARK VINA RESULT:      -7.9      0.000      0.000
REMARK  Name = 
REMARK  6 active torsions:
REMARK  status: ('A' for Active; 'I' for Inactive)
REMARK    1  A    between atoms: C_2  and  C_3
REMARK    2  A    between atoms: C_4  and  C_5
REMARK    3  A    between atoms: C_9  and  O_10
REMARK    4  A    between atoms: O_10  and  C_11
REMARK    5  A    between atoms: C_11  and  C_12
REMARK    6  A    between atoms: N_19  and  O_20
REMARK                            x       y       z     vdW  Elec       q    Type
REMARK                         _______ _______ _______ _____ _____    ______ ____
ROOT
ATOM      1  C   UNL     1       5.783   5.047  15.872  0.00  0.00    +0.000 A 
ATOM      2  C   UNL     1       5.128   6.285  15.850  0.00  0.00    +0.000 A 
ATOM      3  C   UNL     1       4.552   6.807  17.009  0.00  0.00    +0.000 A 
ATOM      4  C   UNL     1       4.614   6.092  18.204  0.00  0.00    +0.000 A 
ATOM      5  C   UNL     1       5.238   4.844  18.240  0.00  0.00    +0.000 A 
ATOM      6  C   UNL     1       5.852   4.346  17.085  0.00  0.00    +0.000 A 
ENDROOT
BRANCH   1   8
ATOM      7  C   UNL     1       5.730   3.924  13.659  0.00  0.00    +0.000 C 
ATOM      8  C   UNL     1       6.403   4.557  14.631  0.00  0.00    +0.000 C 
BRANCH   7  10
ATOM      9  O   UNL     1       7.240   4.149  11.815  0.00  0.00    +0.000 OA
ATOM     10  C   UNL     1       6.431   3.467  12.434  0.00  0.00    +0.000 C 
ATOM     11  N   UNL     1       6.104   2.185  12.078  0.00  0.00    +0.000 N 
ATOM     12  H   UNL     1       5.521   1.557  12.615  0.00  0.00    +0.000 HD
BRANCH  11  13
ATOM     13  O   UNL     1       6.813   1.625  10.992  0.00  0.00    +0.000 OA
ATOM     14  H   UNL     1       6.424   2.095  10.223  0.00  0.00    +0.000 HD
ENDBRANCH  11  13
ENDBRANCH   7  10
ENDBRANCH   1   8
BRANCH   5  15
ATOM     15  O   UNL     1       5.306   4.034  19.342  0.00  0.00    +0.000 OA
BRANCH  15  16
ATOM     16  C   UNL     1       4.675   2.761  19.201  0.00  0.00    +0.000 C 
BRANCH  16  17
ATOM     17  C   UNL     1       3.194   2.911  19.438  0.00  0.00    +0.000 A 
ATOM     18  C   UNL     1       2.264   2.412  18.517  0.00  0.00    +0.000 A 
ATOM     19  C   UNL     1       0.895   2.549  18.754  0.00  0.00    +0.000 A 
ATOM     20  C   UNL     1       0.446   3.190  19.908  0.00  0.00    +0.000 A 
ATOM     21  C   UNL     1       1.363   3.697  20.826  0.00  0.00    +0.000 A 
ATOM     22  C   UNL     1       2.732   3.563  20.591  0.00  0.00    +0.000 A 
ENDBRANCH  16  17
ENDBRANCH  15  16
ENDBRANCH   5  15
TORSDOF 6
ENDMDL
MODEL 2
REMARK VINA RESULT:      -7.8      0.338      1.067
REMARK  Name = 
REMARK  6 active torsions:
REMARK  status: ('A' for Active; 'I' for Inactive)
REMARK    1  A    between atoms: C_2  and  C_3
REMARK    2  A    between atoms: C_4  and  C_5
REMARK    3  A    between atoms: C_9  and  O_10
REMARK    4  A    between atoms: O_10  and  C_11
REMARK    5  A    between atoms: C_11  and  C_12
REMARK    6  A    between atoms: N_19  and  O_20
REMARK                            x       y       z     vdW  Elec       q    Type
REMARK                         _______ _______ _______ _____ _____    ______ ____
ROOT
ATOM      1  C   UNL     1       5.789   4.752  15.897  0.00  0.00    +0.000 A 
ATOM      2  C   UNL     1       5.188   6.014  15.804  0.00  0.00    +0.000 A 
ATOM      3  C   UNL     1       4.650   6.631  16.934  0.00  0.00    +0.000 A 
ATOM      4  C   UNL     1       4.696   5.990  18.171  0.00  0.00    +0.000 A 
ATOM      5  C   UNL     1       5.266   4.721  18.278  0.00  0.00    +0.000 A 
ATOM      6  C   UNL     1       5.844   4.126  17.151  0.00  0.00    +0.000 A 
ENDROOT
BRANCH   1   8
ATOM      7  C   UNL     1       5.733   4.086  13.506  0.00  0.00    +0.000 C 
ATOM      8  C   UNL     1       6.371   4.158  14.684  0.00  0.00    +0.000 C 
BRANCH   7  10
ATOM      9  O   UNL     1       7.212   4.061  11.623  0.00  0.00    +0.000 OA
ATOM     10  C   UNL     1       6.397   3.477  12.327  0.00  0.00    +0.000 C 
ATOM     11  N   UNL     1       6.027   2.174  12.121  0.00  0.00    +0.000 N 
ATOM     12  H   UNL     1       5.437   1.626  12.734  0.00  0.00    +0.000 HD
BRANCH  11  13
ATOM     13  O   UNL     1       6.697   1.476  11.092  0.00  0.00    +0.000 OA
ATOM     14  H   UNL     1       6.065   1.545  10.344  0.00  0.00    +0.000 HD
ENDBRANCH  11  13
ENDBRANCH   7  10
ENDBRANCH   1   8
BRANCH   5  15
ATOM     15  O   UNL     1       5.313   3.979  19.429  0.00  0.00    +0.000 OA
BRANCH  15  16
ATOM     16  C   UNL     1       4.693   2.695  19.350  0.00  0.00    +0.000 C 
BRANCH  16  17
ATOM     17  C   UNL     1       3.214   2.842  19.608  0.00  0.00    +0.000 A 
ATOM     18  C   UNL     1       2.715   2.906  20.914  0.00  0.00    +0.000 A 
ATOM     19  C   UNL     1       1.345   3.053  21.138  0.00  0.00    +0.000 A 
ATOM     20  C   UNL     1       0.465   3.130  20.060  0.00  0.00    +0.000 A 
ATOM     21  C   UNL     1       0.951   3.058  18.756  0.00  0.00    +0.000 A 
ATOM     22  C   UNL     1       2.320   2.911  18.530  0.00  0.00    +0.000 A 
ENDBRANCH  16  17
ENDBRANCH  15  16
ENDBRANCH   5  15
TORSDOF 6
ENDMDL
MODEL 3
REMARK VINA RESULT:      -7.8      1.399      2.138
REMARK  Name = 
REMARK  6 active torsions:
REMARK  status: ('A' for Active; 'I' for Inactive)
REMARK    1  A    between atoms: C_2  and  C_3
REMARK    2  A    between atoms: C_4  and  C_5
REMARK    3  A    between atoms: C_9  and  O_10
REMARK    4  A    between atoms: O_10  and  C_11
REMARK    5  A    between atoms: C_11  and  C_12
REMARK    6  A    between atoms: N_19  and  O_20
REMARK                            x       y       z     vdW  Elec       q    Type
REMARK                         _______ _______ _______ _____ _____    ______ ____
ROOT
ATOM      1  C   UNL     1       6.373   4.969  16.025  0.00  0.00    +0.000 A 
ATOM      2  C   UNL     1       7.247   4.789  17.104  0.00  0.00    +0.000 A 
ATOM      3  C   UNL     1       6.873   5.170  18.394  0.00  0.00    +0.000 A 
ATOM      4  C   UNL     1       5.624   5.745  18.619  0.00  0.00    +0.000 A 
ATOM      5  C   UNL     1       4.751   5.958  17.553  0.00  0.00    +0.000 A 
ATOM      6  C   UNL     1       5.112   5.534  16.269  0.00  0.00    +0.000 A 
ENDROOT
BRANCH   1   8
ATOM      7  C   UNL     1       5.993   3.906  13.813  0.00  0.00    +0.000 C 
ATOM      8  C   UNL     1       6.801   4.521  14.690  0.00  0.00    +0.000 C 
BRANCH   7  10
ATOM      9  O   UNL     1       7.236   4.185  11.786  0.00  0.00    +0.000 OA
ATOM     10  C   UNL     1       6.504   3.493  12.483  0.00  0.00    +0.000 C 
ATOM     11  N   UNL     1       6.096   2.235  12.122  0.00  0.00    +0.000 N 
ATOM     12  H   UNL     1       5.578   1.595  12.709  0.00  0.00    +0.000 HD
BRANCH  11  13
ATOM     13  O   UNL     1       6.630   1.712  10.924  0.00  0.00    +0.000 OA
ATOM     14  H   UNL     1       7.253   2.418  10.645  0.00  0.00    +0.000 HD
ENDBRANCH  11  13
ENDBRANCH   7  10
ENDBRANCH   1   8
BRANCH   5  15
ATOM     15  O   UNL     1       3.526   6.565  17.652  0.00  0.00    +0.000 OA
BRANCH  15  16
ATOM     16  C   UNL     1       2.963   6.588  18.964  0.00  0.00    +0.000 C 
BRANCH  16  17
ATOM     17  C   UNL     1       2.232   5.293  19.212  0.00  0.00    +0.000 A 
ATOM     18  C   UNL     1       1.901   4.892  20.513  0.00  0.00    +0.000 A 
ATOM     19  C   UNL     1       1.213   3.697  20.728  0.00  0.00    +0.000 A 
ATOM     20  C   UNL     1       0.858   2.891  19.648  0.00  0.00    +0.000 A 
ATOM     21  C   UNL     1       1.191   3.276  18.350  0.00  0.00    +0.000 A 
ATOM     22  C   UNL     1       1.878   4.470  18.133  0.00  0.00    +0.000 A 
ENDBRANCH  16  17
ENDBRANCH  15  16
ENDBRANCH   5  15
TORSDOF 6
ENDMDL
MODEL 4
REMARK VINA RESULT:      -7.7      1.389      1.796
REMARK  Name = 
REMARK  6 active torsions:
REMARK  status: ('A' for Active; 'I' for Inactive)
REMARK    1  A    between atoms: C_2  and  C_3
REMARK    2  A    between atoms: C_4  and  C_5
REMARK    3  A    between atoms: C_9  and  O_10
REMARK    4  A    between atoms: O_10  and  C_11
REMARK    5  A    between atoms: C_11  and  C_12
REMARK    6  A    between atoms: N_19  and  O_20
REMARK                            x       y       z     vdW  Elec       q    Type
REMARK                         _______ _______ _______ _____ _____    ______ ____
ROOT
ATOM      1  C   UNL     1       6.164   4.553  16.295  0.00  0.00    +0.000 A 
ATOM      2  C   UNL     1       7.134   4.606  17.303  0.00  0.00    +0.000 A 
ATOM      3  C   UNL     1       6.840   5.167  18.546  0.00  0.00    +0.000 A 
ATOM      4  C   UNL     1       5.573   5.692  18.794  0.00  0.00    +0.000 A 
ATOM      5  C   UNL     1       4.601   5.673  17.794  0.00  0.00    +0.000 A 
ATOM      6  C   UNL     1       4.887   5.070  16.564  0.00  0.00    +0.000 A 
ENDROOT
BRANCH   1   8
ATOM      7  C   UNL     1       6.069   4.351  13.822  0.00  0.00    +0.000 C 
ATOM      8  C   UNL     1       6.513   3.922  15.013  0.00  0.00    +0.000 C 
BRANCH   7  10
ATOM      9  O   UNL     1       7.255   4.133  11.754  0.00  0.00    +0.000 OA
ATOM     10  C   UNL     1       6.477   3.660  12.574  0.00  0.00    +0.000 C 
ATOM     11  N   UNL     1       5.915   2.417  12.444  0.00  0.00    +0.000 N 
ATOM     12  H   UNL     1       5.350   1.952  13.142  0.00  0.00    +0.000 HD
BRANCH  11  13
ATOM     13  O   UNL     1       6.339   1.638  11.344  0.00  0.00    +0.000 OA
ATOM     14  H   UNL     1       6.262   0.724  11.692  0.00  0.00    +0.000 HD
ENDBRANCH  11  13
ENDBRANCH   7  10
ENDBRANCH   1   8
BRANCH   5  15
ATOM     15  O   UNL     1       3.346   6.211  17.911  0.00  0.00    +0.000 OA
BRANCH  15  16
ATOM     16  C   UNL     1       2.849   6.309  19.246  0.00  0.00    +0.000 C 
BRANCH  16  17
ATOM     17  C   UNL     1       2.234   4.991  19.645  0.00  0.00    +0.000 A 
ATOM     18  C   UNL     1       1.597   4.180  18.698  0.00  0.00    +0.000 A 
ATOM     19  C   UNL     1       1.042   2.956  19.078  0.00  0.00    +0.000 A 
ATOM     20  C   UNL     1       1.114   2.539  20.406  0.00  0.00    +0.000 A 
ATOM     21  C   UNL     1       1.739   3.343  21.358  0.00  0.00    +0.000 A 
ATOM     22  C   UNL     1       2.293   4.566  20.980  0.00  0.00    +0.000 A 
ENDBRANCH  16  17
ENDBRANCH  15  16
ENDBRANCH   5  15
TORSDOF 6
ENDMDL
MODEL 5
REMARK VINA RESULT:      -7.6      1.499      1.947
REMARK  Name = 
REMARK  6 active torsions:
REMARK  status: ('A' for Active; 'I' for Inactive)
REMARK    1  A    between atoms: C_2  and  C_3
REMARK    2  A    between atoms: C_4  and  C_5
REMARK    3  A    between atoms: C_9  and  O_10
REMARK    4  A    between atoms: O_10  and  C_11
REMARK    5  A    between atoms: C_11  and  C_12
REMARK    6  A    between atoms: N_19  and  O_20
REMARK                            x       y       z     vdW  Elec       q    Type
REMARK                         _______ _______ _______ _____ _____    ______ ____
ROOT
ATOM      1  C   UNL     1       5.940   5.021  16.037  0.00  0.00    +0.000 A 
ATOM      2  C   UNL     1       7.168   4.721  16.638  0.00  0.00    +0.000 A 
ATOM      3  C   UNL     1       7.361   4.923  18.005  0.00  0.00    +0.000 A 
ATOM      4  C   UNL     1       6.330   5.440  18.788  0.00  0.00    +0.000 A 
ATOM      5  C   UNL     1       5.108   5.771  18.203  0.00  0.00    +0.000 A 
ATOM      6  C   UNL     1       4.905   5.525  16.841  0.00  0.00    +0.000 A 
ENDROOT
BRANCH   1   8
ATOM      7  C   UNL     1       6.150   3.618  14.000  0.00  0.00    +0.000 C 
ATOM      8  C   UNL     1       5.776   4.759  14.599  0.00  0.00    +0.000 C 
BRANCH   7  10
ATOM      9  O   UNL     1       6.850   3.278  11.736  0.00  0.00    +0.000 OA
ATOM     10  C   UNL     1       5.941   3.431  12.543  0.00  0.00    +0.000 C 
ATOM     11  N   UNL     1       4.617   3.415  12.192  0.00  0.00    +0.000 N 
ATOM     12  H   UNL     1       3.837   3.437  12.836  0.00  0.00    +0.000 HD
BRANCH  11  13
ATOM     13  O   UNL     1       4.319   3.124  10.841  0.00  0.00    +0.000 OA
ATOM     14  H   UNL     1       3.376   3.388  10.772  0.00  0.00    +0.000 HD
ENDBRANCH  11  13
ENDBRANCH   7  10
ENDBRANCH   1   8
BRANCH   5  15
ATOM     15  O   UNL     1       4.050   6.336  18.866  0.00  0.00    +0.000 OA
BRANCH  15  16
ATOM     16  C   UNL     1       2.779   6.165  18.239  0.00  0.00    +0.000 C 
BRANCH  16  17
ATOM     17  C   UNL     1       2.094   4.957  18.828  0.00  0.00    +0.000 A 
ATOM     18  C   UNL     1       1.672   3.901  18.011  0.00  0.00    +0.000 A 
ATOM     19  C   UNL     1       1.050   2.784  18.571  0.00  0.00    +0.000 A 
ATOM     20  C   UNL     1       0.837   2.718  19.947  0.00  0.00    +0.000 A 
ATOM     21  C   UNL     1       1.245   3.768  20.767  0.00  0.00    +0.000 A 
ATOM     22  C   UNL     1       1.867   4.886  20.210  0.00  0.00    +0.000 A 
ENDBRANCH  16  17
ENDBRANCH  15  16
ENDBRANCH   5  15
TORSDOF 6
ENDMDL
MODEL 6
REMARK VINA RESULT:      -7.5      4.731      6.015
REMARK  Name = 
REMARK  6 active torsions:
REMARK  status: ('A' for Active; 'I' for Inactive)
REMARK    1  A    between atoms: C_2  and  C_3
REMARK    2  A    between atoms: C_4  and  C_5
REMARK    3  A    between atoms: C_9  and  O_10
REMARK    4  A    between atoms: O_10  and  C_11
REMARK    5  A    between atoms: C_11  and  C_12
REMARK    6  A    between atoms: N_19  and  O_20
REMARK                            x       y       z     vdW  Elec       q    Type
REMARK                         _______ _______ _______ _____ _____    ______ ____
ROOT
ATOM      1  C   UNL     1       7.326   7.650  17.831  0.00  0.00    +0.000 A 
ATOM      2  C   UNL     1       8.101   6.702  18.510  0.00  0.00    +0.000 A 
ATOM      3  C   UNL     1       7.631   5.402  18.701  0.00  0.00    +0.000 A 
ATOM      4  C   UNL     1       6.374   5.036  18.224  0.00  0.00    +0.000 A 
ATOM      5  C   UNL     1       5.576   5.974  17.568  0.00  0.00    +0.000 A 
ATOM      6  C   UNL     1       6.070   7.263  17.341  0.00  0.00    +0.000 A 
ENDROOT
BRANCH   1   8
ATOM      7  C   UNL     1       8.683   9.617  18.505  0.00  0.00    +0.000 C 
ATOM      8  C   UNL     1       7.881   8.997  17.627  0.00  0.00    +0.000 C 
BRANCH   7  10
ATOM      9  O   UNL     1      10.353  11.332  18.457  0.00  0.00    +0.000 OA
ATOM     10  C   UNL     1       9.205  10.975  18.217  0.00  0.00    +0.000 C 
ATOM     11  N   UNL     1       8.278  11.789  17.623  0.00  0.00    +0.000 N 
ATOM     12  H   UNL     1       7.356  11.505  17.318  0.00  0.00    +0.000 HD
BRANCH  11  13
ATOM     13  O   UNL     1       8.722  13.064  17.205  0.00  0.00    +0.000 OA
ATOM     14  H   UNL     1       7.898  13.471  16.861  0.00  0.00    +0.000 HD
ENDBRANCH  11  13
ENDBRANCH   7  10
ENDBRANCH   1   8
BRANCH   5  15
ATOM     15  O   UNL     1       4.306   5.738  17.111  0.00  0.00    +0.000 OA
BRANCH  15  16
ATOM     16  C   UNL     1       3.266   6.388  17.842  0.00  0.00    +0.000 C 
BRANCH  16  17
ATOM     17  C   UNL     1       2.443   5.350  18.564  0.00  0.00    +0.000 A 
ATOM     18  C   UNL     1       2.123   5.502  19.918  0.00  0.00    +0.000 A 
ATOM     19  C   UNL     1       1.352   4.539  20.572  0.00  0.00    +0.000 A 
ATOM     20  C   UNL     1       0.902   3.417  19.879  0.00  0.00    +0.000 A 
ATOM     21  C   UNL     1       1.222   3.252  18.533  0.00  0.00    +0.000 A 
ATOM     22  C   UNL     1       1.993   4.213  17.878  0.00  0.00    +0.000 A 
ENDBRANCH  16  17
ENDBRANCH  15  16
ENDBRANCH   5  15
TORSDOF 6
ENDMDL
MODEL 7
REMARK VINA RESULT:      -7.5      4.783      6.009
REMARK  Name = 
REMARK  6 active torsions:
REMARK  status: ('A' for Active; 'I' for Inactive)
REMARK    1  A    between atoms: C_2  and  C_3
REMARK    2  A    between atoms: C_4  and  C_5
REMARK    3  A    between atoms: C_9  and  O_10
REMARK    4  A    between atoms: O_10  and  C_11
REMARK    5  A    between atoms: C_11  and  C_12
REMARK    6  A    between atoms: N_19  and  O_20
REMARK                            x       y       z     vdW  Elec       q    Type
REMARK                         _______ _______ _______ _____ _____    ______ ____
ROOT
ATOM      1  C   UNL     1       7.510   7.639  17.863  0.00  0.00    +0.000 A 
ATOM      2  C   UNL     1       8.198   6.797  18.747  0.00  0.00    +0.000 A 
ATOM      3  C   UNL     1       7.800   5.471  18.922  0.00  0.00    +0.000 A 
ATOM      4  C   UNL     1       6.702   4.972  18.224  0.00  0.00    +0.000 A 
ATOM      5  C   UNL     1       5.987   5.803  17.361  0.00  0.00    +0.000 A 
ATOM      6  C   UNL     1       6.417   7.118  17.155  0.00  0.00    +0.000 A 
ENDROOT
BRANCH   1   8
ATOM      7  C   UNL     1       8.826   9.633  18.538  0.00  0.00    +0.000 C 
ATOM      8  C   UNL     1       7.990   9.019  17.689  0.00  0.00    +0.000 C 
BRANCH   7  10
ATOM      9  O   UNL     1      10.357  11.472  18.623  0.00  0.00    +0.000 OA
ATOM     10  C   UNL     1       9.268  11.026  18.283  0.00  0.00    +0.000 C 
ATOM     11  N   UNL     1       8.339  11.763  17.595  0.00  0.00    +0.000 N 
ATOM     12  H   UNL     1       7.474  11.406  17.210  0.00  0.00    +0.000 HD
BRANCH  11  13
ATOM     13  O   UNL     1       8.721  13.065  17.204  0.00  0.00    +0.000 OA
ATOM     14  H   UNL     1       8.682  13.559  18.052  0.00  0.00    +0.000 HD
ENDBRANCH  11  13
ENDBRANCH   7  10
ENDBRANCH   1   8
BRANCH   5  15
ATOM     15  O   UNL     1       4.862   5.434  16.671  0.00  0.00    +0.000 OA
BRANCH  15  16
ATOM     16  C   UNL     1       4.690   4.027  16.498  0.00  0.00    +0.000 C 
BRANCH  16  17
ATOM     17  C   UNL     1       3.523   3.564  17.333  0.00  0.00    +0.000 A 
ATOM     18  C   UNL     1       2.426   4.403  17.564  0.00  0.00    +0.000 A 
ATOM     19  C   UNL     1       1.347   3.958  18.330  0.00  0.00    +0.000 A 
ATOM     20  C   UNL     1       1.359   2.676  18.876  0.00  0.00    +0.000 A 
ATOM     21  C   UNL     1       2.450   1.835  18.659  0.00  0.00    +0.000 A 
ATOM     22  C   UNL     1       3.529   2.278  17.895  0.00  0.00    +0.000 A 
ENDBRANCH  16  17
ENDBRANCH  15  16
ENDBRANCH   5  15
TORSDOF 6
ENDMDL
MODEL 8
REMARK VINA RESULT:      -7.5      4.847      6.004
REMARK  Name = 
REMARK  6 active torsions:
REMARK  status: ('A' for Active; 'I' for Inactive)
REMARK    1  A    between atoms: C_2  and  C_3
REMARK    2  A    between atoms: C_4  and  C_5
REMARK    3  A    between atoms: C_9  and  O_10
REMARK    4  A    between atoms: O_10  and  C_11
REMARK    5  A    between atoms: C_11  and  C_12
REMARK    6  A    between atoms: N_19  and  O_20
REMARK                            x       y       z     vdW  Elec       q    Type
REMARK                         _______ _______ _______ _____ _____    ______ ____
ROOT
ATOM      1  C   UNL     1       7.547   7.755  17.891  0.00  0.00    +0.000 A 
ATOM      2  C   UNL     1       8.215   6.825  18.697  0.00  0.00    +0.000 A 
ATOM      3  C   UNL     1       7.654   5.574  18.956  0.00  0.00    +0.000 A 
ATOM      4  C   UNL     1       6.411   5.240  18.420  0.00  0.00    +0.000 A 
ATOM      5  C   UNL     1       5.718   6.163  17.636  0.00  0.00    +0.000 A 
ATOM      6  C   UNL     1       6.305   7.399  17.344  0.00  0.00    +0.000 A 
ENDROOT
BRANCH   1   8
ATOM      7  C   UNL     1       8.766   9.809  18.566  0.00  0.00    +0.000 C 
ATOM      8  C   UNL     1       8.196   9.047  17.621  0.00  0.00    +0.000 C 
BRANCH   7  10
ATOM      9  O   UNL     1       8.957  12.195  18.514  0.00  0.00    +0.000 OA
ATOM     10  C   UNL     1       9.407  11.098  18.206  0.00  0.00    +0.000 C 
ATOM     11  N   UNL     1      10.580  10.937  17.516  0.00  0.00    +0.000 N 
ATOM     12  H   UNL     1      11.035  10.053  17.330  0.00  0.00    +0.000 HD
BRANCH  11  13
ATOM     13  O   UNL     1      11.320  12.107  17.235  0.00  0.00    +0.000 OA
ATOM     14  H   UNL     1      11.596  12.401  18.130  0.00  0.00    +0.000 HD
ENDBRANCH  11  13
ENDBRANCH   7  10
ENDBRANCH   1   8
BRANCH   5  15
ATOM     15  O   UNL     1       4.470   5.961  17.108  0.00  0.00    +0.000 OA
BRANCH  15  16
ATOM     16  C   UNL     1       3.404   6.608  17.804  0.00  0.00    +0.000 C 
BRANCH  16  17
ATOM     17  C   UNL     1       2.571   5.570  18.512  0.00  0.00    +0.000 A 
ATOM     18  C   UNL     1       2.077   4.454  17.826  0.00  0.00    +0.000 A 
ATOM     19  C   UNL     1       1.316   3.494  18.497  0.00  0.00    +0.000 A 
ATOM     20  C   UNL     1       1.039   3.646  19.854  0.00  0.00    +0.000 A 
ATOM     21  C   UNL     1       1.520   4.757  20.545  0.00  0.00    +0.000 A 
ATOM     22  C   UNL     1       2.279   5.718  19.876  0.00  0.00    +0.000 A 
ENDBRANCH  16  17
ENDBRANCH  15  16
ENDBRANCH   5  15
TORSDOF 6
ENDMDL
MODEL 9
REMARK VINA RESULT:      -7.4      1.380      1.806
REMARK  Name = 
REMARK  6 active torsions:
REMARK  status: ('A' for Active; 'I' for Inactive)
REMARK    1  A    between atoms: C_2  and  C_3
REMARK    2  A    between atoms: C_4  and  C_5
REMARK    3  A    between atoms: C_9  and  O_10
REMARK    4  A    between atoms: O_10  and  C_11
REMARK    5  A    between atoms: C_11  and  C_12
REMARK    6  A    between atoms: N_19  and  O_20
REMARK                            x       y       z     vdW  Elec       q    Type
REMARK                         _______ _______ _______ _____ _____    ______ ____
ROOT
ATOM      1  C   UNL     1       6.120   4.546  15.935  0.00  0.00    +0.000 A 
ATOM      2  C   UNL     1       7.039   5.595  15.808  0.00  0.00    +0.000 A 
ATOM      3  C   UNL     1       7.356   6.402  16.901  0.00  0.00    +0.000 A 
ATOM      4  C   UNL     1       6.749   6.176  18.136  0.00  0.00    +0.000 A 
ATOM      5  C   UNL     1       5.811   5.153  18.276  0.00  0.00    +0.000 A 
ATOM      6  C   UNL     1       5.531   4.319  17.188  0.00  0.00    +0.000 A 
ENDROOT
BRANCH   1   8
ATOM      7  C   UNL     1       5.816   4.163  13.501  0.00  0.00    +0.000 C 
ATOM      8  C   UNL     1       5.845   3.703  14.761  0.00  0.00    +0.000 C 
BRANCH   7  10
ATOM      9  O   UNL     1       4.540   3.309  11.664  0.00  0.00    +0.000 OA
ATOM     10  C   UNL     1       5.539   3.242  12.371  0.00  0.00    +0.000 C 
ATOM     11  N   UNL     1       6.534   2.322  12.176  0.00  0.00    +0.000 N 
ATOM     12  H   UNL     1       7.416   2.296  12.671  0.00  0.00    +0.000 HD
BRANCH  11  13
ATOM     13  O   UNL     1       6.411   1.479  11.049  0.00  0.00    +0.000 OA
ATOM     14  H   UNL     1       7.007   1.911  10.398  0.00  0.00    +0.000 HD
ENDBRANCH  11  13
ENDBRANCH   7  10
ENDBRANCH   1   8
BRANCH   5  15
ATOM     15  O   UNL     1       5.115   4.881  19.425  0.00  0.00    +0.000 OA
BRANCH  15  16
ATOM     16  C   UNL     1       3.875   5.574  19.562  0.00  0.00    +0.000 C 
BRANCH  16  17
ATOM     17  C   UNL     1       2.749   4.571  19.617  0.00  0.00    +0.000 A 
ATOM     18  C   UNL     1       2.268   4.097  20.843  0.00  0.00    +0.000 A 
ATOM     19  C   UNL     1       1.218   3.178  20.880  0.00  0.00    +0.000 A 
ATOM     20  C   UNL     1       0.648   2.721  19.693  0.00  0.00    +0.000 A 
ATOM     21  C   UNL     1       1.126   3.180  18.467  0.00  0.00    +0.000 A 
ATOM     22  C   UNL     1       2.175   4.098  18.428  0.00  0.00    +0.000 A 
ENDBRANCH  16  17
ENDBRANCH  15  16
ENDBRANCH   5  15
TORSDOF 6
ENDMDL
