MODEL 1
REMARK VINA RESULT:      -7.7      0.000      0.000
REMARK  Name = 
REMARK  7 active torsions:
REMARK  status: ('A' for Active; 'I' for Inactive)
REMARK    1  A    between atoms: C_1  and  N_2
REMARK    2  A    between atoms: C_6  and  C_7
REMARK    3  A    between atoms: C_7  and  N_8
REMARK    4  A    between atoms: C_11  and  C_12
REMARK    5  A    between atoms: C_16  and  O_17
REMARK    6  A    between atoms: O_17  and  C_18
REMARK    7  A    between atoms: C_23  and  C_24
REMARK                            x       y       z     vdW  Elec       q    Type
REMARK                         _______ _______ _______ _____ _____    ______ ____
ROOT
ATOM      1  N   UNL     1       1.874   8.460  19.332  0.00  0.00    +0.000 N 
ATOM      2  C   UNL     1       1.440   7.928  20.531  0.00  0.00    +0.000 A 
ATOM      3  C   UNL     1       1.459   6.607  20.747  0.00  0.00    +0.000 A 
ATOM      4  C   UNL     1       1.975   5.698  19.737  0.00  0.00    +0.000 A 
ATOM      5  C   UNL     1       2.506   6.179  18.593  0.00  0.00    +0.000 A 
ATOM      6  C   UNL     1       2.371   7.665  18.302  0.00  0.00    +0.000 A 
ATOM      7  O   UNL     1       2.679   8.136  17.209  0.00  0.00    +0.000 OA
ENDROOT
BRANCH   4   8
ATOM      8  C   UNL     1       1.897   4.225  20.007  0.00  0.00    +0.000 C 
ATOM      9  F   UNL     1       3.113   3.670  20.255  0.00  0.00    +0.000 F 
ATOM     10  F   UNL     1       1.130   3.953  21.096  0.00  0.00    +0.000 F 
ATOM     11  F   UNL     1       1.367   3.538  18.964  0.00  0.00    +0.000 F 
ENDBRANCH   4   8
BRANCH   1  12
ATOM     12  C   UNL     1       1.714   9.896  19.085  0.00  0.00    +0.000 C 
BRANCH  12  18
ATOM     13  C   UNL     1      -0.051  11.557  21.107  0.00  0.00    +0.000 C 
ATOM     14  N   UNL     1      -0.444  11.024  19.828  0.00  0.00    +0.000 N 
ATOM     15  N   UNL     1      -1.685  11.263  19.363  0.00  0.00    +0.000 NA
ATOM     16  C   UNL     1      -1.662  10.631  18.192  0.00  0.00    +0.000 A 
ATOM     17  N   UNL     1      -0.489  10.005  17.892  0.00  0.00    +0.000 NA
ATOM     18  C   UNL     1       0.278  10.271  18.936  0.00  0.00    +0.000 A 
ENDBRANCH  12  18
ENDBRANCH   1  12
BRANCH   5  19
ATOM     19  O   UNL     1       3.058   5.298  17.657  0.00  0.00    +0.000 OA
BRANCH  19  20
ATOM     20  C   UNL     1       4.424   5.151  17.563  0.00  0.00    +0.000 A 
ATOM     21  C   UNL     1       4.939   4.951  16.281  0.00  0.00    +0.000 A 
ATOM     22  C   UNL     1       6.319   4.871  16.096  0.00  0.00    +0.000 A 
ATOM     23 CL   UNL     1       6.958   4.648  14.514  0.00  0.00    +0.000 Cl
ATOM     24  C   UNL     1       7.190   4.996  17.176  0.00  0.00    +0.000 A 
ATOM     25  C   UNL     1       6.671   5.152  18.464  0.00  0.00    +0.000 A 
ATOM     26  C   UNL     1       5.286   5.180  18.663  0.00  0.00    +0.000 A 
BRANCH  25  27
ATOM     27  C   UNL     1       7.553   5.353  19.575  0.00  0.00    +0.000 C 
ATOM     28  N   UNL     1       8.239   5.485  20.501  0.00  0.00    +0.000 NA
ENDBRANCH  25  27
ENDBRANCH  19  20
ENDBRANCH   5  19
TORSDOF 6
ENDMDL
MODEL 2
REMARK VINA RESULT:      -7.6      1.089      1.259
REMARK  Name = 
REMARK  7 active torsions:
REMARK  status: ('A' for Active; 'I' for Inactive)
REMARK    1  A    between atoms: C_1  and  N_2
REMARK    2  A    between atoms: C_6  and  C_7
REMARK    3  A    between atoms: C_7  and  N_8
REMARK    4  A    between atoms: C_11  and  C_12
REMARK    5  A    between atoms: C_16  and  O_17
REMARK    6  A    between atoms: O_17  and  C_18
REMARK    7  A    between atoms: C_23  and  C_24
REMARK                            x       y       z     vdW  Elec       q    Type
REMARK                         _______ _______ _______ _____ _____    ______ ____
ROOT
ATOM      1  N   UNL     1       1.856   8.679  19.161  0.00  0.00    +0.000 N 
ATOM      2  C   UNL     1       1.602   8.237  20.446  0.00  0.00    +0.000 A 
ATOM      3  C   UNL     1       1.735   6.945  20.770  0.00  0.00    +0.000 A 
ATOM      4  C   UNL     1       2.189   5.977  19.786  0.00  0.00    +0.000 A 
ATOM      5  C   UNL     1       2.550   6.379  18.549  0.00  0.00    +0.000 A 
ATOM      6  C   UNL     1       2.283   7.820  18.150  0.00  0.00    +0.000 A 
ATOM      7  O   UNL     1       2.428   8.204  16.991  0.00  0.00    +0.000 OA
ENDROOT
BRANCH   4   8
ATOM      8  C   UNL     1       2.243   4.533  20.188  0.00  0.00    +0.000 C 
ATOM      9  F   UNL     1       1.850   4.329  21.474  0.00  0.00    +0.000 F 
ATOM     10  F   UNL     1       1.426   3.766  19.419  0.00  0.00    +0.000 F 
ATOM     11  F   UNL     1       3.493   4.015  20.083  0.00  0.00    +0.000 F 
ENDBRANCH   4   8
BRANCH   1  12
ATOM     12  C   UNL     1       1.572  10.074  18.814  0.00  0.00    +0.000 C 
BRANCH  12  18
ATOM     13  C   UNL     1      -0.209  11.736  20.820  0.00  0.00    +0.000 C 
ATOM     14  N   UNL     1      -0.626  11.087  19.603  0.00  0.00    +0.000 N 
ATOM     15  N   UNL     1      -1.904  11.201  19.196  0.00  0.00    +0.000 NA
ATOM     16  C   UNL     1      -1.893  10.492  18.069  0.00  0.00    +0.000 A 
ATOM     17  N   UNL     1      -0.692   9.935  17.744  0.00  0.00    +0.000 NA
ATOM     18  C   UNL     1       0.106  10.330  18.723  0.00  0.00    +0.000 A 
ENDBRANCH  12  18
ENDBRANCH   1  12
BRANCH   5  19
ATOM     19  O   UNL     1       3.047   5.447  17.631  0.00  0.00    +0.000 OA
BRANCH  19  20
ATOM     20  C   UNL     1       4.353   5.524  17.201  0.00  0.00    +0.000 A 
ATOM     21  C   UNL     1       4.700   4.706  16.124  0.00  0.00    +0.000 A 
ATOM     22  C   UNL     1       5.983   4.785  15.582  0.00  0.00    +0.000 A 
ATOM     23 CL   UNL     1       6.408   3.795  14.241  0.00  0.00    +0.000 Cl
ATOM     24  C   UNL     1       6.919   5.678  16.100  0.00  0.00    +0.000 A 
ATOM     25  C   UNL     1       6.584   6.465  17.204  0.00  0.00    +0.000 A 
ATOM     26  C   UNL     1       5.316   6.352  17.786  0.00  0.00    +0.000 A 
BRANCH  25  27
ATOM     27  C   UNL     1       7.510   7.437  17.702  0.00  0.00    +0.000 C 
ATOM     28  N   UNL     1       8.221   8.252  18.123  0.00  0.00    +0.000 NA
ENDBRANCH  25  27
ENDBRANCH  19  20
ENDBRANCH   5  19
TORSDOF 6
ENDMDL
MODEL 3
REMARK VINA RESULT:      -7.6      1.060      1.128
REMARK  Name = 
REMARK  7 active torsions:
REMARK  status: ('A' for Active; 'I' for Inactive)
REMARK    1  A    between atoms: C_1  and  N_2
REMARK    2  A    between atoms: C_6  and  C_7
REMARK    3  A    between atoms: C_7  and  N_8
REMARK    4  A    between atoms: C_11  and  C_12
REMARK    5  A    between atoms: C_16  and  O_17
REMARK    6  A    between atoms: O_17  and  C_18
REMARK    7  A    between atoms: C_23  and  C_24
REMARK                            x       y       z     vdW  Elec       q    Type
REMARK                         _______ _______ _______ _____ _____    ______ ____
ROOT
ATOM      1  N   UNL     1       2.060   7.327  19.733  0.00  0.00    +0.000 N 
ATOM      2  C   UNL     1       1.479   6.600  20.754  0.00  0.00    +0.000 A 
ATOM      3  C   UNL     1       1.324   5.273  20.655  0.00  0.00    +0.000 A 
ATOM      4  C   UNL     1       1.802   4.557  19.484  0.00  0.00    +0.000 A 
ATOM      5  C   UNL     1       2.470   5.210  18.509  0.00  0.00    +0.000 A 
ATOM      6  C   UNL     1       2.535   6.727  18.569  0.00  0.00    +0.000 A 
ATOM      7  O   UNL     1       2.976   7.388  17.631  0.00  0.00    +0.000 OA
ENDROOT
BRANCH   4   8
ATOM      8  C   UNL     1       1.530   3.085  19.398  0.00  0.00    +0.000 C 
ATOM      9  F   UNL     1       2.665   2.345  19.275  0.00  0.00    +0.000 F 
ATOM     10  F   UNL     1       0.900   2.624  20.511  0.00  0.00    +0.000 F 
ATOM     11  F   UNL     1       0.748   2.767  18.336  0.00  0.00    +0.000 F 
ENDBRANCH   4   8
BRANCH   1  12
ATOM     12  C   UNL     1       2.091   8.790  19.823  0.00  0.00    +0.000 C 
BRANCH  12  18
ATOM     13  C   UNL     1      -0.291   9.802  21.629  0.00  0.00    +0.000 C 
ATOM     14  N   UNL     1      -0.193   9.852  20.192  0.00  0.00    +0.000 N 
ATOM     15  N   UNL     1      -1.183  10.423  19.480  0.00  0.00    +0.000 NA
ATOM     16  C   UNL     1      -0.735  10.282  18.234  0.00  0.00    +0.000 A 
ATOM     17  N   UNL     1       0.469   9.654  18.116  0.00  0.00    +0.000 NA
ATOM     18  C   UNL     1       0.805   9.395  19.369  0.00  0.00    +0.000 A 
ENDBRANCH  12  18
ENDBRANCH   1  12
BRANCH   5  19
ATOM     19  O   UNL     1       2.981   4.498  17.419  0.00  0.00    +0.000 OA
BRANCH  19  20
ATOM     20  C   UNL     1       4.338   4.462  17.187  0.00  0.00    +0.000 A 
ATOM     21  C   UNL     1       4.736   4.227  15.870  0.00  0.00    +0.000 A 
ATOM     22  C   UNL     1       6.091   4.254  15.543  0.00  0.00    +0.000 A 
ATOM     23 CL   UNL     1       6.584   3.985  13.916  0.00  0.00    +0.000 Cl
ATOM     24  C   UNL     1       7.053   4.520  16.516  0.00  0.00    +0.000 A 
ATOM     25  C   UNL     1       6.656   4.713  17.841  0.00  0.00    +0.000 A 
ATOM     26  C   UNL     1       5.301   4.635  18.185  0.00  0.00    +0.000 A 
BRANCH  25  27
ATOM     27  C   UNL     1       7.624   5.058  18.839  0.00  0.00    +0.000 C 
ATOM     28  N   UNL     1       8.417   5.380  19.622  0.00  0.00    +0.000 NA
ENDBRANCH  25  27
ENDBRANCH  19  20
ENDBRANCH   5  19
TORSDOF 6
ENDMDL
MODEL 4
REMARK VINA RESULT:      -7.5      3.006      6.663
REMARK  Name = 
REMARK  7 active torsions:
REMARK  status: ('A' for Active; 'I' for Inactive)
REMARK    1  A    between atoms: C_1  and  N_2
REMARK    2  A    between atoms: C_6  and  C_7
REMARK    3  A    between atoms: C_7  and  N_8
REMARK    4  A    between atoms: C_11  and  C_12
REMARK    5  A    between atoms: C_16  and  O_17
REMARK    6  A    between atoms: O_17  and  C_18
REMARK    7  A    between atoms: C_23  and  C_24
REMARK                            x       y       z     vdW  Elec       q    Type
REMARK                         _______ _______ _______ _____ _____    ______ ____
ROOT
ATOM      1  N   UNL     1       4.762   3.985  18.194  0.00  0.00    +0.000 N 
ATOM      2  C   UNL     1       3.939   3.020  17.647  0.00  0.00    +0.000 A 
ATOM      3  C   UNL     1       2.728   2.772  18.162  0.00  0.00    +0.000 A 
ATOM      4  C   UNL     1       2.231   3.543  19.290  0.00  0.00    +0.000 A 
ATOM      5  C   UNL     1       2.955   4.566  19.790  0.00  0.00    +0.000 A 
ATOM      6  C   UNL     1       4.374   4.763  19.283  0.00  0.00    +0.000 A 
ATOM      7  O   UNL     1       5.142   5.564  19.815  0.00  0.00    +0.000 OA
ENDROOT
BRANCH   4   8
ATOM      8  C   UNL     1       0.901   3.166  19.870  0.00  0.00    +0.000 C 
ATOM      9  F   UNL     1       0.187   2.338  19.061  0.00  0.00    +0.000 F 
ATOM     10  F   UNL     1       1.036   2.510  21.053  0.00  0.00    +0.000 F 
ATOM     11  F   UNL     1       0.115   4.247  20.102  0.00  0.00    +0.000 F 
ENDBRANCH   4   8
BRANCH   1  12
ATOM     12  C   UNL     1       6.129   4.135  17.685  0.00  0.00    +0.000 C 
BRANCH  12  18
ATOM     13  C   UNL     1       5.142   6.812  16.337  0.00  0.00    +0.000 C 
ATOM     14  N   UNL     1       5.729   5.666  15.691  0.00  0.00    +0.000 N 
ATOM     15  N   UNL     1       5.949   5.693  14.363  0.00  0.00    +0.000 NA
ATOM     16  C   UNL     1       6.488   4.494  14.153  0.00  0.00    +0.000 A 
ATOM     17  N   UNL     1       6.617   3.713  15.262  0.00  0.00    +0.000 NA
ATOM     18  C   UNL     1       6.140   4.474  16.233  0.00  0.00    +0.000 A 
ENDBRANCH  12  18
ENDBRANCH   1  12
BRANCH   5  19
ATOM     19  O   UNL     1       2.437   5.342  20.832  0.00  0.00    +0.000 OA
BRANCH  19  20
ATOM     20  C   UNL     1       2.000   6.625  20.592  0.00  0.00    +0.000 A 
ATOM     21  C   UNL     1       2.289   7.154  19.333  0.00  0.00    +0.000 A 
ATOM     22  C   UNL     1       1.811   8.418  18.989  0.00  0.00    +0.000 A 
ATOM     23 CL   UNL     1       2.147   9.065  17.430  0.00  0.00    +0.000 Cl
ATOM     24  C   UNL     1       1.042   9.156  19.886  0.00  0.00    +0.000 A 
ATOM     25  C   UNL     1       0.790   8.644  21.161  0.00  0.00    +0.000 A 
ATOM     26  C   UNL     1       1.311   7.398  21.531  0.00  0.00    +0.000 A 
BRANCH  25  27
ATOM     27  C   UNL     1      -0.058   9.357  22.069  0.00  0.00    +0.000 C 
ATOM     28  N   UNL     1      -0.740   9.898  22.836  0.00  0.00    +0.000 NA
ENDBRANCH  25  27
ENDBRANCH  19  20
ENDBRANCH   5  19
TORSDOF 6
ENDMDL
MODEL 5
REMARK VINA RESULT:      -7.5      4.274      8.073
REMARK  Name = 
REMARK  7 active torsions:
REMARK  status: ('A' for Active; 'I' for Inactive)
REMARK    1  A    between atoms: C_1  and  N_2
REMARK    2  A    between atoms: C_6  and  C_7
REMARK    3  A    between atoms: C_7  and  N_8
REMARK    4  A    between atoms: C_11  and  C_12
REMARK    5  A    between atoms: C_16  and  O_17
REMARK    6  A    between atoms: O_17  and  C_18
REMARK    7  A    between atoms: C_23  and  C_24
REMARK                            x       y       z     vdW  Elec       q    Type
REMARK                         _______ _______ _______ _____ _____    ______ ____
ROOT
ATOM      1  N   UNL     1       2.286   7.490  18.835  0.00  0.00    +0.000 N 
ATOM      2  C   UNL     1       2.094   6.955  20.094  0.00  0.00    +0.000 A 
ATOM      3  C   UNL     1       1.491   7.661  21.059  0.00  0.00    +0.000 A 
ATOM      4  C   UNL     1       0.987   8.998  20.794  0.00  0.00    +0.000 A 
ATOM      5  C   UNL     1       1.058   9.521  19.552  0.00  0.00    +0.000 A 
ATOM      6  C   UNL     1       1.848   8.768  18.495  0.00  0.00    +0.000 A 
ATOM      7  O   UNL     1       2.094   9.268  17.399  0.00  0.00    +0.000 OA
ENDROOT
BRANCH   4   8
ATOM      8  C   UNL     1       0.392   9.767  21.936  0.00  0.00    +0.000 C 
ATOM      9  F   UNL     1      -0.960   9.632  22.015  0.00  0.00    +0.000 F 
ATOM     10  F   UNL     1       0.882   9.349  23.133  0.00  0.00    +0.000 F 
ATOM     11  F   UNL     1       0.639  11.098  21.845  0.00  0.00    +0.000 F 
ENDBRANCH   4   8
BRANCH   1  12
ATOM     12  C   UNL     1       3.066   6.737  17.848  0.00  0.00    +0.000 C 
BRANCH  12  18
ATOM     13  C   UNL     1       5.067   4.626  19.072  0.00  0.00    +0.000 C 
ATOM     14  N   UNL     1       3.742   4.388  18.557  0.00  0.00    +0.000 N 
ATOM     15  N   UNL     1       3.222   3.147  18.614  0.00  0.00    +0.000 NA
ATOM     16  C   UNL     1       2.024   3.331  18.064  0.00  0.00    +0.000 A 
ATOM     17  N   UNL     1       1.759   4.605  17.659  0.00  0.00    +0.000 NA
ATOM     18  C   UNL     1       2.856   5.267  17.988  0.00  0.00    +0.000 A 
ENDBRANCH  12  18
ENDBRANCH   1  12
BRANCH   5  19
ATOM     19  O   UNL     1       0.510  10.782  19.295  0.00  0.00    +0.000 OA
BRANCH  19  20
ATOM     20  C   UNL     1      -0.757  10.896  18.768  0.00  0.00    +0.000 A 
ATOM     21  C   UNL     1      -1.685  11.604  19.534  0.00  0.00    +0.000 A 
ATOM     22  C   UNL     1      -2.967  11.828  19.031  0.00  0.00    +0.000 A 
ATOM     23 CL   UNL     1      -4.107  12.719  19.962  0.00  0.00    +0.000 Cl
ATOM     24  C   UNL     1      -3.328  11.359  17.769  0.00  0.00    +0.000 A 
ATOM     25  C   UNL     1      -2.412  10.615  17.024  0.00  0.00    +0.000 A 
ATOM     26  C   UNL     1      -1.142  10.341  17.545  0.00  0.00    +0.000 A 
BRANCH  25  27
ATOM     27  C   UNL     1      -2.742  10.187  15.697  0.00  0.00    +0.000 C 
ATOM     28  N   UNL     1      -3.020   9.888  14.611  0.00  0.00    +0.000 NA
ENDBRANCH  25  27
ENDBRANCH  19  20
ENDBRANCH   5  19
TORSDOF 6
ENDMDL
MODEL 6
REMARK VINA RESULT:      -7.5      1.713      2.247
REMARK  Name = 
REMARK  7 active torsions:
REMARK  status: ('A' for Active; 'I' for Inactive)
REMARK    1  A    between atoms: C_1  and  N_2
REMARK    2  A    between atoms: C_6  and  C_7
REMARK    3  A    between atoms: C_7  and  N_8
REMARK    4  A    between atoms: C_11  and  C_12
REMARK    5  A    between atoms: C_16  and  O_17
REMARK    6  A    between atoms: O_17  and  C_18
REMARK    7  A    between atoms: C_23  and  C_24
REMARK                            x       y       z     vdW  Elec       q    Type
REMARK                         _______ _______ _______ _____ _____    ______ ____
ROOT
ATOM      1  N   UNL     1       1.896   8.308  19.493  0.00  0.00    +0.000 N 
ATOM      2  C   UNL     1       1.451   7.792  20.695  0.00  0.00    +0.000 A 
ATOM      3  C   UNL     1       1.480   6.475  20.935  0.00  0.00    +0.000 A 
ATOM      4  C   UNL     1       2.020   5.554  19.948  0.00  0.00    +0.000 A 
ATOM      5  C   UNL     1       2.563   6.021  18.804  0.00  0.00    +0.000 A 
ATOM      6  C   UNL     1       2.417   7.500  18.485  0.00  0.00    +0.000 A 
ATOM      7  O   UNL     1       2.736   7.955  17.388  0.00  0.00    +0.000 OA
ENDROOT
BRANCH   4   8
ATOM      8  C   UNL     1       1.953   4.086  20.242  0.00  0.00    +0.000 C 
ATOM      9  F   UNL     1       1.303   3.810  21.405  0.00  0.00    +0.000 F 
ATOM     10  F   UNL     1       1.289   3.407  19.270  0.00  0.00    +0.000 F 
ATOM     11  F   UNL     1       3.184   3.525  20.350  0.00  0.00    +0.000 F 
ENDBRANCH   4   8
BRANCH   1  12
ATOM     12  C   UNL     1       1.726   9.738  19.219  0.00  0.00    +0.000 C 
BRANCH  12  18
ATOM     13  C   UNL     1      -0.330  11.223  21.097  0.00  0.00    +0.000 C 
ATOM     14  N   UNL     1      -0.548  10.750  19.754  0.00  0.00    +0.000 N 
ATOM     15  N   UNL     1      -1.734  10.974  19.157  0.00  0.00    +0.000 NA
ATOM     16  C   UNL     1      -1.548  10.410  17.965  0.00  0.00    +0.000 A 
ATOM     17  N   UNL     1      -0.323   9.840  17.777  0.00  0.00    +0.000 NA
ATOM     18  C   UNL     1       0.304  10.073  18.918  0.00  0.00    +0.000 A 
ENDBRANCH  12  18
ENDBRANCH   1  12
BRANCH   5  19
ATOM     19  O   UNL     1       3.138   5.130  17.892  0.00  0.00    +0.000 OA
BRANCH  19  20
ATOM     20  C   UNL     1       4.465   5.248  17.546  0.00  0.00    +0.000 A 
ATOM     21  C   UNL     1       5.366   5.435  18.597  0.00  0.00    +0.000 A 
ATOM     22  C   UNL     1       6.734   5.485  18.333  0.00  0.00    +0.000 A 
ATOM     23 CL   UNL     1       7.848   5.693  19.628  0.00  0.00    +0.000 Cl
ATOM     24  C   UNL     1       7.213   5.345  17.032  0.00  0.00    +0.000 A 
ATOM     25  C   UNL     1       6.309   5.202  15.977  0.00  0.00    +0.000 A 
ATOM     26  C   UNL     1       4.932   5.203  16.229  0.00  0.00    +0.000 A 
BRANCH  25  27
ATOM     27  C   UNL     1       6.786   4.984  14.644  0.00  0.00    +0.000 C 
ATOM     28  N   UNL     1       7.173   4.760  13.574  0.00  0.00    +0.000 NA
ENDBRANCH  25  27
ENDBRANCH  19  20
ENDBRANCH   5  19
TORSDOF 6
ENDMDL
MODEL 7
REMARK VINA RESULT:      -7.5      1.368      2.037
REMARK  Name = 
REMARK  7 active torsions:
REMARK  status: ('A' for Active; 'I' for Inactive)
REMARK    1  A    between atoms: C_1  and  N_2
REMARK    2  A    between atoms: C_6  and  C_7
REMARK    3  A    between atoms: C_7  and  N_8
REMARK    4  A    between atoms: C_11  and  C_12
REMARK    5  A    between atoms: C_16  and  O_17
REMARK    6  A    between atoms: O_17  and  C_18
REMARK    7  A    between atoms: C_23  and  C_24
REMARK                            x       y       z     vdW  Elec       q    Type
REMARK                         _______ _______ _______ _____ _____    ______ ____
ROOT
ATOM      1  N   UNL     1       1.973   7.135  19.654  0.00  0.00    +0.000 N 
ATOM      2  C   UNL     1       1.437   6.403  20.697  0.00  0.00    +0.000 A 
ATOM      3  C   UNL     1       1.364   5.067  20.637  0.00  0.00    +0.000 A 
ATOM      4  C   UNL     1       1.885   4.348  19.486  0.00  0.00    +0.000 A 
ATOM      5  C   UNL     1       2.513   5.011  18.493  0.00  0.00    +0.000 A 
ATOM      6  C   UNL     1       2.485   6.531  18.508  0.00  0.00    +0.000 A 
ATOM      7  O   UNL     1       2.886   7.190  17.550  0.00  0.00    +0.000 OA
ENDROOT
BRANCH   4   8
ATOM      8  C   UNL     1       1.704   2.860  19.443  0.00  0.00    +0.000 C 
ATOM      9  F   UNL     1       1.122   2.367  20.569  0.00  0.00    +0.000 F 
ATOM     10  F   UNL     1       0.906   2.480  18.411  0.00  0.00    +0.000 F 
ATOM     11  F   UNL     1       2.882   2.201  19.301  0.00  0.00    +0.000 F 
ENDBRANCH   4   8
BRANCH   1  12
ATOM     12  C   UNL     1       1.914   8.599  19.701  0.00  0.00    +0.000 C 
BRANCH  12  18
ATOM     13  C   UNL     1      -0.832  10.151  19.633  0.00  0.00    +0.000 C 
ATOM     14  N   UNL     1      -0.092   9.724  20.793  0.00  0.00    +0.000 N 
ATOM     15  N   UNL     1      -0.597   9.945  22.021  0.00  0.00    +0.000 NA
ATOM     16  C   UNL     1       0.346   9.420  22.800  0.00  0.00    +0.000 A 
ATOM     17  N   UNL     1       1.414   8.887  22.142  0.00  0.00    +0.000 NA
ATOM     18  C   UNL     1       1.117   9.079  20.867  0.00  0.00    +0.000 A 
ENDBRANCH  12  18
ENDBRANCH   1  12
BRANCH   5  19
ATOM     19  O   UNL     1       3.068   4.301  17.423  0.00  0.00    +0.000 OA
BRANCH  19  20
ATOM     20  C   UNL     1       4.422   4.356  17.180  0.00  0.00    +0.000 A 
ATOM     21  C   UNL     1       4.820   4.205  15.851  0.00  0.00    +0.000 A 
ATOM     22  C   UNL     1       6.168   4.327  15.516  0.00  0.00    +0.000 A 
ATOM     23 CL   UNL     1       6.660   4.164  13.875  0.00  0.00    +0.000 Cl
ATOM     24  C   UNL     1       7.122   4.604  16.493  0.00  0.00    +0.000 A 
ATOM     25  C   UNL     1       6.727   4.711  17.829  0.00  0.00    +0.000 A 
ATOM     26  C   UNL     1       5.383   4.538  18.179  0.00  0.00    +0.000 A 
BRANCH  25  27
ATOM     27  C   UNL     1       7.683   5.066  18.835  0.00  0.00    +0.000 C 
ATOM     28  N   UNL     1       8.420   5.357  19.683  0.00  0.00    +0.000 NA
ENDBRANCH  25  27
ENDBRANCH  19  20
ENDBRANCH   5  19
TORSDOF 6
ENDMDL
MODEL 8
REMARK VINA RESULT:      -7.5      4.261      8.153
REMARK  Name = 
REMARK  7 active torsions:
REMARK  status: ('A' for Active; 'I' for Inactive)
REMARK    1  A    between atoms: C_1  and  N_2
REMARK    2  A    between atoms: C_6  and  C_7
REMARK    3  A    between atoms: C_7  and  N_8
REMARK    4  A    between atoms: C_11  and  C_12
REMARK    5  A    between atoms: C_16  and  O_17
REMARK    6  A    between atoms: O_17  and  C_18
REMARK    7  A    between atoms: C_23  and  C_24
REMARK                            x       y       z     vdW  Elec       q    Type
REMARK                         _______ _______ _______ _____ _____    ______ ____
ROOT
ATOM      1  N   UNL     1       2.310   7.632  18.795  0.00  0.00    +0.000 N 
ATOM      2  C   UNL     1       2.120   7.053  20.035  0.00  0.00    +0.000 A 
ATOM      3  C   UNL     1       1.491   7.714  21.016  0.00  0.00    +0.000 A 
ATOM      4  C   UNL     1       0.955   9.046  20.787  0.00  0.00    +0.000 A 
ATOM      5  C   UNL     1       1.024   9.608  19.562  0.00  0.00    +0.000 A 
ATOM      6  C   UNL     1       1.843   8.908  18.490  0.00  0.00    +0.000 A 
ATOM      7  O   UNL     1       2.086   9.448  17.412  0.00  0.00    +0.000 OA
ENDROOT
BRANCH   4   8
ATOM      8  C   UNL     1       0.331   9.764  21.945  0.00  0.00    +0.000 C 
ATOM      9  F   UNL     1       0.540  11.107  21.908  0.00  0.00    +0.000 F 
ATOM     10  F   UNL     1      -1.018   9.594  21.974  0.00  0.00    +0.000 F 
ATOM     11  F   UNL     1       0.813   9.334  23.138  0.00  0.00    +0.000 F 
ENDBRANCH   4   8
BRANCH   1  12
ATOM     12  C   UNL     1       3.117   6.930  17.793  0.00  0.00    +0.000 C 
BRANCH  12  18
ATOM     13  C   UNL     1       1.765   4.080  17.677  0.00  0.00    +0.000 C 
ATOM     14  N   UNL     1       3.053   4.422  18.226  0.00  0.00    +0.000 N 
ATOM     15  N   UNL     1       3.839   3.450  18.726  0.00  0.00    +0.000 NA
ATOM     16  C   UNL     1       4.907   4.141  19.119  0.00  0.00    +0.000 A 
ATOM     17  N   UNL     1       4.841   5.485  18.903  0.00  0.00    +0.000 NA
ATOM     18  C   UNL     1       3.662   5.648  18.327  0.00  0.00    +0.000 A 
ENDBRANCH  12  18
ENDBRANCH   1  12
BRANCH   5  19
ATOM     19  O   UNL     1       0.447  10.862  19.338  0.00  0.00    +0.000 OA
BRANCH  19  20
ATOM     20  C   UNL     1      -0.814  10.961  18.795  0.00  0.00    +0.000 A 
ATOM     21  C   UNL     1      -1.766  11.642  19.556  0.00  0.00    +0.000 A 
ATOM     22  C   UNL     1      -3.044  11.850  19.038  0.00  0.00    +0.000 A 
ATOM     23 CL   UNL     1      -4.213  12.708  19.965  0.00  0.00    +0.000 Cl
ATOM     24  C   UNL     1      -3.379  11.392  17.766  0.00  0.00    +0.000 A 
ATOM     25  C   UNL     1      -2.439  10.674  17.023  0.00  0.00    +0.000 A 
ATOM     26  C   UNL     1      -1.172  10.415  17.559  0.00  0.00    +0.000 A 
BRANCH  25  27
ATOM     27  C   UNL     1      -2.743  10.258  15.686  0.00  0.00    +0.000 C 
ATOM     28  N   UNL     1      -2.941   9.924  14.593  0.00  0.00    +0.000 NA
ENDBRANCH  25  27
ENDBRANCH  19  20
ENDBRANCH   5  19
TORSDOF 6
ENDMDL
MODEL 9
REMARK VINA RESULT:      -7.4      0.553      1.431
REMARK  Name = 
REMARK  7 active torsions:
REMARK  status: ('A' for Active; 'I' for Inactive)
REMARK    1  A    between atoms: C_1  and  N_2
REMARK    2  A    between atoms: C_6  and  C_7
REMARK    3  A    between atoms: C_7  and  N_8
REMARK    4  A    between atoms: C_11  and  C_12
REMARK    5  A    between atoms: C_16  and  O_17
REMARK    6  A    between atoms: O_17  and  C_18
REMARK    7  A    between atoms: C_23  and  C_24
REMARK                            x       y       z     vdW  Elec       q    Type
REMARK                         _______ _______ _______ _____ _____    ______ ____
ROOT
ATOM      1  N   UNL     1       1.883   8.493  19.297  0.00  0.00    +0.000 N 
ATOM      2  C   UNL     1       1.438   7.972  20.497  0.00  0.00    +0.000 A 
ATOM      3  C   UNL     1       1.455   6.653  20.726  0.00  0.00    +0.000 A 
ATOM      4  C   UNL     1       1.980   5.735  19.728  0.00  0.00    +0.000 A 
ATOM      5  C   UNL     1       2.522   6.206  18.585  0.00  0.00    +0.000 A 
ATOM      6  C   UNL     1       2.391   7.688  18.280  0.00  0.00    +0.000 A 
ATOM      7  O   UNL     1       2.709   8.150  17.185  0.00  0.00    +0.000 OA
ENDROOT
BRANCH   4   8
ATOM      8  C   UNL     1       1.900   4.264  20.011  0.00  0.00    +0.000 C 
ATOM      9  F   UNL     1       1.441   3.548  18.950  0.00  0.00    +0.000 F 
ATOM     10  F   UNL     1       3.118   3.744  20.317  0.00  0.00    +0.000 F 
ATOM     11  F   UNL     1       1.073   3.984  21.049  0.00  0.00    +0.000 F 
ENDBRANCH   4   8
BRANCH   1  12
ATOM     12  C   UNL     1       1.726   9.927  19.036  0.00  0.00    +0.000 C 
BRANCH  12  18
ATOM     13  C   UNL     1      -1.375  10.396  18.680  0.00  0.00    +0.000 C 
ATOM     14  N   UNL     1      -0.562  10.718  19.825  0.00  0.00    +0.000 N 
ATOM     15  N   UNL     1      -1.140  11.244  20.921  0.00  0.00    +0.000 NA
ATOM     16  C   UNL     1      -0.096  11.392  21.733  0.00  0.00    +0.000 A 
ATOM     17  N   UNL     1       1.103  10.997  21.217  0.00  0.00    +0.000 NA
ATOM     18  C   UNL     1       0.789  10.562  20.008  0.00  0.00    +0.000 A 
ENDBRANCH  12  18
ENDBRANCH   1  12
BRANCH   5  19
ATOM     19  O   UNL     1       3.084   5.316  17.663  0.00  0.00    +0.000 OA
BRANCH  19  20
ATOM     20  C   UNL     1       4.451   5.188  17.564  0.00  0.00    +0.000 A 
ATOM     21  C   UNL     1       4.968   5.037  16.276  0.00  0.00    +0.000 A 
ATOM     22  C   UNL     1       6.349   4.980  16.089  0.00  0.00    +0.000 A 
ATOM     23 CL   UNL     1       6.991   4.817  14.501  0.00  0.00    +0.000 Cl
ATOM     24  C   UNL     1       7.218   5.079  17.174  0.00  0.00    +0.000 A 
ATOM     25  C   UNL     1       6.698   5.186  18.465  0.00  0.00    +0.000 A 
ATOM     26  C   UNL     1       5.313   5.191  18.665  0.00  0.00    +0.000 A 
BRANCH  25  27
ATOM     27  C   UNL     1       7.577   5.361  19.583  0.00  0.00    +0.000 C 
ATOM     28  N   UNL     1       8.251   5.493  20.518  0.00  0.00    +0.000 NA
ENDBRANCH  25  27
ENDBRANCH  19  20
ENDBRANCH   5  19
TORSDOF 6
ENDMDL
