MODEL 1
REMARK VINA RESULT:      -7.0      0.000      0.000
REMARK  Name = 
REMARK  7 active torsions:
REMARK  status: ('A' for Active; 'I' for Inactive)
REMARK    1  A    between atoms: C_1  and  O_2
REMARK    2  A    between atoms: O_2  and  C_3
REMARK    3  A    between atoms: C_3  and  C_5
REMARK    4  A    between atoms: C_6  and  C_7
REMARK    5  A    between atoms: C_10  and  N_11
REMARK    6  A    between atoms: C_12  and  C_14
REMARK    7  A    between atoms: C_14  and  N_15
REMARK                            x       y       z     vdW  Elec       q    Type
REMARK                         _______ _______ _______ _____ _____    ______ ____
ROOT
ATOM      1  N   UNL     1       2.453   6.787  20.491  0.00  0.00    +0.000 N 
ATOM      2  C   UNL     1       1.999   5.468  20.532  0.00  0.00    +0.000 C 
ATOM      3  O   UNL     1       0.825   5.098  20.542  0.00  0.00    +0.000 OA
ATOM      4  H   UNL     1       3.456   6.945  20.568  0.00  0.00    +0.000 HD
ENDROOT
BRANCH   1  10
ATOM      5  C   UNL     1       1.457   8.835  19.391  0.00  0.00    +0.000 A 
ATOM      6  C   UNL     1       0.536   9.914  19.779  0.00  0.00    +0.000 A 
ATOM      7  C   UNL     1       0.152  11.117  18.973  0.00  0.00    +0.000 C 
ATOM      8  C   UNL     1       0.028   9.701  21.042  0.00  0.00    +0.000 A 
ATOM      9  S   UNL     1       0.671   8.329  21.786  0.00  0.00    +0.000 S 
ATOM     10  C   UNL     1       1.648   7.936  20.442  0.00  0.00    +0.000 A 
BRANCH   5  11
ATOM     11  C   UNL     1       2.073   8.740  18.065  0.00  0.00    +0.000 C 
ATOM     12  O   UNL     1       2.137   9.692  17.289  0.00  0.00    +0.000 OA
BRANCH  11  14
ATOM     13  C   UNL     1       3.898   7.481  17.231  0.00  0.00    +0.000 C 
ATOM     14  O   UNL     1       2.576   7.502  17.787  0.00  0.00    +0.000 OA
ENDBRANCH  11  14
ENDBRANCH   5  11
ENDBRANCH   1  10
BRANCH   2  15
ATOM     15  C   UNL     1       3.106   4.397  20.552  0.00  0.00    +0.000 C 
BRANCH  15  16
ATOM     16  N   UNL     1       3.595   4.063  19.211  0.00  0.00    +0.000 N 
ATOM     17  C   UNL     1       2.842   3.139  18.496  0.00  0.00    +0.000 C 
ATOM     18  O   UNL     1       1.781   2.678  18.932  0.00  0.00    +0.000 OA
ATOM     19  C   UNL     1       3.430   2.585  17.219  0.00  0.00    +0.000 C 
ATOM     20  C   UNL     1       4.291   3.586  16.493  0.00  0.00    +0.000 C 
ATOM     21  C   UNL     1       5.282   4.187  17.442  0.00  0.00    +0.000 A 
ATOM     22  C   UNL     1       6.582   4.484  16.999  0.00  0.00    +0.000 A 
ATOM     23  C   UNL     1       7.461   5.174  17.824  0.00  0.00    +0.000 A 
ATOM     24  C   UNL     1       7.024   5.621  19.066  0.00  0.00    +0.000 A 
ATOM     25  C   UNL     1       5.734   5.310  19.516  0.00  0.00    +0.000 A 
ATOM     26  C   UNL     1       4.866   4.533  18.739  0.00  0.00    +0.000 A 
ENDBRANCH  15  16
ENDBRANCH   2  15
TORSDOF 5
ENDMDL
MODEL 2
REMARK VINA RESULT:      -7.0      1.919      2.873
REMARK  Name = 
REMARK  7 active torsions:
REMARK  status: ('A' for Active; 'I' for Inactive)
REMARK    1  A    between atoms: C_1  and  O_2
REMARK    2  A    between atoms: O_2  and  C_3
REMARK    3  A    between atoms: C_3  and  C_5
REMARK    4  A    between atoms: C_6  and  C_7
REMARK    5  A    between atoms: C_10  and  N_11
REMARK    6  A    between atoms: C_12  and  C_14
REMARK    7  A    between atoms: C_14  and  N_15
REMARK                            x       y       z     vdW  Elec       q    Type
REMARK                         _______ _______ _______ _____ _____    ______ ____
ROOT
ATOM      1  N   UNL     1       2.387   7.327  20.022  0.00  0.00    +0.000 N 
ATOM      2  C   UNL     1       1.848   6.109  20.440  0.00  0.00    +0.000 C 
ATOM      3  O   UNL     1       0.653   5.848  20.582  0.00  0.00    +0.000 OA
ATOM      4  H   UNL     1       3.401   7.421  20.027  0.00  0.00    +0.000 HD
ENDROOT
BRANCH   1  10
ATOM      5  C   UNL     1       0.966   9.364  20.498  0.00  0.00    +0.000 A 
ATOM      6  C   UNL     1       0.327  10.428  19.709  0.00  0.00    +0.000 A 
ATOM      7  C   UNL     1      -0.582  11.510  20.206  0.00  0.00    +0.000 C 
ATOM      8  C   UNL     1       0.661  10.324  18.376  0.00  0.00    +0.000 A 
ATOM      9  S   UNL     1       1.623   8.978  18.043  0.00  0.00    +0.000 S 
ATOM     10  C   UNL     1       1.660   8.476  19.674  0.00  0.00    +0.000 A 
BRANCH   5  11
ATOM     11  C   UNL     1       0.873   9.278  21.958  0.00  0.00    +0.000 C 
ATOM     12  O   UNL     1       1.851   9.377  22.696  0.00  0.00    +0.000 OA
BRANCH  11  14
ATOM     13  C   UNL     1      -0.898  10.106  23.294  0.00  0.00    +0.000 C 
ATOM     14  O   UNL     1      -0.402   9.093  22.410  0.00  0.00    +0.000 OA
ENDBRANCH  11  14
ENDBRANCH   5  11
ENDBRANCH   1  10
BRANCH   2  15
ATOM     15  C   UNL     1       2.879   5.003  20.730  0.00  0.00    +0.000 C 
BRANCH  15  16
ATOM     16  N   UNL     1       3.063   4.088  19.600  0.00  0.00    +0.000 N 
ATOM     17  C   UNL     1       2.488   2.829  19.731  0.00  0.00    +0.000 C 
ATOM     18  O   UNL     1       1.800   2.520  20.710  0.00  0.00    +0.000 OA
ATOM     19  C   UNL     1       2.851   1.778  18.708  0.00  0.00    +0.000 C 
ATOM     20  C   UNL     1       3.101   2.358  17.340  0.00  0.00    +0.000 C 
ATOM     21  C   UNL     1       4.061   3.504  17.442  0.00  0.00    +0.000 A 
ATOM     22  C   UNL     1       5.017   3.706  16.433  0.00  0.00    +0.000 A 
ATOM     23  C   UNL     1       5.813   4.845  16.442  0.00  0.00    +0.000 A 
ATOM     24  C   UNL     1       5.612   5.810  17.423  0.00  0.00    +0.000 A 
ATOM     25  C   UNL     1       4.672   5.601  18.441  0.00  0.00    +0.000 A 
ATOM     26  C   UNL     1       3.928   4.416  18.504  0.00  0.00    +0.000 A 
ENDBRANCH  15  16
ENDBRANCH   2  15
TORSDOF 5
ENDMDL
MODEL 3
REMARK VINA RESULT:      -7.0      1.769      2.596
REMARK  Name = 
REMARK  7 active torsions:
REMARK  status: ('A' for Active; 'I' for Inactive)
REMARK    1  A    between atoms: C_1  and  O_2
REMARK    2  A    between atoms: O_2  and  C_3
REMARK    3  A    between atoms: C_3  and  C_5
REMARK    4  A    between atoms: C_6  and  C_7
REMARK    5  A    between atoms: C_10  and  N_11
REMARK    6  A    between atoms: C_12  and  C_14
REMARK    7  A    between atoms: C_14  and  N_15
REMARK                            x       y       z     vdW  Elec       q    Type
REMARK                         _______ _______ _______ _____ _____    ______ ____
ROOT
ATOM      1  N   UNL     1       2.514   7.202  19.824  0.00  0.00    +0.000 N 
ATOM      2  C   UNL     1       1.996   6.004  20.320  0.00  0.00    +0.000 C 
ATOM      3  O   UNL     1       0.816   5.772  20.584  0.00  0.00    +0.000 OA
ATOM      4  H   UNL     1       3.526   7.275  19.727  0.00  0.00    +0.000 HD
ENDROOT
BRANCH   1  10
ATOM      5  C   UNL     1       1.099   9.222  20.384  0.00  0.00    +0.000 A 
ATOM      6  C   UNL     1       0.442  10.305  19.637  0.00  0.00    +0.000 A 
ATOM      7  C   UNL     1      -0.458  11.371  20.183  0.00  0.00    +0.000 C 
ATOM      8  C   UNL     1       0.750  10.239  18.296  0.00  0.00    +0.000 A 
ATOM      9  S   UNL     1       1.707   8.905  17.907  0.00  0.00    +0.000 S 
ATOM     10  C   UNL     1       1.778   8.358  19.522  0.00  0.00    +0.000 A 
BRANCH   5  11
ATOM     11  C   UNL     1       1.036   9.095  21.842  0.00  0.00    +0.000 C 
ATOM     12  O   UNL     1       2.021   9.222  22.567  0.00  0.00    +0.000 OA
BRANCH  11  14
ATOM     13  C   UNL     1      -0.713   9.756  23.297  0.00  0.00    +0.000 C 
ATOM     14  O   UNL     1      -0.221   8.839  22.311  0.00  0.00    +0.000 OA
ENDBRANCH  11  14
ENDBRANCH   5  11
ENDBRANCH   1  10
BRANCH   2  15
ATOM     15  C   UNL     1       3.030   4.884  20.533  0.00  0.00    +0.000 C 
BRANCH  15  16
ATOM     16  N   UNL     1       3.510   4.308  19.273  0.00  0.00    +0.000 N 
ATOM     17  C   UNL     1       2.729   3.297  18.725  0.00  0.00    +0.000 C 
ATOM     18  O   UNL     1       1.655   2.950  19.228  0.00  0.00    +0.000 OA
ATOM     19  C   UNL     1       3.300   2.513  17.567  0.00  0.00    +0.000 C 
ATOM     20  C   UNL     1       4.192   3.346  16.683  0.00  0.00    +0.000 C 
ATOM     21  C   UNL     1       5.201   4.073  17.519  0.00  0.00    +0.000 A 
ATOM     22  C   UNL     1       6.509   4.249  17.039  0.00  0.00    +0.000 A 
ATOM     23  C   UNL     1       7.409   5.045  17.737  0.00  0.00    +0.000 A 
ATOM     24  C   UNL     1       6.984   5.713  18.880  0.00  0.00    +0.000 A 
ATOM     25  C   UNL     1       5.685   5.524  19.370  0.00  0.00    +0.000 A 
ATOM     26  C   UNL     1       4.794   4.650  18.735  0.00  0.00    +0.000 A 
ENDBRANCH  15  16
ENDBRANCH   2  15
TORSDOF 5
ENDMDL
MODEL 4
REMARK VINA RESULT:      -7.0      4.508      7.099
REMARK  Name = 
REMARK  7 active torsions:
REMARK  status: ('A' for Active; 'I' for Inactive)
REMARK    1  A    between atoms: C_1  and  O_2
REMARK    2  A    between atoms: O_2  and  C_3
REMARK    3  A    between atoms: C_3  and  C_5
REMARK    4  A    between atoms: C_6  and  C_7
REMARK    5  A    between atoms: C_10  and  N_11
REMARK    6  A    between atoms: C_12  and  C_14
REMARK    7  A    between atoms: C_14  and  N_15
REMARK                            x       y       z     vdW  Elec       q    Type
REMARK                         _______ _______ _______ _____ _____    ______ ____
ROOT
ATOM      1  N   UNL     1      -1.807  12.009  19.769  0.00  0.00    +0.000 N 
ATOM      2  C   UNL     1      -0.779  12.398  18.908  0.00  0.00    +0.000 C 
ATOM      3  O   UNL     1      -0.910  12.942  17.811  0.00  0.00    +0.000 OA
ATOM      4  H   UNL     1      -1.550  11.497  20.610  0.00  0.00    +0.000 HD
ENDROOT
BRANCH   1  10
ATOM      5  C   UNL     1      -3.993  11.607  18.562  0.00  0.00    +0.000 A 
ATOM      6  C   UNL     1      -5.381  12.079  18.682  0.00  0.00    +0.000 A 
ATOM      7  C   UNL     1      -6.527  11.777  17.766  0.00  0.00    +0.000 C 
ATOM      8  C   UNL     1      -5.536  12.884  19.789  0.00  0.00    +0.000 A 
ATOM      9  S   UNL     1      -4.089  13.150  20.616  0.00  0.00    +0.000 S 
ATOM     10  C   UNL     1      -3.182  12.180  19.543  0.00  0.00    +0.000 A 
BRANCH   5  11
ATOM     11  C   UNL     1      -3.551  10.656  17.538  0.00  0.00    +0.000 C 
ATOM     12  O   UNL     1      -3.113   9.540  17.809  0.00  0.00    +0.000 OA
BRANCH  11  14
ATOM     13  C   UNL     1      -2.784  10.576  15.299  0.00  0.00    +0.000 C 
ATOM     14  O   UNL     1      -3.689  11.127  16.264  0.00  0.00    +0.000 OA
ENDBRANCH  11  14
ENDBRANCH   5  11
ENDBRANCH   1  10
BRANCH   2  15
ATOM     15  C   UNL     1       0.644  12.115  19.420  0.00  0.00    +0.000 C 
BRANCH  15  16
ATOM     16  N   UNL     1       0.751  10.828  20.115  0.00  0.00    +0.000 N 
ATOM     17  C   UNL     1       0.464  10.841  21.476  0.00  0.00    +0.000 C 
ATOM     18  O   UNL     1       0.071  11.860  22.055  0.00  0.00    +0.000 OA
ATOM     19  C   UNL     1       0.790   9.603  22.278  0.00  0.00    +0.000 C 
ATOM     20  C   UNL     1       0.630   8.334  21.480  0.00  0.00    +0.000 C 
ATOM     21  C   UNL     1       1.357   8.458  20.177  0.00  0.00    +0.000 A 
ATOM     22  C   UNL     1       2.021   7.342  19.638  0.00  0.00    +0.000 A 
ATOM     23  C   UNL     1       2.572   7.404  18.364  0.00  0.00    +0.000 A 
ATOM     24  C   UNL     1       2.408   8.558  17.605  0.00  0.00    +0.000 A 
ATOM     25  C   UNL     1       1.763   9.677  18.148  0.00  0.00    +0.000 A 
ATOM     26  C   UNL     1       1.285   9.667  19.464  0.00  0.00    +0.000 A 
ENDBRANCH  15  16
ENDBRANCH   2  15
TORSDOF 5
ENDMDL
MODEL 5
REMARK VINA RESULT:      -6.8      2.425      3.920
REMARK  Name = 
REMARK  7 active torsions:
REMARK  status: ('A' for Active; 'I' for Inactive)
REMARK    1  A    between atoms: C_1  and  O_2
REMARK    2  A    between atoms: O_2  and  C_3
REMARK    3  A    between atoms: C_3  and  C_5
REMARK    4  A    between atoms: C_6  and  C_7
REMARK    5  A    between atoms: C_10  and  N_11
REMARK    6  A    between atoms: C_12  and  C_14
REMARK    7  A    between atoms: C_14  and  N_15
REMARK                            x       y       z     vdW  Elec       q    Type
REMARK                         _______ _______ _______ _____ _____    ______ ____
ROOT
ATOM      1  N   UNL     1       1.033   9.202  19.628  0.00  0.00    +0.000 N 
ATOM      2  C   UNL     1       1.893   8.678  18.661  0.00  0.00    +0.000 C 
ATOM      3  O   UNL     1       1.851   8.895  17.450  0.00  0.00    +0.000 OA
ATOM      4  H   UNL     1       1.140   8.870  20.585  0.00  0.00    +0.000 HD
ENDROOT
BRANCH   1  10
ATOM      5  C   UNL     1      -0.461  11.172  20.157  0.00  0.00    +0.000 A 
ATOM      6  C   UNL     1      -1.634  11.816  19.548  0.00  0.00    +0.000 A 
ATOM      7  C   UNL     1      -2.445  12.946  20.105  0.00  0.00    +0.000 C 
ATOM      8  C   UNL     1      -1.942  11.239  18.336  0.00  0.00    +0.000 A 
ATOM      9  S   UNL     1      -0.944   9.931  17.959  0.00  0.00    +0.000 S 
ATOM     10  C   UNL     1      -0.032  10.085  19.393  0.00  0.00    +0.000 A 
BRANCH   5  11
ATOM     11  C   UNL     1       0.159  11.638  21.401  0.00  0.00    +0.000 C 
ATOM     12  O   UNL     1       0.530  12.799  21.567  0.00  0.00    +0.000 OA
BRANCH  11  14
ATOM     13  C   UNL     1      -0.920  10.416  23.119  0.00  0.00    +0.000 C 
ATOM     14  O   UNL     1       0.265  10.665  22.352  0.00  0.00    +0.000 OA
ENDBRANCH  11  14
ENDBRANCH   5  11
ENDBRANCH   1  10
BRANCH   2  15
ATOM     15  C   UNL     1       2.998   7.752  19.202  0.00  0.00    +0.000 C 
BRANCH  15  16
ATOM     16  N   UNL     1       2.764   6.342  18.877  0.00  0.00    +0.000 N 
ATOM     17  C   UNL     1       1.944   5.639  19.754  0.00  0.00    +0.000 C 
ATOM     18  O   UNL     1       1.384   6.186  20.710  0.00  0.00    +0.000 OA
ATOM     19  C   UNL     1       1.868   4.138  19.600  0.00  0.00    +0.000 C 
ATOM     20  C   UNL     1       2.005   3.692  18.166  0.00  0.00    +0.000 C 
ATOM     21  C   UNL     1       3.208   4.336  17.547  0.00  0.00    +0.000 A 
ATOM     22  C   UNL     1       3.995   3.613  16.635  0.00  0.00    +0.000 A 
ATOM     23  C   UNL     1       5.023   4.244  15.945  0.00  0.00    +0.000 A 
ATOM     24  C   UNL     1       5.226   5.608  16.120  0.00  0.00    +0.000 A 
ATOM     25  C   UNL     1       4.454   6.326  17.044  0.00  0.00    +0.000 A 
ATOM     26  C   UNL     1       3.478   5.688  17.819  0.00  0.00    +0.000 A 
ENDBRANCH  15  16
ENDBRANCH   2  15
TORSDOF 5
ENDMDL
MODEL 6
REMARK VINA RESULT:      -6.7      2.369      7.263
REMARK  Name = 
REMARK  7 active torsions:
REMARK  status: ('A' for Active; 'I' for Inactive)
REMARK    1  A    between atoms: C_1  and  O_2
REMARK    2  A    between atoms: O_2  and  C_3
REMARK    3  A    between atoms: C_3  and  C_5
REMARK    4  A    between atoms: C_6  and  C_7
REMARK    5  A    between atoms: C_10  and  N_11
REMARK    6  A    between atoms: C_12  and  C_14
REMARK    7  A    between atoms: C_14  and  N_15
REMARK                            x       y       z     vdW  Elec       q    Type
REMARK                         _______ _______ _______ _____ _____    ______ ____
ROOT
ATOM      1  N   UNL     1       2.306   7.236  20.555  0.00  0.00    +0.000 N 
ATOM      2  C   UNL     1       1.216   7.930  21.084  0.00  0.00    +0.000 C 
ATOM      3  O   UNL     1       0.044   7.554  21.092  0.00  0.00    +0.000 OA
ATOM      4  H   UNL     1       3.208   7.708  20.548  0.00  0.00    +0.000 HD
ENDROOT
BRANCH   1  10
ATOM      5  C   UNL     1       2.753   5.576  18.701  0.00  0.00    +0.000 A 
ATOM      6  C   UNL     1       2.476   4.153  18.452  0.00  0.00    +0.000 A 
ATOM      7  C   UNL     1       2.752   3.377  17.201  0.00  0.00    +0.000 C 
ATOM      8  C   UNL     1       1.895   3.562  19.553  0.00  0.00    +0.000 A 
ATOM      9  S   UNL     1       1.603   4.654  20.806  0.00  0.00    +0.000 S 
ATOM     10  C   UNL     1       2.263   5.972  19.946  0.00  0.00    +0.000 A 
BRANCH   5  11
ATOM     11  C   UNL     1       3.458   6.437  17.748  0.00  0.00    +0.000 C 
ATOM     12  O   UNL     1       3.095   7.583  17.490  0.00  0.00    +0.000 OA
BRANCH  11  14
ATOM     13  C   UNL     1       5.142   6.546  16.086  0.00  0.00    +0.000 C 
ATOM     14  O   UNL     1       4.557   5.847  17.193  0.00  0.00    +0.000 OA
ENDBRANCH  11  14
ENDBRANCH   5  11
ENDBRANCH   1  10
BRANCH   2  15
ATOM     15  C   UNL     1       1.554   9.290  21.721  0.00  0.00    +0.000 C 
BRANCH  15  16
ATOM     16  N   UNL     1       0.390  10.175  21.820  0.00  0.00    +0.000 N 
ATOM     17  C   UNL     1      -0.231  10.235  23.063  0.00  0.00    +0.000 C 
ATOM     18  O   UNL     1       0.213   9.636  24.048  0.00  0.00    +0.000 OA
ATOM     19  C   UNL     1      -1.565  10.938  23.152  0.00  0.00    +0.000 C 
ATOM     20  C   UNL     1      -1.681  12.093  22.190  0.00  0.00    +0.000 C 
ATOM     21  C   UNL     1      -1.286  11.649  20.815  0.00  0.00    +0.000 A 
ATOM     22  C   UNL     1      -1.969  12.154  19.695  0.00  0.00    +0.000 A 
ATOM     23  C   UNL     1      -1.518  11.865  18.413  0.00  0.00    +0.000 A 
ATOM     24  C   UNL     1      -0.353  11.125  18.249  0.00  0.00    +0.000 A 
ATOM     25  C   UNL     1       0.319  10.606  19.365  0.00  0.00    +0.000 A 
ATOM     26  C   UNL     1      -0.173  10.804  20.661  0.00  0.00    +0.000 A 
ENDBRANCH  15  16
ENDBRANCH   2  15
TORSDOF 5
ENDMDL
MODEL 7
REMARK VINA RESULT:      -6.6      2.060      7.004
REMARK  Name = 
REMARK  7 active torsions:
REMARK  status: ('A' for Active; 'I' for Inactive)
REMARK    1  A    between atoms: C_1  and  O_2
REMARK    2  A    between atoms: O_2  and  C_3
REMARK    3  A    between atoms: C_3  and  C_5
REMARK    4  A    between atoms: C_6  and  C_7
REMARK    5  A    between atoms: C_10  and  N_11
REMARK    6  A    between atoms: C_12  and  C_14
REMARK    7  A    between atoms: C_14  and  N_15
REMARK                            x       y       z     vdW  Elec       q    Type
REMARK                         _______ _______ _______ _____ _____    ______ ____
ROOT
ATOM      1  N   UNL     1       2.832   5.999  20.000  0.00  0.00    +0.000 N 
ATOM      2  C   UNL     1       2.376   6.994  19.133  0.00  0.00    +0.000 C 
ATOM      3  O   UNL     1       1.795   6.821  18.062  0.00  0.00    +0.000 OA
ATOM      4  H   UNL     1       3.368   6.290  20.815  0.00  0.00    +0.000 HD
ENDROOT
BRANCH   1  10
ATOM      5  C   UNL     1       3.571   3.717  19.196  0.00  0.00    +0.000 A 
ATOM      6  C   UNL     1       3.021   2.353  19.203  0.00  0.00    +0.000 A 
ATOM      7  C   UNL     1       3.605   1.133  18.560  0.00  0.00    +0.000 C 
ATOM      8  C   UNL     1       1.833   2.302  19.899  0.00  0.00    +0.000 A 
ATOM      9  S   UNL     1       1.332   3.814  20.456  0.00  0.00    +0.000 S 
ATOM     10  C   UNL     1       2.696   4.614  19.811  0.00  0.00    +0.000 A 
BRANCH   5  11
ATOM     11  C   UNL     1       4.873   4.057  18.617  0.00  0.00    +0.000 C 
ATOM     12  O   UNL     1       5.884   4.220  19.298  0.00  0.00    +0.000 OA
BRANCH  11  14
ATOM     13  C   UNL     1       4.820   5.495  16.736  0.00  0.00    +0.000 C 
ATOM     14  O   UNL     1       4.852   4.159  17.256  0.00  0.00    +0.000 OA
ENDBRANCH  11  14
ENDBRANCH   5  11
ENDBRANCH   1  10
BRANCH   2  15
ATOM     15  C   UNL     1       2.635   8.437  19.603  0.00  0.00    +0.000 C 
BRANCH  15  16
ATOM     16  N   UNL     1       1.425   9.265  19.582  0.00  0.00    +0.000 N 
ATOM     17  C   UNL     1       1.163   9.937  18.392  0.00  0.00    +0.000 C 
ATOM     18  O   UNL     1       1.867   9.791  17.387  0.00  0.00    +0.000 OA
ATOM     19  C   UNL     1       0.073  10.982  18.398  0.00  0.00    +0.000 C 
ATOM     20  C   UNL     1      -1.053  10.645  19.342  0.00  0.00    +0.000 C 
ATOM     21  C   UNL     1      -0.499  10.296  20.689  0.00  0.00    +0.000 A 
ATOM     22  C   UNL     1      -1.187  10.688  21.850  0.00  0.00    +0.000 A 
ATOM     23  C   UNL     1      -0.762  10.246  23.097  0.00  0.00    +0.000 A 
ATOM     24  C   UNL     1       0.311   9.365  23.180  0.00  0.00    +0.000 A 
ATOM     25  C   UNL     1       1.009   8.989  22.025  0.00  0.00    +0.000 A 
ATOM     26  C   UNL     1       0.657   9.500  20.769  0.00  0.00    +0.000 A 
ENDBRANCH  15  16
ENDBRANCH   2  15
TORSDOF 5
ENDMDL
MODEL 8
REMARK VINA RESULT:      -6.6      4.601      7.281
REMARK  Name = 
REMARK  7 active torsions:
REMARK  status: ('A' for Active; 'I' for Inactive)
REMARK    1  A    between atoms: C_1  and  O_2
REMARK    2  A    between atoms: O_2  and  C_3
REMARK    3  A    between atoms: C_3  and  C_5
REMARK    4  A    between atoms: C_6  and  C_7
REMARK    5  A    between atoms: C_10  and  N_11
REMARK    6  A    between atoms: C_12  and  C_14
REMARK    7  A    between atoms: C_14  and  N_15
REMARK                            x       y       z     vdW  Elec       q    Type
REMARK                         _______ _______ _______ _____ _____    ______ ____
ROOT
ATOM      1  N   UNL     1      -1.230  11.295  18.472  0.00  0.00    +0.000 N 
ATOM      2  C   UNL     1      -0.341  12.368  18.544  0.00  0.00    +0.000 C 
ATOM      3  O   UNL     1      -0.537  13.510  18.128  0.00  0.00    +0.000 OA
ATOM      4  H   UNL     1      -0.899  10.385  18.788  0.00  0.00    +0.000 HD
ENDROOT
BRANCH   1  10
ATOM      5  C   UNL     1      -3.700  11.839  18.466  0.00  0.00    +0.000 A 
ATOM      6  C   UNL     1      -4.833  11.648  17.549  0.00  0.00    +0.000 A 
ATOM      7  C   UNL     1      -6.274  11.968  17.802  0.00  0.00    +0.000 C 
ATOM      8  C   UNL     1      -4.415  11.105  16.353  0.00  0.00    +0.000 A 
ATOM      9  S   UNL     1      -2.766  10.749  16.334  0.00  0.00    +0.000 S 
ATOM     10  C   UNL     1      -2.521  11.328  17.921  0.00  0.00    +0.000 A 
BRANCH   5  11
ATOM     11  C   UNL     1      -3.823  12.489  19.774  0.00  0.00    +0.000 C 
ATOM     12  O   UNL     1      -4.680  13.336  20.019  0.00  0.00    +0.000 OA
BRANCH  11  14
ATOM     13  C   UNL     1      -3.058  12.572  22.014  0.00  0.00    +0.000 C 
ATOM     14  O   UNL     1      -2.908  12.051  20.687  0.00  0.00    +0.000 OA
ENDBRANCH  11  14
ENDBRANCH   5  11
ENDBRANCH   1  10
BRANCH   2  15
ATOM     15  C   UNL     1       1.003  12.058  19.229  0.00  0.00    +0.000 C 
BRANCH  15  16
ATOM     16  N   UNL     1       0.981  10.796  19.974  0.00  0.00    +0.000 N 
ATOM     17  C   UNL     1       0.644  10.885  21.321  0.00  0.00    +0.000 C 
ATOM     18  O   UNL     1       0.311  11.953  21.845  0.00  0.00    +0.000 OA
ATOM     19  C   UNL     1       0.840   9.658  22.180  0.00  0.00    +0.000 C 
ATOM     20  C   UNL     1       0.612   8.374  21.424  0.00  0.00    +0.000 C 
ATOM     21  C   UNL     1       1.396   8.390  20.147  0.00  0.00    +0.000 A 
ATOM     22  C   UNL     1       1.990   7.206  19.678  0.00  0.00    +0.000 A 
ATOM     23  C   UNL     1       2.592   7.175  18.427  0.00  0.00    +0.000 A 
ATOM     24  C   UNL     1       2.549   8.306  17.620  0.00  0.00    +0.000 A 
ATOM     25  C   UNL     1       1.974   9.493  18.094  0.00  0.00    +0.000 A 
ATOM     26  C   UNL     1       1.447   9.572  19.389  0.00  0.00    +0.000 A 
ENDBRANCH  15  16
ENDBRANCH   2  15
TORSDOF 5
ENDMDL
MODEL 9
REMARK VINA RESULT:      -6.6      1.994      3.090
REMARK  Name = 
REMARK  7 active torsions:
REMARK  status: ('A' for Active; 'I' for Inactive)
REMARK    1  A    between atoms: C_1  and  O_2
REMARK    2  A    between atoms: O_2  and  C_3
REMARK    3  A    between atoms: C_3  and  C_5
REMARK    4  A    between atoms: C_6  and  C_7
REMARK    5  A    between atoms: C_10  and  N_11
REMARK    6  A    between atoms: C_12  and  C_14
REMARK    7  A    between atoms: C_14  and  N_15
REMARK                            x       y       z     vdW  Elec       q    Type
REMARK                         _______ _______ _______ _____ _____    ______ ____
ROOT
ATOM      1  N   UNL     1       2.048   8.037  19.956  0.00  0.00    +0.000 N 
ATOM      2  C   UNL     1       2.386   6.996  19.089  0.00  0.00    +0.000 C 
ATOM      3  O   UNL     1       2.032   6.877  17.916  0.00  0.00    +0.000 OA
ATOM      4  H   UNL     1       2.350   7.962  20.925  0.00  0.00    +0.000 HD
ENDROOT
BRANCH   1  10
ATOM      5  C   UNL     1       0.219   9.732  20.378  0.00  0.00    +0.000 A 
ATOM      6  C   UNL     1      -0.364  10.875  19.660  0.00  0.00    +0.000 A 
ATOM      7  C   UNL     1      -1.545  11.701  20.068  0.00  0.00    +0.000 C 
ATOM      8  C   UNL     1       0.324  11.129  18.493  0.00  0.00    +0.000 A 
ATOM      9  S   UNL     1       1.559  10.016  18.203  0.00  0.00    +0.000 S 
ATOM     10  C   UNL     1       1.250   9.148  19.640  0.00  0.00    +0.000 A 
BRANCH   5  11
ATOM     11  C   UNL     1      -0.240   9.292  21.698  0.00  0.00    +0.000 C 
ATOM     12  O   UNL     1      -0.772   8.200  21.889  0.00  0.00    +0.000 OA
BRANCH  11  14
ATOM     13  C   UNL     1      -1.172  10.787  23.281  0.00  0.00    +0.000 C 
ATOM     14  O   UNL     1      -0.005  10.203  22.687  0.00  0.00    +0.000 OA
ENDBRANCH  11  14
ENDBRANCH   5  11
ENDBRANCH   1  10
BRANCH   2  15
ATOM     15  C   UNL     1       3.303   5.917  19.692  0.00  0.00    +0.000 C 
BRANCH  15  16
ATOM     16  N   UNL     1       3.650   4.866  18.730  0.00  0.00    +0.000 N 
ATOM     17  C   UNL     1       2.986   3.654  18.880  0.00  0.00    +0.000 C 
ATOM     18  O   UNL     1       2.101   3.490  19.727  0.00  0.00    +0.000 OA
ATOM     19  C   UNL     1       3.478   2.475  18.075  0.00  0.00    +0.000 C 
ATOM     20  C   UNL     1       4.028   2.876  16.730  0.00  0.00    +0.000 C 
ATOM     21  C   UNL     1       5.016   3.989  16.898  0.00  0.00    +0.000 A 
ATOM     22  C   UNL     1       6.163   4.033  16.087  0.00  0.00    +0.000 A 
ATOM     23  C   UNL     1       7.009   5.135  16.132  0.00  0.00    +0.000 A 
ATOM     24  C   UNL     1       6.678   6.217  16.939  0.00  0.00    +0.000 A 
ATOM     25  C   UNL     1       5.544   6.167  17.762  0.00  0.00    +0.000 A 
ATOM     26  C   UNL     1       4.732   5.027  17.803  0.00  0.00    +0.000 A 
ENDBRANCH  15  16
ENDBRANCH   2  15
TORSDOF 5
ENDMDL
