MODEL 1
REMARK VINA RESULT:      -8.4      0.000      0.000
REMARK  Name = 
REMARK  1 active torsions:
REMARK  status: ('A' for Active; 'I' for Inactive)
REMARK    1  A    between atoms: C_1  and  C_15
REMARK                            x       y       z     vdW  Elec       q    Type
REMARK                         _______ _______ _______ _____ _____    ______ ____
ROOT
ATOM      1  C   UNL     1       4.958   3.678  17.509  0.00  0.00    +0.000 C 
ATOM      2  C   UNL     1       4.080   4.362  18.263  0.00  0.00    +0.000 C 
ATOM      3  C   UNL     1       3.449   3.788  19.485  0.00  0.00    +0.000 A 
ATOM      4  C   UNL     1       3.494   2.530  20.065  0.00  0.00    +0.000 A 
ATOM      5  C   UNL     1       2.761   2.313  21.236  0.00  0.00    +0.000 A 
ATOM      6  C   UNL     1       1.999   3.344  21.809  0.00  0.00    +0.000 A 
ATOM      7  C   UNL     1       1.957   4.612  21.223  0.00  0.00    +0.000 A 
ATOM      8  C   UNL     1       2.684   4.830  20.060  0.00  0.00    +0.000 A 
ATOM      9  C   UNL     1       2.790   6.029  19.241  0.00  0.00    +0.000 A 
ATOM     10  C   UNL     1       2.214   7.278  19.428  0.00  0.00    +0.000 A 
ATOM     11  C   UNL     1       2.436   8.269  18.470  0.00  0.00    +0.000 A 
ATOM     12  C   UNL     1       3.216   8.002  17.337  0.00  0.00    +0.000 A 
ATOM     13  C   UNL     1       3.807   6.748  17.153  0.00  0.00    +0.000 A 
ATOM     14  C   UNL     1       3.609   5.769  18.115  0.00  0.00    +0.000 A 
ENDROOT
BRANCH   1  15
ATOM     15  C   UNL     1       5.667   4.211  16.347  0.00  0.00    +0.000 A 
ATOM     16  C   UNL     1       5.212   3.949  15.054  0.00  0.00    +0.000 A 
ATOM     17  C   UNL     1       5.954   4.391  13.961  0.00  0.00    +0.000 A 
ATOM     18  C   UNL     1       7.127   5.089  14.203  0.00  0.00    +0.000 A 
ATOM     19  N   UNL     1       7.588   5.380  15.439  0.00  0.00    +0.000 NA
ATOM     20  C   UNL     1       6.846   4.937  16.483  0.00  0.00    +0.000 A 
ENDBRANCH   1  15
TORSDOF 1
ENDMDL
MODEL 2
REMARK VINA RESULT:      -8.1      2.226      5.484
REMARK  Name = 
REMARK  1 active torsions:
REMARK  status: ('A' for Active; 'I' for Inactive)
REMARK    1  A    between atoms: C_1  and  C_15
REMARK                            x       y       z     vdW  Elec       q    Type
REMARK                         _______ _______ _______ _____ _____    ______ ____
ROOT
ATOM      1  C   UNL     1       3.847   3.040  18.473  0.00  0.00    +0.000 C 
ATOM      2  C   UNL     1       4.077   4.221  17.874  0.00  0.00    +0.000 C 
ATOM      3  C   UNL     1       4.948   4.359  16.673  0.00  0.00    +0.000 A 
ATOM      4  C   UNL     1       5.744   3.461  15.980  0.00  0.00    +0.000 A 
ATOM      5  C   UNL     1       6.459   3.926  14.872  0.00  0.00    +0.000 A 
ATOM      6  C   UNL     1       6.372   5.269  14.472  0.00  0.00    +0.000 A 
ATOM      7  C   UNL     1       5.567   6.172  15.171  0.00  0.00    +0.000 A 
ATOM      8  C   UNL     1       4.856   5.713  16.271  0.00  0.00    +0.000 A 
ATOM      9  C   UNL     1       3.980   6.437  17.181  0.00  0.00    +0.000 A 
ATOM     10  C   UNL     1       3.604   7.773  17.165  0.00  0.00    +0.000 A 
ATOM     11  C   UNL     1       2.774   8.248  18.183  0.00  0.00    +0.000 A 
ATOM     12  C   UNL     1       2.340   7.394  19.205  0.00  0.00    +0.000 A 
ATOM     13  C   UNL     1       2.708   6.045  19.216  0.00  0.00    +0.000 A 
ATOM     14  C   UNL     1       3.512   5.564  18.193  0.00  0.00    +0.000 A 
ENDROOT
BRANCH   1  15
ATOM     15  C   UNL     1       2.944   2.829  19.604  0.00  0.00    +0.000 A 
ATOM     16  C   UNL     1       1.561   2.851  19.424  0.00  0.00    +0.000 A 
ATOM     17  C   UNL     1       0.722   2.738  20.530  0.00  0.00    +0.000 A 
ATOM     18  C   UNL     1       1.300   2.602  21.782  0.00  0.00    +0.000 A 
ATOM     19  N   UNL     1       2.634   2.556  21.993  0.00  0.00    +0.000 NA
ATOM     20  C   UNL     1       3.425   2.667  20.900  0.00  0.00    +0.000 A 
ENDBRANCH   1  15
TORSDOF 1
ENDMDL
MODEL 3
REMARK VINA RESULT:      -7.9      2.549      6.019
REMARK  Name = 
REMARK  1 active torsions:
REMARK  status: ('A' for Active; 'I' for Inactive)
REMARK    1  A    between atoms: C_1  and  C_15
REMARK                            x       y       z     vdW  Elec       q    Type
REMARK                         _______ _______ _______ _____ _____    ______ ____
ROOT
ATOM      1  C   UNL     1       3.486   7.407  17.683  0.00  0.00    +0.000 C 
ATOM      2  C   UNL     1       3.627   6.100  17.402  0.00  0.00    +0.000 C 
ATOM      3  C   UNL     1       4.767   5.566  16.604  0.00  0.00    +0.000 A 
ATOM      4  C   UNL     1       5.810   6.178  15.928  0.00  0.00    +0.000 A 
ATOM      5  C   UNL     1       6.730   5.369  15.253  0.00  0.00    +0.000 A 
ATOM      6  C   UNL     1       6.598   3.971  15.262  0.00  0.00    +0.000 A 
ATOM      7  C   UNL     1       5.546   3.356  15.946  0.00  0.00    +0.000 A 
ATOM      8  C   UNL     1       4.633   4.158  16.616  0.00  0.00    +0.000 A 
ATOM      9  C   UNL     1       3.445   3.783  17.371  0.00  0.00    +0.000 A 
ATOM     10  C   UNL     1       2.935   2.521  17.642  0.00  0.00    +0.000 A 
ATOM     11  C   UNL     1       1.743   2.421  18.363  0.00  0.00    +0.000 A 
ATOM     12  C   UNL     1       1.072   3.572  18.794  0.00  0.00    +0.000 A 
ATOM     13  C   UNL     1       1.591   4.844  18.533  0.00  0.00    +0.000 A 
ATOM     14  C   UNL     1       2.787   4.948  17.838  0.00  0.00    +0.000 A 
ENDROOT
BRANCH   1  15
ATOM     15  C   UNL     1       2.436   7.980  18.523  0.00  0.00    +0.000 A 
ATOM     16  C   UNL     1       1.589   8.971  18.027  0.00  0.00    +0.000 A 
ATOM     17  C   UNL     1       0.655   9.566  18.873  0.00  0.00    +0.000 A 
ATOM     18  C   UNL     1       0.598   9.140  20.190  0.00  0.00    +0.000 A 
ATOM     19  N   UNL     1       1.386   8.169  20.701  0.00  0.00    +0.000 NA
ATOM     20  C   UNL     1       2.284   7.608  19.856  0.00  0.00    +0.000 A 
ENDBRANCH   1  15
TORSDOF 1
ENDMDL
MODEL 4
REMARK VINA RESULT:      -7.9      2.696      6.126
REMARK  Name = 
REMARK  1 active torsions:
REMARK  status: ('A' for Active; 'I' for Inactive)
REMARK    1  A    between atoms: C_1  and  C_15
REMARK                            x       y       z     vdW  Elec       q    Type
REMARK                         _______ _______ _______ _____ _____    ______ ____
ROOT
ATOM      1  C   UNL     1       3.602   3.363  16.374  0.00  0.00    +0.000 C 
ATOM      2  C   UNL     1       4.803   3.962  16.286  0.00  0.00    +0.000 C 
ATOM      3  C   UNL     1       5.532   4.118  14.996  0.00  0.00    +0.000 A 
ATOM      4  C   UNL     1       5.278   3.667  13.711  0.00  0.00    +0.000 A 
ATOM      5  C   UNL     1       6.191   3.988  12.702  0.00  0.00    +0.000 A 
ATOM      6  C   UNL     1       7.338   4.748  12.985  0.00  0.00    +0.000 A 
ATOM      7  C   UNL     1       7.591   5.203  14.282  0.00  0.00    +0.000 A 
ATOM      8  C   UNL     1       6.686   4.885  15.285  0.00  0.00    +0.000 A 
ATOM      9  C   UNL     1       6.722   5.202  16.705  0.00  0.00    +0.000 A 
ATOM     10  C   UNL     1       7.662   5.932  17.421  0.00  0.00    +0.000 A 
ATOM     11  C   UNL     1       7.496   6.066  18.801  0.00  0.00    +0.000 A 
ATOM     12  C   UNL     1       6.410   5.465  19.451  0.00  0.00    +0.000 A 
ATOM     13  C   UNL     1       5.456   4.739  18.729  0.00  0.00    +0.000 A 
ATOM     14  C   UNL     1       5.604   4.625  17.355  0.00  0.00    +0.000 A 
ENDROOT
BRANCH   1  15
ATOM     15  C   UNL     1       2.804   3.248  17.594  0.00  0.00    +0.000 A 
ATOM     16  C   UNL     1       1.998   4.305  18.019  0.00  0.00    +0.000 A 
ATOM     17  C   UNL     1       1.319   4.207  19.231  0.00  0.00    +0.000 A 
ATOM     18  C   UNL     1       1.465   3.047  19.974  0.00  0.00    +0.000 A 
ATOM     19  N   UNL     1       2.219   1.995  19.586  0.00  0.00    +0.000 NA
ATOM     20  C   UNL     1       2.869   2.118  18.403  0.00  0.00    +0.000 A 
ENDBRANCH   1  15
TORSDOF 1
ENDMDL
MODEL 5
REMARK VINA RESULT:      -7.7      1.228      3.589
REMARK  Name = 
REMARK  1 active torsions:
REMARK  status: ('A' for Active; 'I' for Inactive)
REMARK    1  A    between atoms: C_1  and  C_15
REMARK                            x       y       z     vdW  Elec       q    Type
REMARK                         _______ _______ _______ _____ _____    ______ ____
ROOT
ATOM      1  C   UNL     1       4.282   6.730  17.457  0.00  0.00    +0.000 C 
ATOM      2  C   UNL     1       3.597   6.292  18.527  0.00  0.00    +0.000 C 
ATOM      3  C   UNL     1       2.575   7.124  19.224  0.00  0.00    +0.000 A 
ATOM      4  C   UNL     1       2.162   8.436  19.065  0.00  0.00    +0.000 A 
ATOM      5  C   UNL     1       1.161   8.924  19.911  0.00  0.00    +0.000 A 
ATOM      6  C   UNL     1       0.590   8.104  20.897  0.00  0.00    +0.000 A 
ATOM      7  C   UNL     1       1.007   6.780  21.055  0.00  0.00    +0.000 A 
ATOM      8  C   UNL     1       2.000   6.294  20.216  0.00  0.00    +0.000 A 
ATOM      9  C   UNL     1       2.631   4.981  20.185  0.00  0.00    +0.000 A 
ATOM     10  C   UNL     1       2.379   3.864  20.970  0.00  0.00    +0.000 A 
ATOM     11  C   UNL     1       3.155   2.720  20.774  0.00  0.00    +0.000 A 
ATOM     12  C   UNL     1       4.174   2.704  19.812  0.00  0.00    +0.000 A 
ATOM     13  C   UNL     1       4.420   3.825  19.012  0.00  0.00    +0.000 A 
ATOM     14  C   UNL     1       3.636   4.956  19.187  0.00  0.00    +0.000 A 
ENDROOT
BRANCH   1  15
ATOM     15  C   UNL     1       5.238   5.937  16.685  0.00  0.00    +0.000 A 
ATOM     16  C   UNL     1       4.801   5.085  15.671  0.00  0.00    +0.000 A 
ATOM     17  C   UNL     1       5.721   4.272  15.012  0.00  0.00    +0.000 A 
ATOM     18  C   UNL     1       7.052   4.348  15.389  0.00  0.00    +0.000 A 
ATOM     19  N   UNL     1       7.515   5.175  16.351  0.00  0.00    +0.000 NA
ATOM     20  C   UNL     1       6.599   5.953  16.975  0.00  0.00    +0.000 A 
ENDBRANCH   1  15
TORSDOF 1
ENDMDL
MODEL 6
REMARK VINA RESULT:      -7.7      2.730      6.141
REMARK  Name = 
REMARK  1 active torsions:
REMARK  status: ('A' for Active; 'I' for Inactive)
REMARK    1  A    between atoms: C_1  and  C_15
REMARK                            x       y       z     vdW  Elec       q    Type
REMARK                         _______ _______ _______ _____ _____    ______ ____
ROOT
ATOM      1  C   UNL     1       3.650   3.353  16.372  0.00  0.00    +0.000 C 
ATOM      2  C   UNL     1       4.843   3.966  16.274  0.00  0.00    +0.000 C 
ATOM      3  C   UNL     1       5.564   4.120  14.980  0.00  0.00    +0.000 A 
ATOM      4  C   UNL     1       5.310   3.657  13.699  0.00  0.00    +0.000 A 
ATOM      5  C   UNL     1       6.215   3.981  12.684  0.00  0.00    +0.000 A 
ATOM      6  C   UNL     1       7.354   4.756  12.956  0.00  0.00    +0.000 A 
ATOM      7  C   UNL     1       7.608   5.224  14.248  0.00  0.00    +0.000 A 
ATOM      8  C   UNL     1       6.710   4.903  15.258  0.00  0.00    +0.000 A 
ATOM      9  C   UNL     1       6.750   5.232  16.676  0.00  0.00    +0.000 A 
ATOM     10  C   UNL     1       7.683   5.978  17.382  0.00  0.00    +0.000 A 
ATOM     11  C   UNL     1       7.523   6.120  18.762  0.00  0.00    +0.000 A 
ATOM     12  C   UNL     1       6.446   5.511  19.420  0.00  0.00    +0.000 A 
ATOM     13  C   UNL     1       5.498   4.769  18.709  0.00  0.00    +0.000 A 
ATOM     14  C   UNL     1       5.640   4.646  17.335  0.00  0.00    +0.000 A 
ENDROOT
BRANCH   1  15
ATOM     15  C   UNL     1       2.859   3.239  17.596  0.00  0.00    +0.000 A 
ATOM     16  C   UNL     1       2.886   2.069  18.356  0.00  0.00    +0.000 A 
ATOM     17  C   UNL     1       2.055   1.950  19.467  0.00  0.00    +0.000 A 
ATOM     18  C   UNL     1       1.227   3.015  19.784  0.00  0.00    +0.000 A 
ATOM     19  N   UNL     1       1.188   4.171  19.087  0.00  0.00    +0.000 NA
ATOM     20  C   UNL     1       2.006   4.259  18.011  0.00  0.00    +0.000 A 
ENDBRANCH   1  15
TORSDOF 1
ENDMDL
MODEL 7
REMARK VINA RESULT:      -7.7      1.233      3.958
REMARK  Name = 
REMARK  1 active torsions:
REMARK  status: ('A' for Active; 'I' for Inactive)
REMARK    1  A    between atoms: C_1  and  C_15
REMARK                            x       y       z     vdW  Elec       q    Type
REMARK                         _______ _______ _______ _____ _____    ______ ____
ROOT
ATOM      1  C   UNL     1       4.450   7.158  16.870  0.00  0.00    +0.000 C 
ATOM      2  C   UNL     1       3.621   7.052  17.923  0.00  0.00    +0.000 C 
ATOM      3  C   UNL     1       2.662   8.127  18.304  0.00  0.00    +0.000 A 
ATOM      4  C   UNL     1       2.443   9.407  17.820  0.00  0.00    +0.000 A 
ATOM      5  C   UNL     1       1.446  10.182  18.421  0.00  0.00    +0.000 A 
ATOM      6  C   UNL     1       0.686   9.675  19.488  0.00  0.00    +0.000 A 
ATOM      7  C   UNL     1       0.908   8.383  19.972  0.00  0.00    +0.000 A 
ATOM      8  C   UNL     1       1.898   7.612  19.377  0.00  0.00    +0.000 A 
ATOM      9  C   UNL     1       2.348   6.266  19.701  0.00  0.00    +0.000 A 
ATOM     10  C   UNL     1       1.882   5.391  20.672  0.00  0.00    +0.000 A 
ATOM     11  C   UNL     1       2.513   4.153  20.817  0.00  0.00    +0.000 A 
ATOM     12  C   UNL     1       3.601   3.808  20.004  0.00  0.00    +0.000 A 
ATOM     13  C   UNL     1       4.063   4.684  19.016  0.00  0.00    +0.000 A 
ATOM     14  C   UNL     1       3.424   5.904  18.853  0.00  0.00    +0.000 A 
ENDROOT
BRANCH   1  15
ATOM     15  C   UNL     1       5.356   6.110  16.401  0.00  0.00    +0.000 A 
ATOM     16  C   UNL     1       4.905   5.114  15.534  0.00  0.00    +0.000 A 
ATOM     17  C   UNL     1       5.761   4.076  15.174  0.00  0.00    +0.000 A 
ATOM     18  C   UNL     1       7.046   4.076  15.692  0.00  0.00    +0.000 A 
ATOM     19  N   UNL     1       7.525   5.033  16.517  0.00  0.00    +0.000 NA
ATOM     20  C   UNL     1       6.671   6.030  16.850  0.00  0.00    +0.000 A 
ENDBRANCH   1  15
TORSDOF 1
ENDMDL
MODEL 8
REMARK VINA RESULT:      -7.6      2.651      6.246
REMARK  Name = 
REMARK  1 active torsions:
REMARK  status: ('A' for Active; 'I' for Inactive)
REMARK    1  A    between atoms: C_1  and  C_15
REMARK                            x       y       z     vdW  Elec       q    Type
REMARK                         _______ _______ _______ _____ _____    ______ ____
ROOT
ATOM      1  C   UNL     1       2.799   7.752  18.282  0.00  0.00    +0.000 C 
ATOM      2  C   UNL     1       3.000   6.430  18.144  0.00  0.00    +0.000 C 
ATOM      3  C   UNL     1       4.029   5.864  17.226  0.00  0.00    +0.000 A 
ATOM      4  C   UNL     1       4.885   6.441  16.302  0.00  0.00    +0.000 A 
ATOM      5  C   UNL     1       5.741   5.606  15.579  0.00  0.00    +0.000 A 
ATOM      6  C   UNL     1       5.733   4.216  15.783  0.00  0.00    +0.000 A 
ATOM      7  C   UNL     1       4.870   3.637  16.717  0.00  0.00    +0.000 A 
ATOM      8  C   UNL     1       4.019   4.465  17.436  0.00  0.00    +0.000 A 
ATOM      9  C   UNL     1       3.014   4.124  18.434  0.00  0.00    +0.000 A 
ATOM     10  C   UNL     1       2.667   2.882  18.946  0.00  0.00    +0.000 A 
ATOM     11  C   UNL     1       1.629   2.808  19.877  0.00  0.00    +0.000 A 
ATOM     12  C   UNL     1       0.945   3.964  20.277  0.00  0.00    +0.000 A 
ATOM     13  C   UNL     1       1.302   5.218  19.770  0.00  0.00    +0.000 A 
ATOM     14  C   UNL     1       2.348   5.299  18.864  0.00  0.00    +0.000 A 
ENDROOT
BRANCH   1  15
ATOM     15  C   UNL     1       1.862   8.369  19.220  0.00  0.00    +0.000 A 
ATOM     16  C   UNL     1       1.848   7.993  20.564  0.00  0.00    +0.000 A 
ATOM     17  C   UNL     1       0.886   8.527  21.418  0.00  0.00    +0.000 A 
ATOM     18  C   UNL     1      -0.027   9.429  20.896  0.00  0.00    +0.000 A 
ATOM     19  N   UNL     1      -0.032   9.833  19.607  0.00  0.00    +0.000 NA
ATOM     20  C   UNL     1       0.914   9.297  18.799  0.00  0.00    +0.000 A 
ENDBRANCH   1  15
TORSDOF 1
ENDMDL
MODEL 9
REMARK VINA RESULT:      -7.6      0.842      1.217
REMARK  Name = 
REMARK  1 active torsions:
REMARK  status: ('A' for Active; 'I' for Inactive)
REMARK    1  A    between atoms: C_1  and  C_15
REMARK                            x       y       z     vdW  Elec       q    Type
REMARK                         _______ _______ _______ _____ _____    ______ ____
ROOT
ATOM      1  C   UNL     1       4.631   3.439  17.257  0.00  0.00    +0.000 C 
ATOM      2  C   UNL     1       3.764   4.198  17.950  0.00  0.00    +0.000 C 
ATOM      3  C   UNL     1       2.900   3.648  19.033  0.00  0.00    +0.000 A 
ATOM      4  C   UNL     1       2.689   2.363  19.507  0.00  0.00    +0.000 A 
ATOM      5  C   UNL     1       1.782   2.184  20.556  0.00  0.00    +0.000 A 
ATOM      6  C   UNL     1       1.102   3.279  21.114  0.00  0.00    +0.000 A 
ATOM      7  C   UNL     1       1.318   4.574  20.635  0.00  0.00    +0.000 A 
ATOM      8  C   UNL     1       2.218   4.754  19.593  0.00  0.00    +0.000 A 
ATOM      9  C   UNL     1       2.601   5.973  18.896  0.00  0.00    +0.000 A 
ATOM     10  C   UNL     1       2.185   7.280  19.113  0.00  0.00    +0.000 A 
ATOM     11  C   UNL     1       2.671   8.286  18.275  0.00  0.00    +0.000 A 
ATOM     12  C   UNL     1       3.552   7.978  17.229  0.00  0.00    +0.000 A 
ATOM     13  C   UNL     1       3.981   6.664  17.017  0.00  0.00    +0.000 A 
ATOM     14  C   UNL     1       3.520   5.666  17.862  0.00  0.00    +0.000 A 
ENDROOT
BRANCH   1  15
ATOM     15  C   UNL     1       5.557   3.934  16.239  0.00  0.00    +0.000 A 
ATOM     16  C   UNL     1       6.773   4.512  16.604  0.00  0.00    +0.000 A 
ATOM     17  C   UNL     1       7.598   5.057  15.623  0.00  0.00    +0.000 A 
ATOM     18  C   UNL     1       7.176   4.998  14.304  0.00  0.00    +0.000 A 
ATOM     19  N   UNL     1       6.016   4.428  13.910  0.00  0.00    +0.000 NA
ATOM     20  C   UNL     1       5.235   3.906  14.885  0.00  0.00    +0.000 A 
ENDBRANCH   1  15
TORSDOF 1
ENDMDL
