MODEL 1
REMARK VINA RESULT:      -8.5      0.000      0.000
REMARK  Name = 
REMARK  7 active torsions:
REMARK  status: ('A' for Active; 'I' for Inactive)
REMARK    1  A    between atoms: C_1  and  C_2
REMARK    2  A    between atoms: C_2  and  C_3
REMARK    3  A    between atoms: C_2  and  N_4
REMARK    4  A    between atoms: C_8  and  C_9
REMARK    5  A    between atoms: C_15  and  C_16
REMARK    6  A    between atoms: C_19  and  C_20
REMARK    7  A    between atoms: N_22  and  C_23
REMARK                            x       y       z     vdW  Elec       q    Type
REMARK                         _______ _______ _______ _____ _____    ______ ____
ROOT
ATOM      1  C   UNL     1       2.171   7.108  19.629  0.00  0.00    +0.000 A 
ATOM      2  C   UNL     1       1.572   6.515  20.749  0.00  0.00    +0.000 A 
ATOM      3  C   UNL     1       1.886   5.212  21.156  0.00  0.00    +0.000 A 
ATOM      4  C   UNL     1       2.821   4.507  20.393  0.00  0.00    +0.000 A 
ATOM      5  N   UNL     1       3.272   3.212  20.517  0.00  0.00    +0.000 N 
ATOM      6  C   UNL     1       4.181   2.929  19.532  0.00  0.00    +0.000 A 
ATOM      7  C   UNL     1       4.364   4.074  18.784  0.00  0.00    +0.000 A 
ATOM      8  C   UNL     1       3.477   5.068  19.296  0.00  0.00    +0.000 A 
ATOM      9  C   UNL     1       3.150   6.390  18.923  0.00  0.00    +0.000 A 
ATOM     10  H   UNL     1       2.956   2.560  21.223  0.00  0.00    +0.000 HD
ENDROOT
BRANCH   1  15
ATOM     11  N   UNL     1      -0.053  11.215  19.929  0.00  0.00    +0.000 N 
ATOM     12  C   UNL     1       0.765  10.313  19.352  0.00  0.00    +0.000 A 
ATOM     13  N   UNL     1       1.397  10.319  18.200  0.00  0.00    +0.000 NA
ATOM     14  N   UNL     1       2.039   9.101  18.098  0.00  0.00    +0.000 NA
ATOM     15  C   UNL     1       1.749   8.435  19.198  0.00  0.00    +0.000 A 
ATOM     16  O   UNL     1       0.946   9.154  20.048  0.00  0.00    +0.000 OA
ATOM     17  H   UNL     1      -0.571  10.846  20.720  0.00  0.00    +0.000 HD
BRANCH  11  19
ATOM     18  C   UNL     1      -2.077  11.396  18.594  0.00  0.00    +0.000 C 
ATOM     19  C   UNL     1      -0.807  12.111  19.059  0.00  0.00    +0.000 C 
ATOM     20  C   UNL     1      -1.175  13.400  19.788  0.00  0.00    +0.000 C 
ENDBRANCH  11  19
ENDBRANCH   1  15
BRANCH   7  21
ATOM     21  C   UNL     1       5.313   4.224  17.632  0.00  0.00    +0.000 A 
ATOM     22  N   UNL     1       6.583   4.528  17.807  0.00  0.00    +0.000 NA
ATOM     23  C   UNL     1       7.227   4.591  16.584  0.00  0.00    +0.000 A 
ATOM     24  C   UNL     1       6.434   4.355  15.480  0.00  0.00    +0.000 A 
ATOM     25  S   UNL     1       4.840   4.000  15.996  0.00  0.00    +0.000 S 
BRANCH  24  26
ATOM     26  C   UNL     1       6.823   4.386  14.084  0.00  0.00    +0.000 C 
ATOM     27  O   UNL     1       7.569   5.247  13.623  0.00  0.00    +0.000 OA
ATOM     28  N   UNL     1       6.290   3.371  13.308  0.00  0.00    +0.000 N 
ATOM     29  H   UNL     1       5.667   2.711  13.752  0.00  0.00    +0.000 HD
BRANCH  28  30
ATOM     30  C   UNL     1       6.545   3.240  11.911  0.00  0.00    +0.000 C 
ATOM     31  C   UNL     1       7.396   2.116  11.391  0.00  0.00    +0.000 C 
ATOM     32  C   UNL     1       5.919   2.119  11.125  0.00  0.00    +0.000 C 
ENDBRANCH  28  30
ENDBRANCH  24  26
ENDBRANCH   7  21
TORSDOF 5
ENDMDL
MODEL 2
REMARK VINA RESULT:      -7.8      1.174      1.515
REMARK  Name = 
REMARK  7 active torsions:
REMARK  status: ('A' for Active; 'I' for Inactive)
REMARK    1  A    between atoms: C_1  and  C_2
REMARK    2  A    between atoms: C_2  and  C_3
REMARK    3  A    between atoms: C_2  and  N_4
REMARK    4  A    between atoms: C_8  and  C_9
REMARK    5  A    between atoms: C_15  and  C_16
REMARK    6  A    between atoms: C_19  and  C_20
REMARK    7  A    between atoms: N_22  and  C_23
REMARK                            x       y       z     vdW  Elec       q    Type
REMARK                         _______ _______ _______ _____ _____    ______ ____
ROOT
ATOM      1  C   UNL     1       2.097   6.524  20.212  0.00  0.00    +0.000 A 
ATOM      2  C   UNL     1       1.593   5.693  21.222  0.00  0.00    +0.000 A 
ATOM      3  C   UNL     1       1.971   4.348  21.335  0.00  0.00    +0.000 A 
ATOM      4  C   UNL     1       2.871   3.851  20.389  0.00  0.00    +0.000 A 
ATOM      5  N   UNL     1       3.366   2.577  20.219  0.00  0.00    +0.000 N 
ATOM      6  C   UNL     1       4.214   2.537  19.144  0.00  0.00    +0.000 A 
ATOM      7  C   UNL     1       4.313   3.816  18.635  0.00  0.00    +0.000 A 
ATOM      8  C   UNL     1       3.435   4.648  19.392  0.00  0.00    +0.000 A 
ATOM      9  C   UNL     1       3.046   6.004  19.317  0.00  0.00    +0.000 A 
ATOM     10  H   UNL     1       3.117   1.784  20.796  0.00  0.00    +0.000 HD
ENDROOT
BRANCH   1  15
ATOM     11  N   UNL     1       1.597  10.741  18.247  0.00  0.00    +0.000 N 
ATOM     12  C   UNL     1       1.356   9.795  19.176  0.00  0.00    +0.000 A 
ATOM     13  N   UNL     1       0.655   9.820  20.286  0.00  0.00    +0.000 NA
ATOM     14  N   UNL     1       0.814   8.583  20.880  0.00  0.00    +0.000 NA
ATOM     15  C   UNL     1       1.609   7.892  20.087  0.00  0.00    +0.000 A 
ATOM     16  O   UNL     1       1.987   8.602  18.976  0.00  0.00    +0.000 OA
ATOM     17  H   UNL     1       2.355  10.507  17.615  0.00  0.00    +0.000 HD
BRANCH  11  19
ATOM     18  C   UNL     1       2.683  12.900  17.976  0.00  0.00    +0.000 C 
ATOM     19  C   UNL     1       1.550  12.139  18.666  0.00  0.00    +0.000 C 
ATOM     20  C   UNL     1       0.207  12.771  18.309  0.00  0.00    +0.000 C 
ENDBRANCH  11  19
ENDBRANCH   1  15
BRANCH   7  21
ATOM     21  C   UNL     1       5.177   4.234  17.483  0.00  0.00    +0.000 A 
ATOM     22  N   UNL     1       6.087   5.179  17.597  0.00  0.00    +0.000 NA
ATOM     23  C   UNL     1       6.743   5.354  16.391  0.00  0.00    +0.000 A 
ATOM     24  C   UNL     1       6.310   4.551  15.356  0.00  0.00    +0.000 A 
ATOM     25  S   UNL     1       5.070   3.515  15.926  0.00  0.00    +0.000 S 
BRANCH  24  26
ATOM     26  C   UNL     1       6.783   4.536  13.986  0.00  0.00    +0.000 C 
ATOM     27  O   UNL     1       7.549   5.387  13.541  0.00  0.00    +0.000 OA
ATOM     28  N   UNL     1       6.305   3.489  13.216  0.00  0.00    +0.000 N 
ATOM     29  H   UNL     1       5.662   2.839  13.645  0.00  0.00    +0.000 HD
BRANCH  28  30
ATOM     30  C   UNL     1       6.647   3.311  11.843  0.00  0.00    +0.000 C 
ATOM     31  C   UNL     1       7.485   2.141  11.409  0.00  0.00    +0.000 C 
ATOM     32  C   UNL     1       6.030   2.193  11.046  0.00  0.00    +0.000 C 
ENDBRANCH  28  30
ENDBRANCH  24  26
ENDBRANCH   7  21
TORSDOF 5
ENDMDL
MODEL 3
REMARK VINA RESULT:      -7.6      2.254      9.193
REMARK  Name = 
REMARK  7 active torsions:
REMARK  status: ('A' for Active; 'I' for Inactive)
REMARK    1  A    between atoms: C_1  and  C_2
REMARK    2  A    between atoms: C_2  and  C_3
REMARK    3  A    between atoms: C_2  and  N_4
REMARK    4  A    between atoms: C_8  and  C_9
REMARK    5  A    between atoms: C_15  and  C_16
REMARK    6  A    between atoms: C_19  and  C_20
REMARK    7  A    between atoms: N_22  and  C_23
REMARK                            x       y       z     vdW  Elec       q    Type
REMARK                         _______ _______ _______ _____ _____    ______ ____
ROOT
ATOM      1  C   UNL     1       4.471   4.412  17.764  0.00  0.00    +0.000 A 
ATOM      2  C   UNL     1       4.390   3.315  18.633  0.00  0.00    +0.000 A 
ATOM      3  C   UNL     1       3.636   3.357  19.814  0.00  0.00    +0.000 A 
ATOM      4  C   UNL     1       2.966   4.547  20.108  0.00  0.00    +0.000 A 
ATOM      5  N   UNL     1       2.213   4.892  21.207  0.00  0.00    +0.000 N 
ATOM      6  C   UNL     1       1.757   6.178  21.086  0.00  0.00    +0.000 A 
ATOM      7  C   UNL     1       2.179   6.663  19.864  0.00  0.00    +0.000 A 
ATOM      8  C   UNL     1       2.979   5.651  19.255  0.00  0.00    +0.000 A 
ATOM      9  C   UNL     1       3.734   5.570  18.064  0.00  0.00    +0.000 A 
ATOM     10  H   UNL     1       2.042   4.286  21.999  0.00  0.00    +0.000 HD
ENDROOT
BRANCH   1  15
ATOM     11  N   UNL     1       5.524   3.952  13.228  0.00  0.00    +0.000 N 
ATOM     12  C   UNL     1       5.807   4.172  14.527  0.00  0.00    +0.000 A 
ATOM     13  N   UNL     1       6.948   4.341  15.155  0.00  0.00    +0.000 NA
ATOM     14  N   UNL     1       6.645   4.458  16.497  0.00  0.00    +0.000 NA
ATOM     15  C   UNL     1       5.334   4.347  16.592  0.00  0.00    +0.000 A 
ATOM     16  O   UNL     1       4.735   4.170  15.370  0.00  0.00    +0.000 OA
ATOM     17  H   UNL     1       4.573   3.637  13.067  0.00  0.00    +0.000 HD
BRANCH  11  19
ATOM     18  C   UNL     1       5.862   2.256  11.518  0.00  0.00    +0.000 C 
ATOM     19  C   UNL     1       6.540   3.301  12.407  0.00  0.00    +0.000 C 
ATOM     20  C   UNL     1       7.278   4.319  11.541  0.00  0.00    +0.000 C 
ENDBRANCH  11  19
ENDBRANCH   1  15
BRANCH   7  21
ATOM     21  C   UNL     1       1.861   8.017  19.304  0.00  0.00    +0.000 A 
ATOM     22  N   UNL     1       2.212   8.370  18.084  0.00  0.00    +0.000 NA
ATOM     23  C   UNL     1       1.785   9.660  17.823  0.00  0.00    +0.000 A 
ATOM     24  C   UNL     1       1.128  10.291  18.859  0.00  0.00    +0.000 A 
ATOM     25  S   UNL     1       1.003   9.216  20.187  0.00  0.00    +0.000 S 
BRANCH  24  26
ATOM     26  C   UNL     1       0.602  11.642  18.886  0.00  0.00    +0.000 C 
ATOM     27  O   UNL     1      -0.549  11.898  19.230  0.00  0.00    +0.000 OA
ATOM     28  N   UNL     1       1.496  12.623  18.491  0.00  0.00    +0.000 N 
ATOM     29  H   UNL     1       2.419  12.334  18.201  0.00  0.00    +0.000 HD
BRANCH  28  30
ATOM     30  C   UNL     1       1.162  14.008  18.438  0.00  0.00    +0.000 C 
ATOM     31  C   UNL     1       1.284  14.871  19.662  0.00  0.00    +0.000 C 
ATOM     32  C   UNL     1       2.242  15.054  18.521  0.00  0.00    +0.000 C 
ENDBRANCH  28  30
ENDBRANCH  24  26
ENDBRANCH   7  21
TORSDOF 5
ENDMDL
MODEL 4
REMARK VINA RESULT:      -7.5      2.023      9.389
REMARK  Name = 
REMARK  7 active torsions:
REMARK  status: ('A' for Active; 'I' for Inactive)
REMARK    1  A    between atoms: C_1  and  C_2
REMARK    2  A    between atoms: C_2  and  C_3
REMARK    3  A    between atoms: C_2  and  N_4
REMARK    4  A    between atoms: C_8  and  C_9
REMARK    5  A    between atoms: C_15  and  C_16
REMARK    6  A    between atoms: C_19  and  C_20
REMARK    7  A    between atoms: N_22  and  C_23
REMARK                            x       y       z     vdW  Elec       q    Type
REMARK                         _______ _______ _______ _____ _____    ______ ____
ROOT
ATOM      1  C   UNL     1       4.496   4.406  17.767  0.00  0.00    +0.000 A 
ATOM      2  C   UNL     1       4.424   3.305  18.632  0.00  0.00    +0.000 A 
ATOM      3  C   UNL     1       3.675   3.339  19.816  0.00  0.00    +0.000 A 
ATOM      4  C   UNL     1       3.001   4.525  20.118  0.00  0.00    +0.000 A 
ATOM      5  N   UNL     1       2.251   4.863  21.222  0.00  0.00    +0.000 N 
ATOM      6  C   UNL     1       1.789   6.147  21.108  0.00  0.00    +0.000 A 
ATOM      7  C   UNL     1       2.204   6.638  19.887  0.00  0.00    +0.000 A 
ATOM      8  C   UNL     1       3.006   5.633  19.270  0.00  0.00    +0.000 A 
ATOM      9  C   UNL     1       3.756   5.560  18.075  0.00  0.00    +0.000 A 
ATOM     10  H   UNL     1       2.086   4.252  22.012  0.00  0.00    +0.000 HD
ENDROOT
BRANCH   1  15
ATOM     11  N   UNL     1       5.533   3.965  13.226  0.00  0.00    +0.000 N 
ATOM     12  C   UNL     1       5.820   4.183  14.524  0.00  0.00    +0.000 A 
ATOM     13  N   UNL     1       6.962   4.358  15.148  0.00  0.00    +0.000 NA
ATOM     14  N   UNL     1       6.664   4.470  16.491  0.00  0.00    +0.000 NA
ATOM     15  C   UNL     1       5.355   4.350  16.591  0.00  0.00    +0.000 A 
ATOM     16  O   UNL     1       4.751   4.172  15.371  0.00  0.00    +0.000 OA
ATOM     17  H   UNL     1       4.583   3.644  13.067  0.00  0.00    +0.000 HD
BRANCH  11  19
ATOM     18  C   UNL     1       5.873   2.282  11.503  0.00  0.00    +0.000 C 
ATOM     19  C   UNL     1       6.548   3.322  12.398  0.00  0.00    +0.000 C 
ATOM     20  C   UNL     1       7.282   4.349  11.538  0.00  0.00    +0.000 C 
ENDBRANCH  11  19
ENDBRANCH   1  15
BRANCH   7  21
ATOM     21  C   UNL     1       1.877   7.993  19.333  0.00  0.00    +0.000 A 
ATOM     22  N   UNL     1       2.221   8.353  18.113  0.00  0.00    +0.000 NA
ATOM     23  C   UNL     1       1.787   9.642  17.859  0.00  0.00    +0.000 A 
ATOM     24  C   UNL     1       1.132  10.266  18.900  0.00  0.00    +0.000 A 
ATOM     25  S   UNL     1       1.018   9.185  20.224  0.00  0.00    +0.000 S 
BRANCH  24  26
ATOM     26  C   UNL     1       0.600  11.614  18.935  0.00  0.00    +0.000 C 
ATOM     27  O   UNL     1       1.220  12.581  18.499  0.00  0.00    +0.000 OA
ATOM     28  N   UNL     1      -0.660  11.729  19.497  0.00  0.00    +0.000 N 
ATOM     29  H   UNL     1      -1.099  10.892  19.853  0.00  0.00    +0.000 HD
BRANCH  28  30
ATOM     30  C   UNL     1      -1.344  12.973  19.632  0.00  0.00    +0.000 C 
ATOM     31  C   UNL     1      -2.712  13.031  20.249  0.00  0.00    +0.000 C 
ATOM     32  C   UNL     1      -1.535  13.592  20.991  0.00  0.00    +0.000 C 
ENDBRANCH  28  30
ENDBRANCH  24  26
ENDBRANCH   7  21
TORSDOF 5
ENDMDL
MODEL 5
REMARK VINA RESULT:      -7.5      2.418      3.271
REMARK  Name = 
REMARK  7 active torsions:
REMARK  status: ('A' for Active; 'I' for Inactive)
REMARK    1  A    between atoms: C_1  and  C_2
REMARK    2  A    between atoms: C_2  and  C_3
REMARK    3  A    between atoms: C_2  and  N_4
REMARK    4  A    between atoms: C_8  and  C_9
REMARK    5  A    between atoms: C_15  and  C_16
REMARK    6  A    between atoms: C_19  and  C_20
REMARK    7  A    between atoms: N_22  and  C_23
REMARK                            x       y       z     vdW  Elec       q    Type
REMARK                         _______ _______ _______ _____ _____    ______ ____
ROOT
ATOM      1  C   UNL     1       1.231   9.928  19.698  0.00  0.00    +0.000 A 
ATOM      2  C   UNL     1       0.533   9.581  20.864  0.00  0.00    +0.000 A 
ATOM      3  C   UNL     1       0.590   8.291  21.407  0.00  0.00    +0.000 A 
ATOM      4  C   UNL     1       1.366   7.343  20.735  0.00  0.00    +0.000 A 
ATOM      5  N   UNL     1       1.556   6.005  20.998  0.00  0.00    +0.000 N 
ATOM      6  C   UNL     1       2.388   5.450  20.062  0.00  0.00    +0.000 A 
ATOM      7  C   UNL     1       2.787   6.455  19.203  0.00  0.00    +0.000 A 
ATOM      8  C   UNL     1       2.113   7.649  19.597  0.00  0.00    +0.000 A 
ATOM      9  C   UNL     1       2.048   8.964  19.085  0.00  0.00    +0.000 A 
ATOM     10  H   UNL     1       1.123   5.504  21.762  0.00  0.00    +0.000 HD
ENDROOT
BRANCH   1  15
ATOM     11  N   UNL     1       2.599  14.135  18.175  0.00  0.00    +0.000 N 
ATOM     12  C   UNL     1       1.701  13.157  18.405  0.00  0.00    +0.000 A 
ATOM     13  N   UNL     1       0.399  13.110  18.239  0.00  0.00    +0.000 NA
ATOM     14  N   UNL     1      -0.012  11.877  18.705  0.00  0.00    +0.000 NA
ATOM     15  C   UNL     1       1.073  11.259  19.127  0.00  0.00    +0.000 A 
ATOM     16  O   UNL     1       2.205  12.016  18.957  0.00  0.00    +0.000 OA
ATOM     17  H   UNL     1       3.502  13.968  18.605  0.00  0.00    +0.000 HD
BRANCH  11  19
ATOM     18  C   UNL     1       2.088  15.966  19.692  0.00  0.00    +0.000 C 
ATOM     19  C   UNL     1       2.134  15.518  18.231  0.00  0.00    +0.000 C 
ATOM     20  C   UNL     1       3.056  16.437  17.434  0.00  0.00    +0.000 C 
ENDBRANCH  11  19
ENDBRANCH   1  15
BRANCH   7  21
ATOM     21  C   UNL     1       3.741   6.297  18.057  0.00  0.00    +0.000 A 
ATOM     22  N   UNL     1       4.022   7.290  17.237  0.00  0.00    +0.000 NA
ATOM     23  C   UNL     1       4.934   6.874  16.284  0.00  0.00    +0.000 A 
ATOM     24  C   UNL     1       5.326   5.554  16.370  0.00  0.00    +0.000 A 
ATOM     25  S   UNL     1       4.559   4.825  17.718  0.00  0.00    +0.000 S 
BRANCH  24  26
ATOM     26  C   UNL     1       6.236   4.839  15.497  0.00  0.00    +0.000 C 
ATOM     27  O   UNL     1       7.435   4.725  15.739  0.00  0.00    +0.000 OA
ATOM     28  N   UNL     1       5.650   4.293  14.368  0.00  0.00    +0.000 N 
ATOM     29  H   UNL     1       4.662   4.445  14.225  0.00  0.00    +0.000 HD
BRANCH  28  30
ATOM     30  C   UNL     1       6.381   3.564  13.384  0.00  0.00    +0.000 C 
ATOM     31  C   UNL     1       5.743   3.196  12.074  0.00  0.00    +0.000 C 
ATOM     32  C   UNL     1       6.822   4.238  12.111  0.00  0.00    +0.000 C 
ENDBRANCH  28  30
ENDBRANCH  24  26
ENDBRANCH   7  21
TORSDOF 5
ENDMDL
MODEL 6
REMARK VINA RESULT:      -7.4      4.672     11.691
REMARK  Name = 
REMARK  7 active torsions:
REMARK  status: ('A' for Active; 'I' for Inactive)
REMARK    1  A    between atoms: C_1  and  C_2
REMARK    2  A    between atoms: C_2  and  C_3
REMARK    3  A    between atoms: C_2  and  N_4
REMARK    4  A    between atoms: C_8  and  C_9
REMARK    5  A    between atoms: C_15  and  C_16
REMARK    6  A    between atoms: C_19  and  C_20
REMARK    7  A    between atoms: N_22  and  C_23
REMARK                            x       y       z     vdW  Elec       q    Type
REMARK                         _______ _______ _______ _____ _____    ______ ____
ROOT
ATOM      1  C   UNL     1       1.680   8.500  19.363  0.00  0.00    +0.000 A 
ATOM      2  C   UNL     1       2.329   8.988  18.220  0.00  0.00    +0.000 A 
ATOM      3  C   UNL     1       2.120  10.291  17.748  0.00  0.00    +0.000 A 
ATOM      4  C   UNL     1       1.224  11.096  18.456  0.00  0.00    +0.000 A 
ATOM      5  N   UNL     1       0.784  12.375  18.195  0.00  0.00    +0.000 N 
ATOM      6  C   UNL     1      -0.116  12.771  19.149  0.00  0.00    +0.000 A 
ATOM      7  C   UNL     1      -0.227  11.753  20.074  0.00  0.00    +0.000 A 
ATOM      8  C   UNL     1       0.587  10.672  19.623  0.00  0.00    +0.000 A 
ATOM      9  C   UNL     1       0.833   9.359  20.082  0.00  0.00    +0.000 A 
ATOM     10  H   UNL     1       1.071  12.928  17.399  0.00  0.00    +0.000 HD
ENDROOT
BRANCH   1  15
ATOM     11  N   UNL     1       2.984   4.030  18.889  0.00  0.00    +0.000 N 
ATOM     12  C   UNL     1       2.491   5.090  19.561  0.00  0.00    +0.000 A 
ATOM     13  N   UNL     1       1.977   5.198  20.764  0.00  0.00    +0.000 NA
ATOM     14  N   UNL     1       1.573   6.511  20.902  0.00  0.00    +0.000 NA
ATOM     15  C   UNL     1       1.868   7.111  19.766  0.00  0.00    +0.000 A 
ATOM     16  O   UNL     1       2.465   6.264  18.867  0.00  0.00    +0.000 OA
ATOM     17  H   UNL     1       3.106   4.199  17.896  0.00  0.00    +0.000 HD
BRANCH  11  19
ATOM     18  C   UNL     1       1.046   2.572  18.709  0.00  0.00    +0.000 C 
ATOM     19  C   UNL     1       2.477   2.706  19.234  0.00  0.00    +0.000 C 
ATOM     20  C   UNL     1       3.355   1.611  18.633  0.00  0.00    +0.000 C 
ENDBRANCH  11  19
ENDBRANCH   1  15
BRANCH   7  21
ATOM     21  C   UNL     1      -1.070  11.787  21.314  0.00  0.00    +0.000 A 
ATOM     22  N   UNL     1      -0.798  11.043  22.367  0.00  0.00    +0.000 NA
ATOM     23  C   UNL     1      -1.725  11.279  23.366  0.00  0.00    +0.000 A 
ATOM     24  C   UNL     1      -2.715  12.189  23.058  0.00  0.00    +0.000 A 
ATOM     25  S   UNL     1      -2.448  12.800  21.480  0.00  0.00    +0.000 S 
BRANCH  24  26
ATOM     26  C   UNL     1      -3.828  12.606  23.887  0.00  0.00    +0.000 C 
ATOM     27  O   UNL     1      -3.674  13.156  24.975  0.00  0.00    +0.000 OA
ATOM     28  N   UNL     1      -5.080  12.335  23.362  0.00  0.00    +0.000 N 
ATOM     29  H   UNL     1      -5.129  11.861  22.471  0.00  0.00    +0.000 HD
BRANCH  28  30
ATOM     30  C   UNL     1      -6.295  12.658  24.034  0.00  0.00    +0.000 C 
ATOM     31  C   UNL     1      -7.019  13.939  23.733  0.00  0.00    +0.000 C 
ATOM     32  C   UNL     1      -7.605  12.630  23.292  0.00  0.00    +0.000 C 
ENDBRANCH  28  30
ENDBRANCH  24  26
ENDBRANCH   7  21
TORSDOF 5
ENDMDL
MODEL 7
REMARK VINA RESULT:      -7.3      4.934      8.420
REMARK  Name = 
REMARK  7 active torsions:
REMARK  status: ('A' for Active; 'I' for Inactive)
REMARK    1  A    between atoms: C_1  and  C_2
REMARK    2  A    between atoms: C_2  and  C_3
REMARK    3  A    between atoms: C_2  and  N_4
REMARK    4  A    between atoms: C_8  and  C_9
REMARK    5  A    between atoms: C_15  and  C_16
REMARK    6  A    between atoms: C_19  and  C_20
REMARK    7  A    between atoms: N_22  and  C_23
REMARK                            x       y       z     vdW  Elec       q    Type
REMARK                         _______ _______ _______ _____ _____    ______ ____
ROOT
ATOM      1  C   UNL     1       2.714  14.537  18.843  0.00  0.00    +0.000 A 
ATOM      2  C   UNL     1       1.657  15.458  18.860  0.00  0.00    +0.000 A 
ATOM      3  C   UNL     1       0.318  15.052  18.783  0.00  0.00    +0.000 A 
ATOM      4  C   UNL     1       0.065  13.682  18.677  0.00  0.00    +0.000 A 
ATOM      5  N   UNL     1      -1.126  13.009  18.528  0.00  0.00    +0.000 N 
ATOM      6  C   UNL     1      -0.903  11.660  18.444  0.00  0.00    +0.000 A 
ATOM      7  C   UNL     1       0.453  11.446  18.592  0.00  0.00    +0.000 A 
ATOM      8  C   UNL     1       1.079  12.724  18.700  0.00  0.00    +0.000 A 
ATOM      9  C   UNL     1       2.418  13.165  18.796  0.00  0.00    +0.000 A 
ATOM     10  H   UNL     1      -2.032  13.454  18.466  0.00  0.00    +0.000 HD
ENDROOT
BRANCH   1  15
ATOM     11  N   UNL     1       7.201  14.695  17.524  0.00  0.00    +0.000 N 
ATOM     12  C   UNL     1       6.121  15.106  18.216  0.00  0.00    +0.000 A 
ATOM     13  N   UNL     1       5.976  16.026  19.143  0.00  0.00    +0.000 NA
ATOM     14  N   UNL     1       4.658  15.970  19.549  0.00  0.00    +0.000 NA
ATOM     15  C   UNL     1       4.092  15.014  18.841  0.00  0.00    +0.000 A 
ATOM     16  O   UNL     1       4.967  14.425  17.963  0.00  0.00    +0.000 OA
ATOM     17  H   UNL     1       7.061  13.816  17.036  0.00  0.00    +0.000 HD
BRANCH  11  19
ATOM     18  C   UNL     1       9.339  13.593  17.888  0.00  0.00    +0.000 C 
ATOM     19  C   UNL     1       8.513  14.855  18.143  0.00  0.00    +0.000 C 
ATOM     20  C   UNL     1       9.239  16.074  17.578  0.00  0.00    +0.000 C 
ENDBRANCH  11  19
ENDBRANCH   1  15
BRANCH   7  21
ATOM     21  C   UNL     1       1.130  10.108  18.613  0.00  0.00    +0.000 A 
ATOM     22  N   UNL     1       1.798   9.645  17.576  0.00  0.00    +0.000 NA
ATOM     23  C   UNL     1       2.326   8.400  17.871  0.00  0.00    +0.000 A 
ATOM     24  C   UNL     1       2.036   7.913  19.129  0.00  0.00    +0.000 A 
ATOM     25  S   UNL     1       1.108   9.072  19.983  0.00  0.00    +0.000 S 
BRANCH  24  26
ATOM     26  C   UNL     1       2.423   6.637  19.698  0.00  0.00    +0.000 C 
ATOM     27  O   UNL     1       1.810   6.111  20.624  0.00  0.00    +0.000 OA
ATOM     28  N   UNL     1       3.538   6.055  19.118  0.00  0.00    +0.000 N 
ATOM     29  H   UNL     1       4.002   6.556  18.374  0.00  0.00    +0.000 HD
BRANCH  28  30
ATOM     30  C   UNL     1       4.079   4.807  19.547  0.00  0.00    +0.000 C 
ATOM     31  C   UNL     1       3.672   3.526  18.876  0.00  0.00    +0.000 C 
ATOM     32  C   UNL     1       5.059   4.064  18.678  0.00  0.00    +0.000 C 
ENDBRANCH  28  30
ENDBRANCH  24  26
ENDBRANCH   7  21
TORSDOF 5
ENDMDL
MODEL 8
REMARK VINA RESULT:      -7.3      1.144      1.206
REMARK  Name = 
REMARK  7 active torsions:
REMARK  status: ('A' for Active; 'I' for Inactive)
REMARK    1  A    between atoms: C_1  and  C_2
REMARK    2  A    between atoms: C_2  and  C_3
REMARK    3  A    between atoms: C_2  and  N_4
REMARK    4  A    between atoms: C_8  and  C_9
REMARK    5  A    between atoms: C_15  and  C_16
REMARK    6  A    between atoms: C_19  and  C_20
REMARK    7  A    between atoms: N_22  and  C_23
REMARK                            x       y       z     vdW  Elec       q    Type
REMARK                         _______ _______ _______ _____ _____    ______ ____
ROOT
ATOM      1  C   UNL     1       2.108   6.927  19.869  0.00  0.00    +0.000 A 
ATOM      2  C   UNL     1       1.733   6.152  20.976  0.00  0.00    +0.000 A 
ATOM      3  C   UNL     1       2.104   4.806  21.099  0.00  0.00    +0.000 A 
ATOM      4  C   UNL     1       2.862   4.250  20.065  0.00  0.00    +0.000 A 
ATOM      5  N   UNL     1       3.312   2.961  19.890  0.00  0.00    +0.000 N 
ATOM      6  C   UNL     1       4.007   2.856  18.714  0.00  0.00    +0.000 A 
ATOM      7  C   UNL     1       4.054   4.109  18.138  0.00  0.00    +0.000 A 
ATOM      8  C   UNL     1       3.298   4.991  18.966  0.00  0.00    +0.000 A 
ATOM      9  C   UNL     1       2.921   6.350  18.880  0.00  0.00    +0.000 A 
ATOM     10  H   UNL     1       3.132   2.199  20.531  0.00  0.00    +0.000 HD
ENDROOT
BRANCH   1  15
ATOM     11  N   UNL     1       0.339  11.003  21.338  0.00  0.00    +0.000 N 
ATOM     12  C   UNL     1       0.855  10.159  20.423  0.00  0.00    +0.000 A 
ATOM     13  N   UNL     1       1.038  10.282  19.128  0.00  0.00    +0.000 NA
ATOM     14  N   UNL     1       1.542   9.075  18.686  0.00  0.00    +0.000 NA
ATOM     15  C   UNL     1       1.627   8.298  19.747  0.00  0.00    +0.000 A 
ATOM     16  O   UNL     1       1.212   8.930  20.893  0.00  0.00    +0.000 OA
ATOM     17  H   UNL     1       0.116  10.557  22.222  0.00  0.00    +0.000 HD
BRANCH  11  19
ATOM     18  C   UNL     1      -1.723  12.141  21.944  0.00  0.00    +0.000 C 
ATOM     19  C   UNL     1      -0.630  11.996  20.884  0.00  0.00    +0.000 C 
ATOM     20  C   UNL     1       0.043  13.345  20.644  0.00  0.00    +0.000 C 
ENDBRANCH  11  19
ENDBRANCH   1  15
BRANCH   7  21
ATOM     21  C   UNL     1       4.760   4.458  16.862  0.00  0.00    +0.000 A 
ATOM     22  N   UNL     1       5.068   5.700  16.549  0.00  0.00    +0.000 NA
ATOM     23  C   UNL     1       5.721   5.734  15.329  0.00  0.00    +0.000 A 
ATOM     24  C   UNL     1       5.887   4.513  14.709  0.00  0.00    +0.000 A 
ATOM     25  S   UNL     1       5.242   3.280  15.708  0.00  0.00    +0.000 S 
BRANCH  24  26
ATOM     26  C   UNL     1       6.499   4.247  13.422  0.00  0.00    +0.000 C 
ATOM     27  O   UNL     1       7.402   4.942  12.961  0.00  0.00    +0.000 OA
ATOM     28  N   UNL     1       5.989   3.150  12.750  0.00  0.00    +0.000 N 
ATOM     29  H   UNL     1       5.232   2.638  13.182  0.00  0.00    +0.000 HD
BRANCH  28  30
ATOM     30  C   UNL     1       6.452   2.736  11.466  0.00  0.00    +0.000 C 
ATOM     31  C   UNL     1       7.654   1.843  11.338  0.00  0.00    +0.000 C 
ATOM     32  C   UNL     1       6.289   1.306  11.024  0.00  0.00    +0.000 C 
ENDBRANCH  28  30
ENDBRANCH  24  26
ENDBRANCH   7  21
TORSDOF 5
ENDMDL
MODEL 9
REMARK VINA RESULT:      -7.2      4.731      8.196
REMARK  Name = 
REMARK  7 active torsions:
REMARK  status: ('A' for Active; 'I' for Inactive)
REMARK    1  A    between atoms: C_1  and  C_2
REMARK    2  A    between atoms: C_2  and  C_3
REMARK    3  A    between atoms: C_2  and  N_4
REMARK    4  A    between atoms: C_8  and  C_9
REMARK    5  A    between atoms: C_15  and  C_16
REMARK    6  A    between atoms: C_19  and  C_20
REMARK    7  A    between atoms: N_22  and  C_23
REMARK                            x       y       z     vdW  Elec       q    Type
REMARK                         _______ _______ _______ _____ _____    ______ ____
ROOT
ATOM      1  C   UNL     1       2.428  13.999  18.863  0.00  0.00    +0.000 A 
ATOM      2  C   UNL     1       1.273  14.794  18.904  0.00  0.00    +0.000 A 
ATOM      3  C   UNL     1      -0.012  14.241  18.825  0.00  0.00    +0.000 A 
ATOM      4  C   UNL     1      -0.109  12.853  18.693  0.00  0.00    +0.000 A 
ATOM      5  N   UNL     1      -1.218  12.053  18.536  0.00  0.00    +0.000 N 
ATOM      6  C   UNL     1      -0.844  10.740  18.425  0.00  0.00    +0.000 A 
ATOM      7  C   UNL     1       0.528  10.678  18.561  0.00  0.00    +0.000 A 
ATOM      8  C   UNL     1       1.007  12.016  18.692  0.00  0.00    +0.000 A 
ATOM      9  C   UNL     1       2.288  12.603  18.790  0.00  0.00    +0.000 A 
ATOM     10  H   UNL     1      -2.169  12.394  18.488  0.00  0.00    +0.000 HD
ENDROOT
BRANCH   1  15
ATOM     11  N   UNL     1       6.905  14.592  17.638  0.00  0.00    +0.000 N 
ATOM     12  C   UNL     1       5.766  14.916  18.280  0.00  0.00    +0.000 A 
ATOM     13  N   UNL     1       5.492  15.863  19.148  0.00  0.00    +0.000 NA
ATOM     14  N   UNL     1       4.177  15.681  19.528  0.00  0.00    +0.000 NA
ATOM     15  C   UNL     1       3.742  14.628  18.864  0.00  0.00    +0.000 A 
ATOM     16  O   UNL     1       4.703  14.095  18.041  0.00  0.00    +0.000 OA
ATOM     17  H   UNL     1       6.878  13.678  17.198  0.00  0.00    +0.000 HD
BRANCH  11  19
ATOM     18  C   UNL     1       9.156  13.782  18.073  0.00  0.00    +0.000 C 
ATOM     19  C   UNL     1       8.172  14.935  18.275  0.00  0.00    +0.000 C 
ATOM     20  C   UNL     1       8.750  16.220  17.687  0.00  0.00    +0.000 C 
ENDBRANCH  11  19
ENDBRANCH   1  15
BRANCH   7  21
ATOM     21  C   UNL     1       1.351   9.425  18.553  0.00  0.00    +0.000 A 
ATOM     22  N   UNL     1       2.085   9.076  17.515  0.00  0.00    +0.000 NA
ATOM     23  C   UNL     1       2.746   7.890  17.780  0.00  0.00    +0.000 A 
ATOM     24  C   UNL     1       2.492   7.329  19.015  0.00  0.00    +0.000 A 
ATOM     25  S   UNL     1       1.425   8.345  19.887  0.00  0.00    +0.000 S 
BRANCH  24  26
ATOM     26  C   UNL     1       3.012   6.086  19.549  0.00  0.00    +0.000 C 
ATOM     27  O   UNL     1       4.207   5.802  19.525  0.00  0.00    +0.000 OA
ATOM     28  N   UNL     1       2.057   5.240  20.089  0.00  0.00    +0.000 N 
ATOM     29  H   UNL     1       1.091   5.531  20.054  0.00  0.00    +0.000 HD
BRANCH  28  30
ATOM     30  C   UNL     1       2.370   3.967  20.651  0.00  0.00    +0.000 C 
ATOM     31  C   UNL     1       1.299   3.127  21.286  0.00  0.00    +0.000 C 
ATOM     32  C   UNL     1       1.903   2.704  19.979  0.00  0.00    +0.000 C 
ENDBRANCH  28  30
ENDBRANCH  24  26
ENDBRANCH   7  21
TORSDOF 5
ENDMDL
