MODEL 1
REMARK VINA RESULT:      -8.1      0.000      0.000
REMARK  Name = 
REMARK  3 active torsions:
REMARK  status: ('A' for Active; 'I' for Inactive)
REMARK    1  A    between atoms: C_1  and  C_2
REMARK    2  A    between atoms: N_7  and  S_8
REMARK    3  A    between atoms: S_8  and  C_11
REMARK                            x       y       z     vdW  Elec       q    Type
REMARK                         _______ _______ _______ _____ _____    ______ ____
ROOT
ATOM      1  S   UNL     1       4.168   3.254  18.769  0.00  0.00    +0.000 S 
ATOM      2  O   UNL     1       4.574   2.741  20.064  0.00  0.00    +0.000 OA
ATOM      3  O   UNL     1       3.875   2.325  17.702  0.00  0.00    +0.000 OA
ENDROOT
BRANCH   1   4
ATOM      4  C   UNL     1       5.456   4.381  18.230  0.00  0.00    +0.000 A 
ATOM      5  C   UNL     1       6.129   5.059  19.264  0.00  0.00    +0.000 A 
ATOM      6  C   UNL     1       7.187   5.914  18.983  0.00  0.00    +0.000 A 
ATOM      7  C   UNL     1       7.579   6.107  17.666  0.00  0.00    +0.000 A 
ATOM      8  C   UNL     1       6.940   5.427  16.616  0.00  0.00    +0.000 A 
ATOM      9  C   UNL     1       7.364   5.622  15.299  0.00  0.00    +0.000 A 
ATOM     10  N   UNL     1       6.842   5.006  14.218  0.00  0.00    +0.000 NA
ATOM     11  C   UNL     1       5.851   4.131  14.457  0.00  0.00    +0.000 A 
ATOM     12  C   UNL     1       5.345   3.871  15.724  0.00  0.00    +0.000 A 
ATOM     13  C   UNL     1       5.874   4.527  16.867  0.00  0.00    +0.000 A 
ENDBRANCH   1   4
BRANCH   1  20
ATOM     14  C   UNL     1       1.751   5.904  20.628  0.00  0.00    +0.000 C 
ATOM     15  C   UNL     1       2.602   4.632  20.501  0.00  0.00    +0.000 C 
ATOM     16  C   UNL     1       1.973   3.451  21.281  0.00  0.00    +0.000 C 
ATOM     17  N   UNL     1       0.690   2.977  20.720  0.00  0.00    +0.000 NA
ATOM     18  C   UNL     1       0.842   2.667  19.290  0.00  0.00    +0.000 C 
ATOM     19  C   UNL     1       1.501   3.785  18.449  0.00  0.00    +0.000 C 
ATOM     20  N   UNL     1       2.792   4.264  19.040  0.00  0.00    +0.000 NA
ATOM     21  H   UNL     1      -0.008   3.710  20.831  0.00  0.00    +0.000 HD
ENDBRANCH   1  20
TORSDOF 2
ENDMDL
MODEL 2
REMARK VINA RESULT:      -7.9      1.215      2.429
REMARK  Name = 
REMARK  3 active torsions:
REMARK  status: ('A' for Active; 'I' for Inactive)
REMARK    1  A    between atoms: C_1  and  C_2
REMARK    2  A    between atoms: N_7  and  S_8
REMARK    3  A    between atoms: S_8  and  C_11
REMARK                            x       y       z     vdW  Elec       q    Type
REMARK                         _______ _______ _______ _____ _____    ______ ____
ROOT
ATOM      1  S   UNL     1       3.987   3.034  18.555  0.00  0.00    +0.000 S 
ATOM      2  O   UNL     1       4.762   2.833  19.765  0.00  0.00    +0.000 OA
ATOM      3  O   UNL     1       3.468   1.886  17.850  0.00  0.00    +0.000 OA
ENDROOT
BRANCH   1   4
ATOM      4  C   UNL     1       5.007   4.000  17.439  0.00  0.00    +0.000 A 
ATOM      5  C   UNL     1       4.697   3.860  16.073  0.00  0.00    +0.000 A 
ATOM      6  C   UNL     1       5.372   4.600  15.111  0.00  0.00    +0.000 A 
ATOM      7  C   UNL     1       6.371   5.482  15.503  0.00  0.00    +0.000 A 
ATOM      8  C   UNL     1       6.686   5.657  16.860  0.00  0.00    +0.000 A 
ATOM      9  C   UNL     1       7.682   6.563  17.232  0.00  0.00    +0.000 A 
ATOM     10  N   UNL     1       8.051   6.831  18.503  0.00  0.00    +0.000 NA
ATOM     11  C   UNL     1       7.382   6.172  19.463  0.00  0.00    +0.000 A 
ATOM     12  C   UNL     1       6.383   5.241  19.204  0.00  0.00    +0.000 A 
ATOM     13  C   UNL     1       6.000   4.939  17.871  0.00  0.00    +0.000 A 
ENDBRANCH   1   4
BRANCH   1  20
ATOM     14  C   UNL     1       1.875   5.775  20.642  0.00  0.00    +0.000 C 
ATOM     15  C   UNL     1       2.670   4.478  20.437  0.00  0.00    +0.000 C 
ATOM     16  C   UNL     1       2.105   3.325  21.302  0.00  0.00    +0.000 C 
ATOM     17  N   UNL     1       0.753   2.881  20.900  0.00  0.00    +0.000 NA
ATOM     18  C   UNL     1       0.728   2.550  19.467  0.00  0.00    +0.000 C 
ATOM     19  C   UNL     1       1.316   3.639  18.539  0.00  0.00    +0.000 C 
ATOM     20  N   UNL     1       2.680   4.087  18.969  0.00  0.00    +0.000 NA
ATOM     21  H   UNL     1       0.093   3.636  21.080  0.00  0.00    +0.000 HD
ENDBRANCH   1  20
TORSDOF 2
ENDMDL
MODEL 3
REMARK VINA RESULT:      -7.5      1.645      2.179
REMARK  Name = 
REMARK  3 active torsions:
REMARK  status: ('A' for Active; 'I' for Inactive)
REMARK    1  A    between atoms: C_1  and  C_2
REMARK    2  A    between atoms: N_7  and  S_8
REMARK    3  A    between atoms: S_8  and  C_11
REMARK                            x       y       z     vdW  Elec       q    Type
REMARK                         _______ _______ _______ _____ _____    ______ ____
ROOT
ATOM      1  S   UNL     1       3.211   5.349  18.812  0.00  0.00    +0.000 S 
ATOM      2  O   UNL     1       2.529   6.050  17.741  0.00  0.00    +0.000 OA
ATOM      3  O   UNL     1       3.088   5.837  20.166  0.00  0.00    +0.000 OA
ENDROOT
BRANCH   1   4
ATOM      4  C   UNL     1       4.949   5.283  18.367  0.00  0.00    +0.000 A 
ATOM      5  C   UNL     1       5.847   5.504  19.428  0.00  0.00    +0.000 A 
ATOM      6  C   UNL     1       7.219   5.420  19.227  0.00  0.00    +0.000 A 
ATOM      7  C   UNL     1       7.708   5.121  17.963  0.00  0.00    +0.000 A 
ATOM      8  C   UNL     1       6.834   4.875  16.892  0.00  0.00    +0.000 A 
ATOM      9  C   UNL     1       7.348   4.559  15.631  0.00  0.00    +0.000 A 
ATOM     10  N   UNL     1       6.606   4.279  14.539  0.00  0.00    +0.000 NA
ATOM     11  C   UNL     1       5.274   4.300  14.709  0.00  0.00    +0.000 A 
ATOM     12  C   UNL     1       4.658   4.613  15.914  0.00  0.00    +0.000 A 
ATOM     13  C   UNL     1       5.428   4.926  17.064  0.00  0.00    +0.000 A 
ENDBRANCH   1   4
BRANCH   1  20
ATOM     14  C   UNL     1       0.667   2.213  18.670  0.00  0.00    +0.000 C 
ATOM     15  C   UNL     1       1.256   3.517  19.228  0.00  0.00    +0.000 C 
ATOM     16  C   UNL     1       1.194   3.547  20.776  0.00  0.00    +0.000 C 
ATOM     17  N   UNL     1       2.070   2.552  21.430  0.00  0.00    +0.000 NA
ATOM     18  C   UNL     1       3.449   2.682  20.936  0.00  0.00    +0.000 C 
ATOM     19  C   UNL     1       3.589   2.701  19.396  0.00  0.00    +0.000 C 
ATOM     20  N   UNL     1       2.684   3.704  18.748  0.00  0.00    +0.000 NA
ATOM     21  H   UNL     1       1.724   1.618  21.214  0.00  0.00    +0.000 HD
ENDBRANCH   1  20
TORSDOF 2
ENDMDL
MODEL 4
REMARK VINA RESULT:      -7.4      1.006      1.327
REMARK  Name = 
REMARK  3 active torsions:
REMARK  status: ('A' for Active; 'I' for Inactive)
REMARK    1  A    between atoms: C_1  and  C_2
REMARK    2  A    between atoms: N_7  and  S_8
REMARK    3  A    between atoms: S_8  and  C_11
REMARK                            x       y       z     vdW  Elec       q    Type
REMARK                         _______ _______ _______ _____ _____    ______ ____
ROOT
ATOM      1  S   UNL     1       4.509   2.969  18.957  0.00  0.00    +0.000 S 
ATOM      2  O   UNL     1       5.161   2.323  20.080  0.00  0.00    +0.000 OA
ATOM      3  O   UNL     1       4.079   2.169  17.834  0.00  0.00    +0.000 OA
ENDROOT
BRANCH   1   4
ATOM      4  C   UNL     1       5.624   4.249  18.375  0.00  0.00    +0.000 A 
ATOM      5  C   UNL     1       6.264   4.990  19.388  0.00  0.00    +0.000 A 
ATOM      6  C   UNL     1       7.197   5.969  19.070  0.00  0.00    +0.000 A 
ATOM      7  C   UNL     1       7.495   6.223  17.739  0.00  0.00    +0.000 A 
ATOM      8  C   UNL     1       6.889   5.485  16.710  0.00  0.00    +0.000 A 
ATOM      9  C   UNL     1       7.218   5.746  15.377  0.00  0.00    +0.000 A 
ATOM     10  N   UNL     1       6.718   5.085  14.312  0.00  0.00    +0.000 NA
ATOM     11  C   UNL     1       5.851   4.095  14.584  0.00  0.00    +0.000 A 
ATOM     12  C   UNL     1       5.446   3.760  15.870  0.00  0.00    +0.000 A 
ATOM     13  C   UNL     1       5.951   4.460  16.996  0.00  0.00    +0.000 A 
ENDBRANCH   1   4
BRANCH   1  20
ATOM     14  C   UNL     1       1.138   3.648  21.079  0.00  0.00    +0.000 C 
ATOM     15  C   UNL     1       2.036   2.919  20.070  0.00  0.00    +0.000 C 
ATOM     16  C   UNL     1       1.219   2.388  18.866  0.00  0.00    +0.000 C 
ATOM     17  N   UNL     1       0.656   3.453  18.008  0.00  0.00    +0.000 NA
ATOM     18  C   UNL     1       1.716   4.380  17.583  0.00  0.00    +0.000 C 
ATOM     19  C   UNL     1       2.603   4.922  18.727  0.00  0.00    +0.000 C 
ATOM     20  N   UNL     1       3.154   3.831  19.595  0.00  0.00    +0.000 NA
ATOM     21  H   UNL     1      -0.044   3.967  18.540  0.00  0.00    +0.000 HD
ENDBRANCH   1  20
TORSDOF 2
ENDMDL
MODEL 5
REMARK VINA RESULT:      -7.3      1.820      2.247
REMARK  Name = 
REMARK  3 active torsions:
REMARK  status: ('A' for Active; 'I' for Inactive)
REMARK    1  A    between atoms: C_1  and  C_2
REMARK    2  A    between atoms: N_7  and  S_8
REMARK    3  A    between atoms: S_8  and  C_11
REMARK                            x       y       z     vdW  Elec       q    Type
REMARK                         _______ _______ _______ _____ _____    ______ ____
ROOT
ATOM      1  S   UNL     1       3.255   5.204  18.767  0.00  0.00    +0.000 S 
ATOM      2  O   UNL     1       2.521   4.806  17.581  0.00  0.00    +0.000 OA
ATOM      3  O   UNL     1       2.883   6.419  19.454  0.00  0.00    +0.000 OA
ENDROOT
BRANCH   1   4
ATOM      4  C   UNL     1       4.986   5.299  18.300  0.00  0.00    +0.000 A 
ATOM      5  C   UNL     1       5.872   5.603  19.349  0.00  0.00    +0.000 A 
ATOM      6  C   UNL     1       7.244   5.646  19.132  0.00  0.00    +0.000 A 
ATOM      7  C   UNL     1       7.742   5.392  17.861  0.00  0.00    +0.000 A 
ATOM      8  C   UNL     1       6.882   5.064  16.801  0.00  0.00    +0.000 A 
ATOM      9  C   UNL     1       7.408   4.795  15.534  0.00  0.00    +0.000 A 
ATOM     10  N   UNL     1       6.681   4.447  14.452  0.00  0.00    +0.000 NA
ATOM     11  C   UNL     1       5.355   4.344  14.639  0.00  0.00    +0.000 A 
ATOM     12  C   UNL     1       4.727   4.601  15.851  0.00  0.00    +0.000 A 
ATOM     13  C   UNL     1       5.479   4.986  16.991  0.00  0.00    +0.000 A 
ENDBRANCH   1   4
BRANCH   1  20
ATOM     14  C   UNL     1       4.330   1.779  20.621  0.00  0.00    +0.000 C 
ATOM     15  C   UNL     1       3.992   2.678  19.423  0.00  0.00    +0.000 C 
ATOM     16  C   UNL     1       3.241   1.892  18.320  0.00  0.00    +0.000 C 
ATOM     17  N   UNL     1       1.888   1.449  18.717  0.00  0.00    +0.000 NA
ATOM     18  C   UNL     1       1.099   2.589  19.207  0.00  0.00    +0.000 C 
ATOM     19  C   UNL     1       1.801   3.449  20.284  0.00  0.00    +0.000 C 
ATOM     20  N   UNL     1       3.176   3.878  19.872  0.00  0.00    +0.000 NA
ATOM     21  H   UNL     1       1.973   0.757  19.460  0.00  0.00    +0.000 HD
ENDBRANCH   1  20
TORSDOF 2
ENDMDL
MODEL 6
REMARK VINA RESULT:      -7.2      2.010      5.955
REMARK  Name = 
REMARK  3 active torsions:
REMARK  status: ('A' for Active; 'I' for Inactive)
REMARK    1  A    between atoms: C_1  and  C_2
REMARK    2  A    between atoms: N_7  and  S_8
REMARK    3  A    between atoms: S_8  and  C_11
REMARK                            x       y       z     vdW  Elec       q    Type
REMARK                         _______ _______ _______ _____ _____    ______ ____
ROOT
ATOM      1  S   UNL     1       4.374   4.950  17.163  0.00  0.00    +0.000 S 
ATOM      2  O   UNL     1       4.321   6.159  16.364  0.00  0.00    +0.000 OA
ATOM      3  O   UNL     1       3.939   3.701  16.584  0.00  0.00    +0.000 OA
ENDROOT
BRANCH   1   4
ATOM      4  C   UNL     1       3.426   5.269  18.654  0.00  0.00    +0.000 A 
ATOM      5  C   UNL     1       2.804   6.531  18.707  0.00  0.00    +0.000 A 
ATOM      6  C   UNL     1       1.992   6.878  19.779  0.00  0.00    +0.000 A 
ATOM      7  C   UNL     1       1.799   5.971  20.813  0.00  0.00    +0.000 A 
ATOM      8  C   UNL     1       2.390   4.698  20.774  0.00  0.00    +0.000 A 
ATOM      9  C   UNL     1       2.167   3.795  21.817  0.00  0.00    +0.000 A 
ATOM     10  N   UNL     1       2.662   2.541  21.874  0.00  0.00    +0.000 NA
ATOM     11  C   UNL     1       3.410   2.152  20.829  0.00  0.00    +0.000 A 
ATOM     12  C   UNL     1       3.703   2.972  19.746  0.00  0.00    +0.000 A 
ATOM     13  C   UNL     1       3.204   4.299  19.684  0.00  0.00    +0.000 A 
ENDBRANCH   1   4
BRANCH   1  20
ATOM     14  C   UNL     1       7.708   5.670  19.330  0.00  0.00    +0.000 C 
ATOM     15  C   UNL     1       6.523   6.025  18.421  0.00  0.00    +0.000 C 
ATOM     16  C   UNL     1       6.908   7.117  17.392  0.00  0.00    +0.000 C 
ATOM     17  N   UNL     1       7.897   6.672  16.388  0.00  0.00    +0.000 NA
ATOM     18  C   UNL     1       7.438   5.440  15.729  0.00  0.00    +0.000 C 
ATOM     19  C   UNL     1       6.996   4.314  16.693  0.00  0.00    +0.000 C 
ATOM     20  N   UNL     1       6.005   4.786  17.713  0.00  0.00    +0.000 NA
ATOM     21  H   UNL     1       8.783   6.490  16.857  0.00  0.00    +0.000 HD
ENDBRANCH   1  20
TORSDOF 2
ENDMDL
MODEL 7
REMARK VINA RESULT:      -7.2      2.363      5.728
REMARK  Name = 
REMARK  3 active torsions:
REMARK  status: ('A' for Active; 'I' for Inactive)
REMARK    1  A    between atoms: C_1  and  C_2
REMARK    2  A    between atoms: N_7  and  S_8
REMARK    3  A    between atoms: S_8  and  C_11
REMARK                            x       y       z     vdW  Elec       q    Type
REMARK                         _______ _______ _______ _____ _____    ______ ____
ROOT
ATOM      1  S   UNL     1       4.158   6.448  17.438  0.00  0.00    +0.000 S 
ATOM      2  O   UNL     1       3.668   7.794  17.213  0.00  0.00    +0.000 OA
ATOM      3  O   UNL     1       4.280   5.544  16.318  0.00  0.00    +0.000 OA
ENDROOT
BRANCH   1   4
ATOM      4  C   UNL     1       3.094   5.708  18.679  0.00  0.00    +0.000 A 
ATOM      5  C   UNL     1       2.582   6.603  19.637  0.00  0.00    +0.000 A 
ATOM      6  C   UNL     1       1.697   6.167  20.616  0.00  0.00    +0.000 A 
ATOM      7  C   UNL     1       1.321   4.831  20.651  0.00  0.00    +0.000 A 
ATOM      8  C   UNL     1       1.800   3.921  19.695  0.00  0.00    +0.000 A 
ATOM      9  C   UNL     1       1.394   2.585  19.739  0.00  0.00    +0.000 A 
ATOM     10  N   UNL     1       1.769   1.632  18.860  0.00  0.00    +0.000 NA
ATOM     11  C   UNL     1       2.583   2.029  17.869  0.00  0.00    +0.000 A 
ATOM     12  C   UNL     1       3.057   3.329  17.737  0.00  0.00    +0.000 A 
ATOM     13  C   UNL     1       2.683   4.335  18.666  0.00  0.00    +0.000 A 
ENDBRANCH   1   4
BRANCH   1  20
ATOM     14  C   UNL     1       7.969   7.645  18.049  0.00  0.00    +0.000 C 
ATOM     15  C   UNL     1       6.805   7.017  17.269  0.00  0.00    +0.000 C 
ATOM     16  C   UNL     1       7.278   5.811  16.421  0.00  0.00    +0.000 C 
ATOM     17  N   UNL     1       7.724   4.652  17.223  0.00  0.00    +0.000 NA
ATOM     18  C   UNL     1       6.681   4.266  18.186  0.00  0.00    +0.000 C 
ATOM     19  C   UNL     1       6.127   5.428  19.044  0.00  0.00    +0.000 C 
ATOM     20  N   UNL     1       5.694   6.599  18.217  0.00  0.00    +0.000 NA
ATOM     21  H   UNL     1       8.568   4.909  17.731  0.00  0.00    +0.000 HD
ENDBRANCH   1  20
TORSDOF 2
ENDMDL
MODEL 8
REMARK VINA RESULT:      -7.2      1.307      1.846
REMARK  Name = 
REMARK  3 active torsions:
REMARK  status: ('A' for Active; 'I' for Inactive)
REMARK    1  A    between atoms: C_1  and  C_2
REMARK    2  A    between atoms: N_7  and  S_8
REMARK    3  A    between atoms: S_8  and  C_11
REMARK                            x       y       z     vdW  Elec       q    Type
REMARK                         _______ _______ _______ _____ _____    ______ ____
ROOT
ATOM      1  S   UNL     1       3.199   4.524  18.071  0.00  0.00    +0.000 S 
ATOM      2  O   UNL     1       2.924   3.320  17.310  0.00  0.00    +0.000 OA
ATOM      3  O   UNL     1       2.378   5.694  17.863  0.00  0.00    +0.000 OA
ENDROOT
BRANCH   1   4
ATOM      4  C   UNL     1       4.917   4.948  17.769  0.00  0.00    +0.000 A 
ATOM      5  C   UNL     1       5.646   5.336  18.909  0.00  0.00    +0.000 A 
ATOM      6  C   UNL     1       7.000   5.631  18.820  0.00  0.00    +0.000 A 
ATOM      7  C   UNL     1       7.639   5.548  17.590  0.00  0.00    +0.000 A 
ATOM      8  C   UNL     1       6.941   5.143  16.441  0.00  0.00    +0.000 A 
ATOM      9  C   UNL     1       7.608   5.049  15.217  0.00  0.00    +0.000 A 
ATOM     10  N   UNL     1       7.046   4.648  14.057  0.00  0.00    +0.000 NA
ATOM     11  C   UNL     1       5.749   4.304  14.116  0.00  0.00    +0.000 A 
ATOM     12  C   UNL     1       4.989   4.371  15.277  0.00  0.00    +0.000 A 
ATOM     13  C   UNL     1       5.564   4.809  16.498  0.00  0.00    +0.000 A 
ENDBRANCH   1   4
BRANCH   1  20
ATOM     14  C   UNL     1       3.419   2.178  21.354  0.00  0.00    +0.000 C 
ATOM     15  C   UNL     1       2.933   2.594  19.958  0.00  0.00    +0.000 C 
ATOM     16  C   UNL     1       1.444   2.224  19.746  0.00  0.00    +0.000 C 
ATOM     17  N   UNL     1       0.509   2.989  20.598  0.00  0.00    +0.000 NA
ATOM     18  C   UNL     1       0.740   4.433  20.443  0.00  0.00    +0.000 C 
ATOM     19  C   UNL     1       2.213   4.876  20.601  0.00  0.00    +0.000 C 
ATOM     20  N   UNL     1       3.148   4.082  19.741  0.00  0.00    +0.000 NA
ATOM     21  H   UNL     1       0.663   2.728  21.570  0.00  0.00    +0.000 HD
ENDBRANCH   1  20
TORSDOF 2
ENDMDL
MODEL 9
REMARK VINA RESULT:      -7.1      2.176      3.291
REMARK  Name = 
REMARK  3 active torsions:
REMARK  status: ('A' for Active; 'I' for Inactive)
REMARK    1  A    between atoms: C_1  and  C_2
REMARK    2  A    between atoms: N_7  and  S_8
REMARK    3  A    between atoms: S_8  and  C_11
REMARK                            x       y       z     vdW  Elec       q    Type
REMARK                         _______ _______ _______ _____ _____    ______ ____
ROOT
ATOM      1  S   UNL     1       2.743   5.183  18.319  0.00  0.00    +0.000 S 
ATOM      2  O   UNL     1       1.659   4.824  17.424  0.00  0.00    +0.000 OA
ATOM      3  O   UNL     1       2.834   6.537  18.811  0.00  0.00    +0.000 OA
ENDROOT
BRANCH   1   4
ATOM      4  C   UNL     1       4.271   4.757  17.479  0.00  0.00    +0.000 A 
ATOM      5  C   UNL     1       4.121   4.324  16.148  0.00  0.00    +0.000 A 
ATOM      6  C   UNL     1       5.231   4.023  15.369  0.00  0.00    +0.000 A 
ATOM      7  C   UNL     1       6.502   4.144  15.915  0.00  0.00    +0.000 A 
ATOM      8  C   UNL     1       6.681   4.594  17.232  0.00  0.00    +0.000 A 
ATOM      9  C   UNL     1       7.971   4.725  17.754  0.00  0.00    +0.000 A 
ATOM     10  N   UNL     1       8.263   5.170  18.995  0.00  0.00    +0.000 NA
ATOM     11  C   UNL     1       7.215   5.521  19.759  0.00  0.00    +0.000 A 
ATOM     12  C   UNL     1       5.893   5.420  19.344  0.00  0.00    +0.000 A 
ATOM     13  C   UNL     1       5.574   4.936  18.048  0.00  0.00    +0.000 A 
ENDBRANCH   1   4
BRANCH   1  20
ATOM     14  C   UNL     1       3.847   2.210  20.823  0.00  0.00    +0.000 C 
ATOM     15  C   UNL     1       3.520   2.852  19.467  0.00  0.00    +0.000 C 
ATOM     16  C   UNL     1       2.814   1.847  18.523  0.00  0.00    +0.000 C 
ATOM     17  N   UNL     1       1.462   1.452  18.970  0.00  0.00    +0.000 NA
ATOM     18  C   UNL     1       0.636   2.645  19.214  0.00  0.00    +0.000 C 
ATOM     19  C   UNL     1       1.291   3.715  20.117  0.00  0.00    +0.000 C 
ATOM     20  N   UNL     1       2.666   4.093  19.658  0.00  0.00    +0.000 NA
ATOM     21  H   UNL     1       1.544   0.921  19.835  0.00  0.00    +0.000 HD
ENDBRANCH   1  20
TORSDOF 2
ENDMDL
