MODEL 1
REMARK VINA RESULT:      -8.2      0.000      0.000
REMARK  Name = 
REMARK  6 active torsions:
REMARK  status: ('A' for Active; 'I' for Inactive)
REMARK    1  A    between atoms: C_1  and  O_2
REMARK    2  A    between atoms: O_2  and  C_3
REMARK    3  A    between atoms: C_6  and  O_7
REMARK    4  A    between atoms: C_8  and  C_9
REMARK    5  A    between atoms: N_11  and  N_12
REMARK    6  A    between atoms: C_13  and  C_15
REMARK                            x       y       z     vdW  Elec       q    Type
REMARK                         _______ _______ _______ _____ _____    ______ ____
ROOT
ATOM      1  C   UNL     1       0.297   8.747  21.365  0.00  0.00    +0.000 C 
ATOM      2  O   UNL     1      -0.646   7.970  21.517  0.00  0.00    +0.000 OA
ATOM      3  N   UNL     1       1.555   8.310  21.013  0.00  0.00    +0.000 N 
ATOM      4  H   UNL     1       2.345   8.952  20.905  0.00  0.00    +0.000 HD
ENDROOT
BRANCH   1   9
ATOM      5  C   UNL     1       0.660  12.474  20.770  0.00  0.00    +0.000 A 
ATOM      6  C   UNL     1      -0.118  13.013  21.796  0.00  0.00    +0.000 A 
ATOM      7  C   UNL     1      -0.783  12.180  22.695  0.00  0.00    +0.000 A 
ATOM      8  C   UNL     1      -0.664  10.795  22.576  0.00  0.00    +0.000 A 
ATOM      9  C   UNL     1       0.113  10.226  21.554  0.00  0.00    +0.000 A 
ATOM     10  C   UNL     1       0.773  11.085  20.652  0.00  0.00    +0.000 A 
BRANCH   5  12
ATOM     11  C   UNL     1       0.568  13.752  18.767  0.00  0.00    +0.000 C 
ATOM     12  O   UNL     1       1.256  13.404  19.963  0.00  0.00    +0.000 OA
ENDBRANCH   5  12
BRANCH   8  13
ATOM     13  O   UNL     1      -1.324  10.000  23.475  0.00  0.00    +0.000 OA
ATOM     14  H   UNL     1      -0.863  10.029  24.333  0.00  0.00    +0.000 HD
ENDBRANCH   8  13
ENDBRANCH   1   9
BRANCH   3  15
ATOM     15  N   UNL     1       1.802   6.944  20.837  0.00  0.00    +0.000 N 
ATOM     16  C   UNL     1       2.204   6.504  19.591  0.00  0.00    +0.000 C 
ATOM     17  O   UNL     1       2.342   7.282  18.646  0.00  0.00    +0.000 OA
ATOM     18  H   UNL     1       1.611   6.343  21.634  0.00  0.00    +0.000 HD
BRANCH  16  19
ATOM     19  C   UNL     1       2.496   4.995  19.472  0.00  0.00    +0.000 C 
ATOM     20  C   UNL     1       1.900   4.206  20.663  0.00  0.00    +0.000 C 
ATOM     21  C   UNL     1       2.192   2.700  20.517  0.00  0.00    +0.000 C 
ATOM     22  C   UNL     1       1.564   2.182  19.212  0.00  0.00    +0.000 C 
ATOM     23  C   UNL     1       2.157   2.935  18.011  0.00  0.00    +0.000 C 
ATOM     24  C   UNL     1       3.677   2.713  17.972  0.00  0.00    +0.000 C 
ATOM     25  C   UNL     1       4.316   3.235  19.268  0.00  0.00    +0.000 C 
ATOM     26  C   UNL     1       3.714   2.481  20.466  0.00  0.00    +0.000 C 
ATOM     27  C   UNL     1       4.022   4.739  19.418  0.00  0.00    +0.000 C 
ATOM     28  C   UNL     1       1.870   4.438  18.164  0.00  0.00    +0.000 C 
ENDBRANCH  16  19
ENDBRANCH   3  15
TORSDOF 5
ENDMDL
MODEL 2
REMARK VINA RESULT:      -8.2      7.240     10.562
REMARK  Name = 
REMARK  6 active torsions:
REMARK  status: ('A' for Active; 'I' for Inactive)
REMARK    1  A    between atoms: C_1  and  O_2
REMARK    2  A    between atoms: O_2  and  C_3
REMARK    3  A    between atoms: C_6  and  O_7
REMARK    4  A    between atoms: C_8  and  C_9
REMARK    5  A    between atoms: N_11  and  N_12
REMARK    6  A    between atoms: C_13  and  C_15
REMARK                            x       y       z     vdW  Elec       q    Type
REMARK                         _______ _______ _______ _____ _____    ______ ____
ROOT
ATOM      1  C   UNL     1       7.541   6.991  18.020  0.00  0.00    +0.000 C 
ATOM      2  O   UNL     1       8.231   6.578  18.952  0.00  0.00    +0.000 OA
ATOM      3  N   UNL     1       7.683   8.266  17.515  0.00  0.00    +0.000 N 
ATOM      4  H   UNL     1       7.098   8.618  16.752  0.00  0.00    +0.000 HD
ENDROOT
BRANCH   1   9
ATOM      5  C   UNL     1       4.354   4.979  17.612  0.00  0.00    +0.000 A 
ATOM      6  C   UNL     1       4.496   4.460  16.324  0.00  0.00    +0.000 A 
ATOM      7  C   UNL     1       5.623   4.760  15.558  0.00  0.00    +0.000 A 
ATOM      8  C   UNL     1       6.623   5.577  16.086  0.00  0.00    +0.000 A 
ATOM      9  C   UNL     1       6.506   6.111  17.379  0.00  0.00    +0.000 A 
ATOM     10  C   UNL     1       5.357   5.802  18.135  0.00  0.00    +0.000 A 
BRANCH   5  12
ATOM     11  C   UNL     1       2.356   3.690  17.562  0.00  0.00    +0.000 C 
ATOM     12  O   UNL     1       3.202   4.605  18.249  0.00  0.00    +0.000 OA
ENDBRANCH   5  12
BRANCH   8  13
ATOM     13  O   UNL     1       7.721   5.851  15.315  0.00  0.00    +0.000 OA
ATOM     14  H   UNL     1       7.585   5.494  14.418  0.00  0.00    +0.000 HD
ENDBRANCH   8  13
ENDBRANCH   1   9
BRANCH   3  15
ATOM     15  N   UNL     1       8.616   9.145  18.074  0.00  0.00    +0.000 N 
ATOM     16  C   UNL     1       8.448  10.500  17.867  0.00  0.00    +0.000 C 
ATOM     17  O   UNL     1       7.507  10.940  17.204  0.00  0.00    +0.000 OA
ATOM     18  H   UNL     1       9.404   8.722  18.556  0.00  0.00    +0.000 HD
BRANCH  16  19
ATOM     19  C   UNL     1       9.488  11.418  18.541  0.00  0.00    +0.000 C 
ATOM     20  C   UNL     1      10.824  11.430  17.760  0.00  0.00    +0.000 C 
ATOM     21  C   UNL     1      11.843  12.363  18.443  0.00  0.00    +0.000 C 
ATOM     22  C   UNL     1      11.278  13.793  18.486  0.00  0.00    +0.000 C 
ATOM     23  C   UNL     1       9.961  13.811  19.278  0.00  0.00    +0.000 C 
ATOM     24  C   UNL     1      10.221  13.318  20.710  0.00  0.00    +0.000 C 
ATOM     25  C   UNL     1      10.778  11.886  20.678  0.00  0.00    +0.000 C 
ATOM     26  C   UNL     1      12.093  11.875  19.880  0.00  0.00    +0.000 C 
ATOM     27  C   UNL     1       9.762  10.954  19.992  0.00  0.00    +0.000 C 
ATOM     28  C   UNL     1       8.949  12.873  18.597  0.00  0.00    +0.000 C 
ENDBRANCH  16  19
ENDBRANCH   3  15
TORSDOF 5
ENDMDL
MODEL 3
REMARK VINA RESULT:      -8.2      7.253     10.550
REMARK  Name = 
REMARK  6 active torsions:
REMARK  status: ('A' for Active; 'I' for Inactive)
REMARK    1  A    between atoms: C_1  and  O_2
REMARK    2  A    between atoms: O_2  and  C_3
REMARK    3  A    between atoms: C_6  and  O_7
REMARK    4  A    between atoms: C_8  and  C_9
REMARK    5  A    between atoms: N_11  and  N_12
REMARK    6  A    between atoms: C_13  and  C_15
REMARK                            x       y       z     vdW  Elec       q    Type
REMARK                         _______ _______ _______ _____ _____    ______ ____
ROOT
ATOM      1  C   UNL     1       7.577   7.005  18.061  0.00  0.00    +0.000 C 
ATOM      2  O   UNL     1       8.283   6.605  18.987  0.00  0.00    +0.000 OA
ATOM      3  N   UNL     1       7.698   8.278  17.546  0.00  0.00    +0.000 N 
ATOM      4  H   UNL     1       7.100   8.619  16.789  0.00  0.00    +0.000 HD
ENDROOT
BRANCH   1   9
ATOM      5  C   UNL     1       4.416   4.940  17.712  0.00  0.00    +0.000 A 
ATOM      6  C   UNL     1       4.540   4.428  16.419  0.00  0.00    +0.000 A 
ATOM      7  C   UNL     1       5.646   4.750  15.632  0.00  0.00    +0.000 A 
ATOM      8  C   UNL     1       6.643   5.582  16.141  0.00  0.00    +0.000 A 
ATOM      9  C   UNL     1       6.544   6.110  17.439  0.00  0.00    +0.000 A 
ATOM     10  C   UNL     1       5.416   5.778  18.217  0.00  0.00    +0.000 A 
BRANCH   5  12
ATOM     11  C   UNL     1       2.290   3.883  17.599  0.00  0.00    +0.000 C 
ATOM     12  O   UNL     1       3.285   4.544  18.371  0.00  0.00    +0.000 OA
ENDBRANCH   5  12
BRANCH   8  13
ATOM     13  O   UNL     1       7.720   5.877  15.348  0.00  0.00    +0.000 OA
ATOM     14  H   UNL     1       7.567   6.728  14.897  0.00  0.00    +0.000 HD
ENDBRANCH   8  13
ENDBRANCH   1   9
BRANCH   3  15
ATOM     15  N   UNL     1       8.629   9.171  18.089  0.00  0.00    +0.000 N 
ATOM     16  C   UNL     1       8.442  10.523  17.875  0.00  0.00    +0.000 C 
ATOM     17  O   UNL     1       7.488  10.948  17.222  0.00  0.00    +0.000 OA
ATOM     18  H   UNL     1       9.428   8.760  18.563  0.00  0.00    +0.000 HD
BRANCH  16  19
ATOM     19  C   UNL     1       9.480  11.456  18.531  0.00  0.00    +0.000 C 
ATOM     20  C   UNL     1       8.973  12.918  18.589  0.00  0.00    +0.000 C 
ATOM     21  C   UNL     1      10.019  13.829  19.259  0.00  0.00    +0.000 C 
ATOM     22  C   UNL     1      10.284  13.336  20.692  0.00  0.00    +0.000 C 
ATOM     23  C   UNL     1      10.811  11.893  20.659  0.00  0.00    +0.000 C 
ATOM     24  C   UNL     1      12.118  11.847  19.852  0.00  0.00    +0.000 C 
ATOM     25  C   UNL     1      11.863  12.329  18.415  0.00  0.00    +0.000 C 
ATOM     26  C   UNL     1      11.330  13.772  18.456  0.00  0.00    +0.000 C 
ATOM     27  C   UNL     1      10.814  11.422  17.745  0.00  0.00    +0.000 C 
ATOM     28  C   UNL     1       9.768  10.988  19.983  0.00  0.00    +0.000 C 
ENDBRANCH  16  19
ENDBRANCH   3  15
TORSDOF 5
ENDMDL
MODEL 4
REMARK VINA RESULT:      -8.1      7.225     10.482
REMARK  Name = 
REMARK  6 active torsions:
REMARK  status: ('A' for Active; 'I' for Inactive)
REMARK    1  A    between atoms: C_1  and  O_2
REMARK    2  A    between atoms: O_2  and  C_3
REMARK    3  A    between atoms: C_6  and  O_7
REMARK    4  A    between atoms: C_8  and  C_9
REMARK    5  A    between atoms: N_11  and  N_12
REMARK    6  A    between atoms: C_13  and  C_15
REMARK                            x       y       z     vdW  Elec       q    Type
REMARK                         _______ _______ _______ _____ _____    ______ ____
ROOT
ATOM      1  C   UNL     1       7.570   6.926  18.053  0.00  0.00    +0.000 C 
ATOM      2  O   UNL     1       8.251   6.535  19.002  0.00  0.00    +0.000 OA
ATOM      3  N   UNL     1       7.708   8.192  17.526  0.00  0.00    +0.000 N 
ATOM      4  H   UNL     1       7.130   8.525  16.750  0.00  0.00    +0.000 HD
ENDROOT
BRANCH   1   9
ATOM      5  C   UNL     1       4.443   4.816  17.672  0.00  0.00    +0.000 A 
ATOM      6  C   UNL     1       4.572   4.332  16.369  0.00  0.00    +0.000 A 
ATOM      7  C   UNL     1       5.670   4.688  15.585  0.00  0.00    +0.000 A 
ATOM      8  C   UNL     1       6.654   5.527  16.108  0.00  0.00    +0.000 A 
ATOM      9  C   UNL     1       6.550   6.026  17.417  0.00  0.00    +0.000 A 
ATOM     10  C   UNL     1       5.430   5.660  18.191  0.00  0.00    +0.000 A 
BRANCH   5  12
ATOM     11  C   UNL     1       2.207   5.272  18.338  0.00  0.00    +0.000 C 
ATOM     12  O   UNL     1       3.320   4.387  18.326  0.00  0.00    +0.000 OA
ENDBRANCH   5  12
BRANCH   8  13
ATOM     13  O   UNL     1       7.723   5.856  15.319  0.00  0.00    +0.000 OA
ATOM     14  H   UNL     1       7.444   5.871  14.385  0.00  0.00    +0.000 HD
ENDBRANCH   8  13
ENDBRANCH   1   9
BRANCH   3  15
ATOM     15  N   UNL     1       8.627   9.089  18.082  0.00  0.00    +0.000 N 
ATOM     16  C   UNL     1       8.429  10.441  17.881  0.00  0.00    +0.000 C 
ATOM     17  O   UNL     1       7.473  10.863  17.227  0.00  0.00    +0.000 OA
ATOM     18  H   UNL     1       9.428   8.681  18.556  0.00  0.00    +0.000 HD
BRANCH  16  19
ATOM     19  C   UNL     1       9.454  11.378  18.549  0.00  0.00    +0.000 C 
ATOM     20  C   UNL     1       9.768  10.934  19.999  0.00  0.00    +0.000 C 
ATOM     21  C   UNL     1      10.805  11.875  20.642  0.00  0.00    +0.000 C 
ATOM     22  C   UNL     1      12.104  11.844  19.819  0.00  0.00    +0.000 C 
ATOM     23  C   UNL     1      11.822  12.304  18.380  0.00  0.00    +0.000 C 
ATOM     24  C   UNL     1      11.264  13.735  18.404  0.00  0.00    +0.000 C 
ATOM     25  C   UNL     1       9.960  13.776  19.217  0.00  0.00    +0.000 C 
ATOM     26  C   UNL     1      10.249  13.310  20.654  0.00  0.00    +0.000 C 
ATOM     27  C   UNL     1       8.925  12.833  18.577  0.00  0.00    +0.000 C 
ATOM     28  C   UNL     1      10.782  11.367  17.744  0.00  0.00    +0.000 C 
ENDBRANCH  16  19
ENDBRANCH   3  15
TORSDOF 5
ENDMDL
MODEL 5
REMARK VINA RESULT:      -8.1      0.425      1.597
REMARK  Name = 
REMARK  6 active torsions:
REMARK  status: ('A' for Active; 'I' for Inactive)
REMARK    1  A    between atoms: C_1  and  O_2
REMARK    2  A    between atoms: O_2  and  C_3
REMARK    3  A    between atoms: C_6  and  O_7
REMARK    4  A    between atoms: C_8  and  C_9
REMARK    5  A    between atoms: N_11  and  N_12
REMARK    6  A    between atoms: C_13  and  C_15
REMARK                            x       y       z     vdW  Elec       q    Type
REMARK                         _______ _______ _______ _____ _____    ______ ____
ROOT
ATOM      1  C   UNL     1       0.223   8.877  21.377  0.00  0.00    +0.000 C 
ATOM      2  O   UNL     1      -0.695   8.102  21.644  0.00  0.00    +0.000 OA
ATOM      3  N   UNL     1       1.431   8.437  20.878  0.00  0.00    +0.000 N 
ATOM      4  H   UNL     1       2.202   9.078  20.673  0.00  0.00    +0.000 HD
ENDROOT
BRANCH   1   9
ATOM      5  C   UNL     1       0.658  12.603  20.823  0.00  0.00    +0.000 A 
ATOM      6  C   UNL     1      -0.120  13.145  21.846  0.00  0.00    +0.000 A 
ATOM      7  C   UNL     1      -0.809  12.315  22.730  0.00  0.00    +0.000 A 
ATOM      8  C   UNL     1      -0.713  10.929  22.598  0.00  0.00    +0.000 A 
ATOM      9  C   UNL     1       0.064  10.357  21.579  0.00  0.00    +0.000 A 
ATOM     10  C   UNL     1       0.748  11.213  20.692  0.00  0.00    +0.000 A 
BRANCH   5  12
ATOM     11  C   UNL     1       2.295  13.053  19.157  0.00  0.00    +0.000 C 
ATOM     12  O   UNL     1       1.278  13.531  20.031  0.00  0.00    +0.000 OA
ENDBRANCH   5  12
BRANCH   8  13
ATOM     13  O   UNL     1      -1.396  10.138  23.483  0.00  0.00    +0.000 OA
ATOM     14  H   UNL     1      -0.824   9.932  24.244  0.00  0.00    +0.000 HD
ENDBRANCH   8  13
ENDBRANCH   1   9
BRANCH   3  15
ATOM     15  N   UNL     1       1.655   7.070  20.681  0.00  0.00    +0.000 N 
ATOM     16  C   UNL     1       2.221   6.663  19.489  0.00  0.00    +0.000 C 
ATOM     17  O   UNL     1       2.523   7.470  18.609  0.00  0.00    +0.000 OA
ATOM     18  H   UNL     1       1.328   6.447  21.415  0.00  0.00    +0.000 HD
BRANCH  16  19
ATOM     19  C   UNL     1       2.476   5.149  19.348  0.00  0.00    +0.000 C 
ATOM     20  C   UNL     1       1.954   4.608  17.995  0.00  0.00    +0.000 C 
ATOM     21  C   UNL     1       2.232   3.098  17.870  0.00  0.00    +0.000 C 
ATOM     22  C   UNL     1       3.747   2.848  17.955  0.00  0.00    +0.000 C 
ATOM     23  C   UNL     1       4.286   3.356  19.302  0.00  0.00    +0.000 C 
ATOM     24  C   UNL     1       3.579   2.612  20.446  0.00  0.00    +0.000 C 
ATOM     25  C   UNL     1       2.064   2.863  20.376  0.00  0.00    +0.000 C 
ATOM     26  C   UNL     1       1.532   2.357  19.023  0.00  0.00    +0.000 C 
ATOM     27  C   UNL     1       1.786   4.373  20.496  0.00  0.00    +0.000 C 
ATOM     28  C   UNL     1       4.001   4.862  19.426  0.00  0.00    +0.000 C 
ENDBRANCH  16  19
ENDBRANCH   3  15
TORSDOF 5
ENDMDL
MODEL 6
REMARK VINA RESULT:      -8.1      0.283      1.537
REMARK  Name = 
REMARK  6 active torsions:
REMARK  status: ('A' for Active; 'I' for Inactive)
REMARK    1  A    between atoms: C_1  and  O_2
REMARK    2  A    between atoms: O_2  and  C_3
REMARK    3  A    between atoms: C_6  and  O_7
REMARK    4  A    between atoms: C_8  and  C_9
REMARK    5  A    between atoms: N_11  and  N_12
REMARK    6  A    between atoms: C_13  and  C_15
REMARK                            x       y       z     vdW  Elec       q    Type
REMARK                         _______ _______ _______ _____ _____    ______ ____
ROOT
ATOM      1  C   UNL     1       0.314   8.779  21.375  0.00  0.00    +0.000 C 
ATOM      2  O   UNL     1      -0.616   8.000  21.583  0.00  0.00    +0.000 OA
ATOM      3  N   UNL     1       1.550   8.344  20.947  0.00  0.00    +0.000 N 
ATOM      4  H   UNL     1       2.331   8.988  20.791  0.00  0.00    +0.000 HD
ENDROOT
BRANCH   1   9
ATOM      5  C   UNL     1       0.732  12.508  20.835  0.00  0.00    +0.000 A 
ATOM      6  C   UNL     1      -0.071  13.044  21.843  0.00  0.00    +0.000 A 
ATOM      7  C   UNL     1      -0.771  12.206  22.712  0.00  0.00    +0.000 A 
ATOM      8  C   UNL     1      -0.662  10.822  22.581  0.00  0.00    +0.000 A 
ATOM      9  C   UNL     1       0.140  10.257  21.576  0.00  0.00    +0.000 A 
ATOM     10  C   UNL     1       0.835  11.119  20.704  0.00  0.00    +0.000 A 
BRANCH   5  12
ATOM     11  C   UNL     1       0.645  14.641  19.787  0.00  0.00    +0.000 C 
ATOM     12  O   UNL     1       1.361  13.442  20.057  0.00  0.00    +0.000 OA
ENDBRANCH   5  12
BRANCH   8  13
ATOM     13  O   UNL     1      -1.357  10.024  23.450  0.00  0.00    +0.000 OA
ATOM     14  H   UNL     1      -2.310  10.088  23.259  0.00  0.00    +0.000 HD
ENDBRANCH   8  13
ENDBRANCH   1   9
BRANCH   3  15
ATOM     15  N   UNL     1       1.789   6.979  20.755  0.00  0.00    +0.000 N 
ATOM     16  C   UNL     1       2.273   6.562  19.530  0.00  0.00    +0.000 C 
ATOM     17  O   UNL     1       2.491   7.360  18.618  0.00  0.00    +0.000 OA
ATOM     18  H   UNL     1       1.531   6.362  21.521  0.00  0.00    +0.000 HD
BRANCH  16  19
ATOM     19  C   UNL     1       2.551   5.052  19.396  0.00  0.00    +0.000 C 
ATOM     20  C   UNL     1       4.069   4.755  19.349  0.00  0.00    +0.000 C 
ATOM     21  C   UNL     1       4.323   3.240  19.228  0.00  0.00    +0.000 C 
ATOM     22  C   UNL     1       3.712   2.521  20.443  0.00  0.00    +0.000 C 
ATOM     23  C   UNL     1       2.199   2.781  20.498  0.00  0.00    +0.000 C 
ATOM     24  C   UNL     1       1.545   2.257  19.209  0.00  0.00    +0.000 C 
ATOM     25  C   UNL     1       2.143   2.976  17.989  0.00  0.00    +0.000 C 
ATOM     26  C   UNL     1       3.658   2.715  17.944  0.00  0.00    +0.000 C 
ATOM     27  C   UNL     1       1.893   4.491  18.111  0.00  0.00    +0.000 C 
ATOM     28  C   UNL     1       1.949   4.295  20.611  0.00  0.00    +0.000 C 
ENDBRANCH  16  19
ENDBRANCH   3  15
TORSDOF 5
ENDMDL
MODEL 7
REMARK VINA RESULT:      -7.9      1.559      3.181
REMARK  Name = 
REMARK  6 active torsions:
REMARK  status: ('A' for Active; 'I' for Inactive)
REMARK    1  A    between atoms: C_1  and  O_2
REMARK    2  A    between atoms: O_2  and  C_3
REMARK    3  A    between atoms: C_6  and  O_7
REMARK    4  A    between atoms: C_8  and  C_9
REMARK    5  A    between atoms: N_11  and  N_12
REMARK    6  A    between atoms: C_13  and  C_15
REMARK                            x       y       z     vdW  Elec       q    Type
REMARK                         _______ _______ _______ _____ _____    ______ ____
ROOT
ATOM      1  C   UNL     1       1.666   9.701  18.495  0.00  0.00    +0.000 C 
ATOM      2  O   UNL     1       2.017   9.575  17.321  0.00  0.00    +0.000 OA
ATOM      3  N   UNL     1       1.752   8.665  19.399  0.00  0.00    +0.000 N 
ATOM      4  H   UNL     1       1.444   8.762  20.370  0.00  0.00    +0.000 HD
ENDROOT
BRANCH   1   9
ATOM      5  C   UNL     1      -0.426  12.135  20.513  0.00  0.00    +0.000 A 
ATOM      6  C   UNL     1       0.007  13.370  20.026  0.00  0.00    +0.000 A 
ATOM      7  C   UNL     1       0.992  13.438  19.040  0.00  0.00    +0.000 A 
ATOM      8  C   UNL     1       1.544  12.263  18.529  0.00  0.00    +0.000 A 
ATOM      9  C   UNL     1       1.126  11.008  19.000  0.00  0.00    +0.000 A 
ATOM     10  C   UNL     1       0.134  10.961  20.000  0.00  0.00    +0.000 A 
BRANCH   5  12
ATOM     11  C   UNL     1      -1.131  11.560  22.710  0.00  0.00    +0.000 C 
ATOM     12  O   UNL     1      -1.396  12.215  21.475  0.00  0.00    +0.000 OA
ENDBRANCH   5  12
BRANCH   8  13
ATOM     13  O   UNL     1       2.506  12.359  17.559  0.00  0.00    +0.000 OA
ATOM     14  H   UNL     1       3.246  11.763  17.775  0.00  0.00    +0.000 HD
ENDBRANCH   8  13
ENDBRANCH   1   9
BRANCH   3  15
ATOM     15  N   UNL     1       2.230   7.414  18.993  0.00  0.00    +0.000 N 
ATOM     16  C   UNL     1       2.068   6.340  19.847  0.00  0.00    +0.000 C 
ATOM     17  O   UNL     1       1.522   6.465  20.944  0.00  0.00    +0.000 OA
ATOM     18  H   UNL     1       2.727   7.385  18.107  0.00  0.00    +0.000 HD
BRANCH  16  19
ATOM     19  C   UNL     1       2.581   4.983  19.326  0.00  0.00    +0.000 C 
ATOM     20  C   UNL     1       4.127   4.912  19.353  0.00  0.00    +0.000 C 
ATOM     21  C   UNL     1       4.617   3.544  18.841  0.00  0.00    +0.000 C 
ATOM     22  C   UNL     1       4.051   2.430  19.738  0.00  0.00    +0.000 C 
ATOM     23  C   UNL     1       2.515   2.465  19.710  0.00  0.00    +0.000 C 
ATOM     24  C   UNL     1       2.029   2.257  18.267  0.00  0.00    +0.000 C 
ATOM     25  C   UNL     1       2.581   3.371  17.363  0.00  0.00    +0.000 C 
ATOM     26  C   UNL     1       4.119   3.333  17.401  0.00  0.00    +0.000 C 
ATOM     27  C   UNL     1       2.096   4.739  17.876  0.00  0.00    +0.000 C 
ATOM     28  C   UNL     1       2.030   3.834  20.214  0.00  0.00    +0.000 C 
ENDBRANCH  16  19
ENDBRANCH   3  15
TORSDOF 5
ENDMDL
MODEL 8
REMARK VINA RESULT:      -7.9      1.539      2.827
REMARK  Name = 
REMARK  6 active torsions:
REMARK  status: ('A' for Active; 'I' for Inactive)
REMARK    1  A    between atoms: C_1  and  O_2
REMARK    2  A    between atoms: O_2  and  C_3
REMARK    3  A    between atoms: C_6  and  O_7
REMARK    4  A    between atoms: C_8  and  C_9
REMARK    5  A    between atoms: N_11  and  N_12
REMARK    6  A    between atoms: C_13  and  C_15
REMARK                            x       y       z     vdW  Elec       q    Type
REMARK                         _______ _______ _______ _____ _____    ______ ____
ROOT
ATOM      1  C   UNL     1       1.692   9.646  18.552  0.00  0.00    +0.000 C 
ATOM      2  O   UNL     1       1.966   9.500  17.360  0.00  0.00    +0.000 OA
ATOM      3  N   UNL     1       1.850   8.628  19.468  0.00  0.00    +0.000 N 
ATOM      4  H   UNL     1       1.606   8.741  20.455  0.00  0.00    +0.000 HD
ENDROOT
BRANCH   1   9
ATOM      5  C   UNL     1      -0.295  12.098  20.652  0.00  0.00    +0.000 A 
ATOM      6  C   UNL     1       0.096  13.327  20.119  0.00  0.00    +0.000 A 
ATOM      7  C   UNL     1       1.019  13.386  19.075  0.00  0.00    +0.000 A 
ATOM      8  C   UNL     1       1.550  12.207  18.550  0.00  0.00    +0.000 A 
ATOM      9  C   UNL     1       1.172  10.957  19.067  0.00  0.00    +0.000 A 
ATOM     10  C   UNL     1       0.243  10.919  20.126  0.00  0.00    +0.000 A 
BRANCH   5  12
ATOM     11  C   UNL     1      -1.085  11.238  22.724  0.00  0.00    +0.000 C 
ATOM     12  O   UNL     1      -1.205  12.187  21.670  0.00  0.00    +0.000 OA
ENDBRANCH   5  12
BRANCH   8  13
ATOM     13  O   UNL     1       2.450  12.294  17.522  0.00  0.00    +0.000 OA
ATOM     14  H   UNL     1       3.347  12.415  17.885  0.00  0.00    +0.000 HD
ENDBRANCH   8  13
ENDBRANCH   1   9
BRANCH   3  15
ATOM     15  N   UNL     1       2.314   7.375  19.055  0.00  0.00    +0.000 N 
ATOM     16  C   UNL     1       2.081   6.286  19.873  0.00  0.00    +0.000 C 
ATOM     17  O   UNL     1       1.485   6.400  20.945  0.00  0.00    +0.000 OA
ATOM     18  H   UNL     1       2.853   7.353  18.193  0.00  0.00    +0.000 HD
BRANCH  16  19
ATOM     19  C   UNL     1       2.584   4.928  19.344  0.00  0.00    +0.000 C 
ATOM     20  C   UNL     1       2.046   3.753  20.197  0.00  0.00    +0.000 C 
ATOM     21  C   UNL     1       2.549   2.406  19.642  0.00  0.00    +0.000 C 
ATOM     22  C   UNL     1       2.061   2.235  18.194  0.00  0.00    +0.000 C 
ATOM     23  C   UNL     1       2.601   3.378  17.321  0.00  0.00    +0.000 C 
ATOM     24  C   UNL     1       4.137   3.358  17.350  0.00  0.00    +0.000 C 
ATOM     25  C   UNL     1       4.636   3.537  18.792  0.00  0.00    +0.000 C 
ATOM     26  C   UNL     1       4.088   2.392  19.661  0.00  0.00    +0.000 C 
ATOM     27  C   UNL     1       4.131   4.881  19.349  0.00  0.00    +0.000 C 
ATOM     28  C   UNL     1       2.103   4.721  17.882  0.00  0.00    +0.000 C 
ENDBRANCH  16  19
ENDBRANCH   3  15
TORSDOF 5
ENDMDL
MODEL 9
REMARK VINA RESULT:      -7.9      0.941      2.017
REMARK  Name = 
REMARK  6 active torsions:
REMARK  status: ('A' for Active; 'I' for Inactive)
REMARK    1  A    between atoms: C_1  and  O_2
REMARK    2  A    between atoms: O_2  and  C_3
REMARK    3  A    between atoms: C_6  and  O_7
REMARK    4  A    between atoms: C_8  and  C_9
REMARK    5  A    between atoms: N_11  and  N_12
REMARK    6  A    between atoms: C_13  and  C_15
REMARK                            x       y       z     vdW  Elec       q    Type
REMARK                         _______ _______ _______ _____ _____    ______ ____
ROOT
ATOM      1  C   UNL     1       0.178   8.920  21.345  0.00  0.00    +0.000 C 
ATOM      2  O   UNL     1      -0.742   8.163  21.655  0.00  0.00    +0.000 OA
ATOM      3  N   UNL     1       1.383   8.449  20.869  0.00  0.00    +0.000 N 
ATOM      4  H   UNL     1       2.156   9.076  20.628  0.00  0.00    +0.000 HD
ENDROOT
BRANCH   1   9
ATOM      5  C   UNL     1      -0.944  12.271  22.718  0.00  0.00    +0.000 A 
ATOM      6  C   UNL     1      -0.371  13.166  21.814  0.00  0.00    +0.000 A 
ATOM      7  C   UNL     1       0.398  12.702  20.747  0.00  0.00    +0.000 A 
ATOM      8  C   UNL     1       0.591  11.332  20.574  0.00  0.00    +0.000 A 
ATOM      9  C   UNL     1       0.024  10.408  21.468  0.00  0.00    +0.000 A 
ATOM     10  C   UNL     1      -0.745  10.897  22.543  0.00  0.00    +0.000 A 
BRANCH   5  12
ATOM     11  C   UNL     1      -1.517  14.266  23.879  0.00  0.00    +0.000 C 
ATOM     12  O   UNL     1      -1.673  12.861  23.715  0.00  0.00    +0.000 OA
ENDBRANCH   5  12
BRANCH   8  13
ATOM     13  O   UNL     1       1.346  10.904  19.516  0.00  0.00    +0.000 OA
ATOM     14  H   UNL     1       0.784  10.829  18.724  0.00  0.00    +0.000 HD
ENDBRANCH   8  13
ENDBRANCH   1   9
BRANCH   3  15
ATOM     15  N   UNL     1       1.602   7.073  20.745  0.00  0.00    +0.000 N 
ATOM     16  C   UNL     1       2.176   6.602  19.580  0.00  0.00    +0.000 C 
ATOM     17  O   UNL     1       2.489   7.362  18.662  0.00  0.00    +0.000 OA
ATOM     18  H   UNL     1       1.267   6.491  21.507  0.00  0.00    +0.000 HD
BRANCH  16  19
ATOM     19  C   UNL     1       2.426   5.082  19.520  0.00  0.00    +0.000 C 
ATOM     20  C   UNL     1       1.801   4.356  20.737  0.00  0.00    +0.000 C 
ATOM     21  C   UNL     1       2.050   2.838  20.649  0.00  0.00    +0.000 C 
ATOM     22  C   UNL     1       1.415   2.289  19.361  0.00  0.00    +0.000 C 
ATOM     23  C   UNL     1       2.036   2.978  18.136  0.00  0.00    +0.000 C 
ATOM     24  C   UNL     1       3.549   2.711  18.115  0.00  0.00    +0.000 C 
ATOM     25  C   UNL     1       4.196   3.265  19.395  0.00  0.00    +0.000 C 
ATOM     26  C   UNL     1       3.566   2.574  20.617  0.00  0.00    +0.000 C 
ATOM     27  C   UNL     1       3.944   4.781  19.485  0.00  0.00    +0.000 C 
ATOM     28  C   UNL     1       1.791   4.493  18.231  0.00  0.00    +0.000 C 
ENDBRANCH  16  19
ENDBRANCH   3  15
TORSDOF 5
ENDMDL
