MODEL 1
REMARK VINA RESULT:      -6.6      0.000      0.000
REMARK  Name = 
REMARK  7 active torsions:
REMARK  status: ('A' for Active; 'I' for Inactive)
REMARK    1  A    between atoms: C_1  and  C_2
REMARK    2  A    between atoms: C_2  and  C_3
REMARK    3  A    between atoms: C_2  and  C_4
REMARK    4  A    between atoms: C_2  and  N_5
REMARK    5  A    between atoms: C_6  and  C_8
REMARK    6  A    between atoms: C_11  and  C_12
REMARK    7  A    between atoms: C_12  and  N_13
REMARK                            x       y       z     vdW  Elec       q    Type
REMARK                         _______ _______ _______ _____ _____    ______ ____
ROOT
ATOM      1  C   UNL     1       2.593   7.713  18.541  0.00  0.00    +0.000 A 
ATOM      2  C   UNL     1       3.541   7.251  17.618  0.00  0.00    +0.000 A 
ATOM      3  C   UNL     1       4.175   6.018  17.823  0.00  0.00    +0.000 A 
ATOM      4  C   UNL     1       3.893   5.246  18.959  0.00  0.00    +0.000 A 
ATOM      5  C   UNL     1       3.015   5.767  19.922  0.00  0.00    +0.000 A 
ATOM      6  C   UNL     1       2.360   6.981  19.711  0.00  0.00    +0.000 A 
ENDROOT
BRANCH   1   8
ATOM      7  N   UNL     1       0.995   9.360  19.362  0.00  0.00    +0.000 N 
ATOM      8  C   UNL     1       1.823   8.970  18.327  0.00  0.00    +0.000 C 
ATOM      9  O   UNL     1       1.983   9.603  17.292  0.00  0.00    +0.000 OA
ATOM     10  H   UNL     1       1.085   8.874  20.245  0.00  0.00    +0.000 HD
BRANCH   7  12
ATOM     11  C   UNL     1      -0.933  10.473  18.282  0.00  0.00    +0.000 C 
ATOM     12  C   UNL     1       0.168  10.578  19.349  0.00  0.00    +0.000 C 
ATOM     13  C   UNL     1       1.025  11.828  19.087  0.00  0.00    +0.000 C 
ATOM     14  C   UNL     1      -0.511  10.715  20.724  0.00  0.00    +0.000 C 
ENDBRANCH   7  12
ENDBRANCH   1   8
BRANCH   4  15
ATOM     15  C   UNL     1       4.403   3.821  19.092  0.00  0.00    +0.000 C 
BRANCH  15  16
ATOM     16  N   UNL     1       3.491   2.700  18.893  0.00  0.00    +0.000 NA
ATOM     17  C   UNL     1       2.674   2.727  17.685  0.00  0.00    +0.000 C 
ATOM     18  C   UNL     1       1.312   3.197  18.151  0.00  0.00    +0.000 C 
ATOM     19  C   UNL     1       1.189   2.613  19.545  0.00  0.00    +0.000 C 
ATOM     20  C   UNL     1       2.619   2.367  20.012  0.00  0.00    +0.000 C 
ENDBRANCH  15  16
ENDBRANCH   4  15
TORSDOF 4
ENDMDL
MODEL 2
REMARK VINA RESULT:      -6.5      4.593      7.708
REMARK  Name = 
REMARK  7 active torsions:
REMARK  status: ('A' for Active; 'I' for Inactive)
REMARK    1  A    between atoms: C_1  and  C_2
REMARK    2  A    between atoms: C_2  and  C_3
REMARK    3  A    between atoms: C_2  and  C_4
REMARK    4  A    between atoms: C_2  and  N_5
REMARK    5  A    between atoms: C_6  and  C_8
REMARK    6  A    between atoms: C_11  and  C_12
REMARK    7  A    between atoms: C_12  and  N_13
REMARK                            x       y       z     vdW  Elec       q    Type
REMARK                         _______ _______ _______ _____ _____    ______ ____
ROOT
ATOM      1  C   UNL     1       5.926   5.430  18.504  0.00  0.00    +0.000 A 
ATOM      2  C   UNL     1       7.191   5.573  19.091  0.00  0.00    +0.000 A 
ATOM      3  C   UNL     1       8.024   6.633  18.712  0.00  0.00    +0.000 A 
ATOM      4  C   UNL     1       7.620   7.546  17.726  0.00  0.00    +0.000 A 
ATOM      5  C   UNL     1       6.393   7.334  17.079  0.00  0.00    +0.000 A 
ATOM      6  C   UNL     1       5.547   6.296  17.472  0.00  0.00    +0.000 A 
ENDROOT
BRANCH   1   8
ATOM      7  N   UNL     1       3.701   4.445  18.382  0.00  0.00    +0.000 N 
ATOM      8  C   UNL     1       4.965   4.377  18.934  0.00  0.00    +0.000 C 
ATOM      9  O   UNL     1       5.339   3.502  19.705  0.00  0.00    +0.000 OA
ATOM     10  H   UNL     1       3.557   5.087  17.613  0.00  0.00    +0.000 HD
BRANCH   7  12
ATOM     11  C   UNL     1       2.304   3.460  20.171  0.00  0.00    +0.000 C 
ATOM     12  C   UNL     1       2.618   3.488  18.667  0.00  0.00    +0.000 C 
ATOM     13  C   UNL     1       2.987   2.074  18.188  0.00  0.00    +0.000 C 
ATOM     14  C   UNL     1       1.353   3.956  17.924  0.00  0.00    +0.000 C 
ENDBRANCH   7  12
ENDBRANCH   1   8
BRANCH   4  15
ATOM     15  C   UNL     1       8.408   8.817  17.456  0.00  0.00    +0.000 C 
BRANCH  15  16
ATOM     16  N   UNL     1       8.317   9.942  18.379  0.00  0.00    +0.000 NA
ATOM     17  C   UNL     1       8.286  11.275  17.787  0.00  0.00    +0.000 C 
ATOM     18  C   UNL     1       9.696  11.804  17.956  0.00  0.00    +0.000 C 
ATOM     19  C   UNL     1      10.150  11.197  19.271  0.00  0.00    +0.000 C 
ATOM     20  C   UNL     1       9.279   9.963  19.473  0.00  0.00    +0.000 C 
ENDBRANCH  15  16
ENDBRANCH   4  15
TORSDOF 4
ENDMDL
MODEL 3
REMARK VINA RESULT:      -6.4      0.555      1.590
REMARK  Name = 
REMARK  7 active torsions:
REMARK  status: ('A' for Active; 'I' for Inactive)
REMARK    1  A    between atoms: C_1  and  C_2
REMARK    2  A    between atoms: C_2  and  C_3
REMARK    3  A    between atoms: C_2  and  C_4
REMARK    4  A    between atoms: C_2  and  N_5
REMARK    5  A    between atoms: C_6  and  C_8
REMARK    6  A    between atoms: C_11  and  C_12
REMARK    7  A    between atoms: C_12  and  N_13
REMARK                            x       y       z     vdW  Elec       q    Type
REMARK                         _______ _______ _______ _____ _____    ______ ____
ROOT
ATOM      1  C   UNL     1       2.349   7.896  18.616  0.00  0.00    +0.000 A 
ATOM      2  C   UNL     1       2.110   7.055  19.711  0.00  0.00    +0.000 A 
ATOM      3  C   UNL     1       2.862   5.885  19.872  0.00  0.00    +0.000 A 
ATOM      4  C   UNL     1       3.840   5.524  18.934  0.00  0.00    +0.000 A 
ATOM      5  C   UNL     1       4.000   6.325  17.792  0.00  0.00    +0.000 A 
ATOM      6  C   UNL     1       3.273   7.507  17.640  0.00  0.00    +0.000 A 
ENDROOT
BRANCH   1   8
ATOM      7  N   UNL     1       0.789   9.565  19.465  0.00  0.00    +0.000 N 
ATOM      8  C   UNL     1       1.643   9.197  18.444  0.00  0.00    +0.000 C 
ATOM      9  O   UNL     1       1.874   9.878  17.453  0.00  0.00    +0.000 OA
ATOM     10  H   UNL     1       0.820   9.028  20.322  0.00  0.00    +0.000 HD
BRANCH   7  12
ATOM     11  C   UNL     1      -0.725  10.972  20.826  0.00  0.00    +0.000 C 
ATOM     12  C   UNL     1       0.017  10.819  19.489  0.00  0.00    +0.000 C 
ATOM     13  C   UNL     1      -0.991  10.872  18.328  0.00  0.00    +0.000 C 
ATOM     14  C   UNL     1       1.001  11.995  19.352  0.00  0.00    +0.000 C 
ENDBRANCH   7  12
ENDBRANCH   1   8
BRANCH   4  15
ATOM     15  C   UNL     1       4.808   4.383  19.199  0.00  0.00    +0.000 C 
BRANCH  15  16
ATOM     16  N   UNL     1       4.359   3.002  19.067  0.00  0.00    +0.000 NA
ATOM     17  C   UNL     1       3.714   2.641  17.809  0.00  0.00    +0.000 C 
ATOM     18  C   UNL     1       2.232   2.642  18.122  0.00  0.00    +0.000 C 
ATOM     19  C   UNL     1       2.170   2.169  19.563  0.00  0.00    +0.000 C 
ATOM     20  C   UNL     1       3.541   2.478  20.153  0.00  0.00    +0.000 C 
ENDBRANCH  15  16
ENDBRANCH   4  15
TORSDOF 4
ENDMDL
MODEL 4
REMARK VINA RESULT:      -6.3      4.166      6.999
REMARK  Name = 
REMARK  7 active torsions:
REMARK  status: ('A' for Active; 'I' for Inactive)
REMARK    1  A    between atoms: C_1  and  C_2
REMARK    2  A    between atoms: C_2  and  C_3
REMARK    3  A    between atoms: C_2  and  C_4
REMARK    4  A    between atoms: C_2  and  N_5
REMARK    5  A    between atoms: C_6  and  C_8
REMARK    6  A    between atoms: C_11  and  C_12
REMARK    7  A    between atoms: C_12  and  N_13
REMARK                            x       y       z     vdW  Elec       q    Type
REMARK                         _______ _______ _______ _____ _____    ______ ____
ROOT
ATOM      1  C   UNL     1       5.598   4.821  15.685  0.00  0.00    +0.000 A 
ATOM      2  C   UNL     1       5.518   3.787  16.628  0.00  0.00    +0.000 A 
ATOM      3  C   UNL     1       4.914   4.018  17.870  0.00  0.00    +0.000 A 
ATOM      4  C   UNL     1       4.409   5.284  18.199  0.00  0.00    +0.000 A 
ATOM      5  C   UNL     1       4.583   6.333  17.283  0.00  0.00    +0.000 A 
ATOM      6  C   UNL     1       5.159   6.103  16.033  0.00  0.00    +0.000 A 
ENDROOT
BRANCH   1   8
ATOM      7  N   UNL     1       5.448   3.729  13.511  0.00  0.00    +0.000 N 
ATOM      8  C   UNL     1       6.147   4.607  14.316  0.00  0.00    +0.000 C 
ATOM      9  O   UNL     1       7.140   5.230  13.964  0.00  0.00    +0.000 OA
ATOM     10  H   UNL     1       4.538   3.421  13.829  0.00  0.00    +0.000 HD
BRANCH   7  12
ATOM     11  C   UNL     1       6.225   1.922  12.009  0.00  0.00    +0.000 C 
ATOM     12  C   UNL     1       5.819   3.401  12.124  0.00  0.00    +0.000 C 
ATOM     13  C   UNL     1       6.970   4.293  11.631  0.00  0.00    +0.000 C 
ATOM     14  C   UNL     1       4.588   3.628  11.228  0.00  0.00    +0.000 C 
ENDBRANCH   7  12
ENDBRANCH   1   8
BRANCH   4  15
ATOM     15  C   UNL     1       3.564   5.499  19.444  0.00  0.00    +0.000 C 
BRANCH  15  16
ATOM     16  N   UNL     1       2.127   5.260  19.399  0.00  0.00    +0.000 NA
ATOM     17  C   UNL     1       1.484   4.893  20.657  0.00  0.00    +0.000 C 
ATOM     18  C   UNL     1       1.305   3.391  20.574  0.00  0.00    +0.000 C 
ATOM     19  C   UNL     1       1.051   3.142  19.099  0.00  0.00    +0.000 C 
ATOM     20  C   UNL     1       1.654   4.339  18.374  0.00  0.00    +0.000 C 
ENDBRANCH  15  16
ENDBRANCH   4  15
TORSDOF 4
ENDMDL
MODEL 5
REMARK VINA RESULT:      -6.2      2.397      7.126
REMARK  Name = 
REMARK  7 active torsions:
REMARK  status: ('A' for Active; 'I' for Inactive)
REMARK    1  A    between atoms: C_1  and  C_2
REMARK    2  A    between atoms: C_2  and  C_3
REMARK    3  A    between atoms: C_2  and  C_4
REMARK    4  A    between atoms: C_2  and  N_5
REMARK    5  A    between atoms: C_6  and  C_8
REMARK    6  A    between atoms: C_11  and  C_12
REMARK    7  A    between atoms: C_12  and  N_13
REMARK                            x       y       z     vdW  Elec       q    Type
REMARK                         _______ _______ _______ _____ _____    ______ ____
ROOT
ATOM      1  C   UNL     1       2.609   7.299  18.929  0.00  0.00    +0.000 A 
ATOM      2  C   UNL     1       1.994   7.551  20.163  0.00  0.00    +0.000 A 
ATOM      3  C   UNL     1       1.122   8.639  20.301  0.00  0.00    +0.000 A 
ATOM      4  C   UNL     1       0.874   9.501  19.223  0.00  0.00    +0.000 A 
ATOM      5  C   UNL     1       1.571   9.292  18.023  0.00  0.00    +0.000 A 
ATOM      6  C   UNL     1       2.420   8.195  17.871  0.00  0.00    +0.000 A 
ENDROOT
BRANCH   1   8
ATOM      7  N   UNL     1       4.085   6.026  17.466  0.00  0.00    +0.000 N 
ATOM      8  C   UNL     1       3.472   6.106  18.701  0.00  0.00    +0.000 C 
ATOM      9  O   UNL     1       3.625   5.295  19.605  0.00  0.00    +0.000 OA
ATOM     10  H   UNL     1       4.048   6.841  16.868  0.00  0.00    +0.000 HD
BRANCH   7  12
ATOM     11  C   UNL     1       4.253   3.586  17.089  0.00  0.00    +0.000 C 
ATOM     12  C   UNL     1       4.987   4.936  17.057  0.00  0.00    +0.000 C 
ATOM     13  C   UNL     1       6.228   4.873  17.963  0.00  0.00    +0.000 C 
ATOM     14  C   UNL     1       5.436   5.200  15.608  0.00  0.00    +0.000 C 
ENDBRANCH   7  12
ENDBRANCH   1   8
BRANCH   4  15
ATOM     15  C   UNL     1      -0.224  10.550  19.287  0.00  0.00    +0.000 C 
BRANCH  15  16
ATOM     16  N   UNL     1      -0.989  10.877  18.089  0.00  0.00    +0.000 NA
ATOM     17  C   UNL     1      -1.804  12.087  18.142  0.00  0.00    +0.000 C 
ATOM     18  C   UNL     1      -3.214  11.591  18.389  0.00  0.00    +0.000 C 
ATOM     19  C   UNL     1      -3.262  10.267  17.649  0.00  0.00    +0.000 C 
ATOM     20  C   UNL     1      -1.813   9.811  17.534  0.00  0.00    +0.000 C 
ENDBRANCH  15  16
ENDBRANCH   4  15
TORSDOF 4
ENDMDL
MODEL 6
REMARK VINA RESULT:      -6.2      4.155      6.947
REMARK  Name = 
REMARK  7 active torsions:
REMARK  status: ('A' for Active; 'I' for Inactive)
REMARK    1  A    between atoms: C_1  and  C_2
REMARK    2  A    between atoms: C_2  and  C_3
REMARK    3  A    between atoms: C_2  and  C_4
REMARK    4  A    between atoms: C_2  and  N_5
REMARK    5  A    between atoms: C_6  and  C_8
REMARK    6  A    between atoms: C_11  and  C_12
REMARK    7  A    between atoms: C_12  and  N_13
REMARK                            x       y       z     vdW  Elec       q    Type
REMARK                         _______ _______ _______ _____ _____    ______ ____
ROOT
ATOM      1  C   UNL     1       5.336   4.760  15.696  0.00  0.00    +0.000 A 
ATOM      2  C   UNL     1       5.024   6.035  16.187  0.00  0.00    +0.000 A 
ATOM      3  C   UNL     1       4.478   6.177  17.469  0.00  0.00    +0.000 A 
ATOM      4  C   UNL     1       4.211   5.053  18.264  0.00  0.00    +0.000 A 
ATOM      5  C   UNL     1       4.439   3.779  17.722  0.00  0.00    +0.000 A 
ATOM      6  C   UNL     1       5.008   3.633  16.456  0.00  0.00    +0.000 A 
ENDROOT
BRANCH   1   8
ATOM      7  N   UNL     1       5.337   3.746  13.479  0.00  0.00    +0.000 N 
ATOM      8  C   UNL     1       6.002   4.558  14.378  0.00  0.00    +0.000 C 
ATOM      9  O   UNL     1       7.056   5.134  14.144  0.00  0.00    +0.000 OA
ATOM     10  H   UNL     1       4.386   3.481  13.699  0.00  0.00    +0.000 HD
BRANCH   7  12
ATOM     11  C   UNL     1       6.295   1.979  12.036  0.00  0.00    +0.000 C 
ATOM     12  C   UNL     1       5.823   3.439  12.123  0.00  0.00    +0.000 C 
ATOM     13  C   UNL     1       6.970   4.379  11.718  0.00  0.00    +0.000 C 
ATOM     14  C   UNL     1       4.652   3.622  11.140  0.00  0.00    +0.000 C 
ENDBRANCH   7  12
ENDBRANCH   1   8
BRANCH   4  15
ATOM     15  C   UNL     1       3.825   5.194  19.727  0.00  0.00    +0.000 C 
BRANCH  15  16
ATOM     16  N   UNL     1       2.440   4.992  20.137  0.00  0.00    +0.000 NA
ATOM     17  C   UNL     1       2.223   4.202  21.345  0.00  0.00    +0.000 C 
ATOM     18  C   UNL     1       1.824   2.830  20.840  0.00  0.00    +0.000 C 
ATOM     19  C   UNL     1       1.051   3.127  19.569  0.00  0.00    +0.000 C 
ATOM     20  C   UNL     1       1.525   4.503  19.115  0.00  0.00    +0.000 C 
ENDBRANCH  15  16
ENDBRANCH   4  15
TORSDOF 4
ENDMDL
MODEL 7
REMARK VINA RESULT:      -6.2      1.819      3.300
REMARK  Name = 
REMARK  7 active torsions:
REMARK  status: ('A' for Active; 'I' for Inactive)
REMARK    1  A    between atoms: C_1  and  C_2
REMARK    2  A    between atoms: C_2  and  C_3
REMARK    3  A    between atoms: C_2  and  C_4
REMARK    4  A    between atoms: C_2  and  N_5
REMARK    5  A    between atoms: C_6  and  C_8
REMARK    6  A    between atoms: C_11  and  C_12
REMARK    7  A    between atoms: C_12  and  N_13
REMARK                            x       y       z     vdW  Elec       q    Type
REMARK                         _______ _______ _______ _____ _____    ______ ____
ROOT
ATOM      1  C   UNL     1       2.575   7.606  18.473  0.00  0.00    +0.000 A 
ATOM      2  C   UNL     1       2.598   6.813  19.628  0.00  0.00    +0.000 A 
ATOM      3  C   UNL     1       3.391   5.660  19.670  0.00  0.00    +0.000 A 
ATOM      4  C   UNL     1       4.148   5.268  18.557  0.00  0.00    +0.000 A 
ATOM      5  C   UNL     1       4.040   6.018  17.375  0.00  0.00    +0.000 A 
ATOM      6  C   UNL     1       3.273   7.183  17.336  0.00  0.00    +0.000 A 
ENDROOT
BRANCH   1   8
ATOM      7  N   UNL     1       1.100   9.232  19.530  0.00  0.00    +0.000 N 
ATOM      8  C   UNL     1       1.822   8.890  18.404  0.00  0.00    +0.000 C 
ATOM      9  O   UNL     1       1.907   9.582  17.398  0.00  0.00    +0.000 OA
ATOM     10  H   UNL     1       1.254   8.691  20.371  0.00  0.00    +0.000 HD
BRANCH   7  12
ATOM     11  C   UNL     1      -0.834  10.490  18.634  0.00  0.00    +0.000 C 
ATOM     12  C   UNL     1       0.307  10.466  19.664  0.00  0.00    +0.000 C 
ATOM     13  C   UNL     1       1.189  11.714  19.490  0.00  0.00    +0.000 C 
ATOM     14  C   UNL     1      -0.319  10.487  21.071  0.00  0.00    +0.000 C 
ENDBRANCH   7  12
ENDBRANCH   1   8
BRANCH   4  15
ATOM     15  C   UNL     1       5.174   4.151  18.652  0.00  0.00    +0.000 C 
BRANCH  15  16
ATOM     16  N   UNL     1       6.591   4.446  18.477  0.00  0.00    +0.000 NA
ATOM     17  C   UNL     1       7.118   5.591  19.214  0.00  0.00    +0.000 C 
ATOM     18  C   UNL     1       7.198   6.704  18.190  0.00  0.00    +0.000 C 
ATOM     19  C   UNL     1       7.535   5.980  16.900  0.00  0.00    +0.000 C 
ATOM     20  C   UNL     1       7.069   4.544  17.104  0.00  0.00    +0.000 C 
ENDBRANCH  15  16
ENDBRANCH   4  15
TORSDOF 4
ENDMDL
MODEL 8
REMARK VINA RESULT:      -6.2      1.489      2.255
REMARK  Name = 
REMARK  7 active torsions:
REMARK  status: ('A' for Active; 'I' for Inactive)
REMARK    1  A    between atoms: C_1  and  C_2
REMARK    2  A    between atoms: C_2  and  C_3
REMARK    3  A    between atoms: C_2  and  C_4
REMARK    4  A    between atoms: C_2  and  N_5
REMARK    5  A    between atoms: C_6  and  C_8
REMARK    6  A    between atoms: C_11  and  C_12
REMARK    7  A    between atoms: C_12  and  N_13
REMARK                            x       y       z     vdW  Elec       q    Type
REMARK                         _______ _______ _______ _____ _____    ______ ____
ROOT
ATOM      1  C   UNL     1       1.500   9.243  19.035  0.00  0.00    +0.000 A 
ATOM      2  C   UNL     1       2.249   8.903  17.900  0.00  0.00    +0.000 A 
ATOM      3  C   UNL     1       2.901   7.665  17.836  0.00  0.00    +0.000 A 
ATOM      4  C   UNL     1       2.839   6.764  18.909  0.00  0.00    +0.000 A 
ATOM      5  C   UNL     1       2.167   7.158  20.076  0.00  0.00    +0.000 A 
ATOM      6  C   UNL     1       1.492   8.379  20.135  0.00  0.00    +0.000 A 
ENDROOT
BRANCH   1   8
ATOM      7  N   UNL     1      -0.623  10.411  18.780  0.00  0.00    +0.000 N 
ATOM      8  C   UNL     1       0.713  10.504  19.119  0.00  0.00    +0.000 C 
ATOM      9  O   UNL     1       1.259  11.527  19.511  0.00  0.00    +0.000 OA
ATOM     10  H   UNL     1      -1.015   9.487  18.660  0.00  0.00    +0.000 HD
BRANCH   7  12
ATOM     11  C   UNL     1      -1.004  12.743  18.044  0.00  0.00    +0.000 C 
ATOM     12  C   UNL     1      -1.568  11.540  18.816  0.00  0.00    +0.000 C 
ATOM     13  C   UNL     1      -1.883  11.955  20.263  0.00  0.00    +0.000 C 
ATOM     14  C   UNL     1      -2.872  11.099  18.126  0.00  0.00    +0.000 C 
ENDBRANCH   7  12
ENDBRANCH   1   8
BRANCH   4  15
ATOM     15  C   UNL     1       3.354   5.341  18.777  0.00  0.00    +0.000 C 
BRANCH  15  16
ATOM     16  N   UNL     1       2.813   4.463  17.745  0.00  0.00    +0.000 NA
ATOM     17  C   UNL     1       1.407   4.093  17.871  0.00  0.00    +0.000 C 
ATOM     18  C   UNL     1       1.427   2.693  18.448  0.00  0.00    +0.000 C 
ATOM     19  C   UNL     1       2.675   2.075  17.845  0.00  0.00    +0.000 C 
ATOM     20  C   UNL     1       3.568   3.249  17.464  0.00  0.00    +0.000 C 
ENDBRANCH  15  16
ENDBRANCH   4  15
TORSDOF 4
ENDMDL
MODEL 9
REMARK VINA RESULT:      -6.2      0.883      1.760
REMARK  Name = 
REMARK  7 active torsions:
REMARK  status: ('A' for Active; 'I' for Inactive)
REMARK    1  A    between atoms: C_1  and  C_2
REMARK    2  A    between atoms: C_2  and  C_3
REMARK    3  A    between atoms: C_2  and  C_4
REMARK    4  A    between atoms: C_2  and  N_5
REMARK    5  A    between atoms: C_6  and  C_8
REMARK    6  A    between atoms: C_11  and  C_12
REMARK    7  A    between atoms: C_12  and  N_13
REMARK                            x       y       z     vdW  Elec       q    Type
REMARK                         _______ _______ _______ _____ _____    ______ ____
ROOT
ATOM      1  C   UNL     1       2.145   8.098  18.949  0.00  0.00    +0.000 A 
ATOM      2  C   UNL     1       2.050   7.124  19.953  0.00  0.00    +0.000 A 
ATOM      3  C   UNL     1       2.806   5.948  19.861  0.00  0.00    +0.000 A 
ATOM      4  C   UNL     1       3.643   5.717  18.760  0.00  0.00    +0.000 A 
ATOM      5  C   UNL     1       3.653   6.656  17.717  0.00  0.00    +0.000 A 
ATOM      6  C   UNL     1       2.923   7.841  17.815  0.00  0.00    +0.000 A 
ENDROOT
BRANCH   1   8
ATOM      7  N   UNL     1       0.777   9.658  20.228  0.00  0.00    +0.000 N 
ATOM      8  C   UNL     1       1.435   9.404  19.040  0.00  0.00    +0.000 C 
ATOM      9  O   UNL     1       1.497  10.187  18.101  0.00  0.00    +0.000 OA
ATOM     10  H   UNL     1       0.951   9.034  21.005  0.00  0.00    +0.000 HD
BRANCH   7  12
ATOM     11  C   UNL     1       0.950  12.122  20.372  0.00  0.00    +0.000 C 
ATOM     12  C   UNL     1       0.035  10.896  20.518  0.00  0.00    +0.000 C 
ATOM     13  C   UNL     1      -0.567  10.865  21.932  0.00  0.00    +0.000 C 
ATOM     14  C   UNL     1      -1.104  11.027  19.490  0.00  0.00    +0.000 C 
ENDBRANCH   7  12
ENDBRANCH   1   8
BRANCH   4  15
ATOM     15  C   UNL     1       4.627   4.559  18.744  0.00  0.00    +0.000 C 
BRANCH  15  16
ATOM     16  N   UNL     1       4.157   3.207  18.463  0.00  0.00    +0.000 NA
ATOM     17  C   UNL     1       3.171   3.065  17.397  0.00  0.00    +0.000 C 
ATOM     18  C   UNL     1       1.846   2.916  18.114  0.00  0.00    +0.000 C 
ATOM     19  C   UNL     1       2.207   2.165  19.382  0.00  0.00    +0.000 C 
ATOM     20  C   UNL     1       3.691   2.431  19.605  0.00  0.00    +0.000 C 
ENDBRANCH  15  16
ENDBRANCH   4  15
TORSDOF 4
ENDMDL
