MODEL 1
REMARK VINA RESULT:      -8.6      0.000      0.000
REMARK  Name = 
REMARK  5 active torsions:
REMARK  status: ('A' for Active; 'I' for Inactive)
REMARK    1  A    between atoms: C_2  and  C_20
REMARK    2  A    between atoms: N_3  and  C_4
REMARK    3  A    between atoms: C_7  and  S_8
REMARK    4  A    between atoms: S_8  and  N_11
REMARK    5  A    between atoms: C_25  and  N_26
REMARK                            x       y       z     vdW  Elec       q    Type
REMARK                         _______ _______ _______ _____ _____    ______ ____
ROOT
ATOM      1  C   UNL     1       7.703   8.232  17.724  0.00  0.00    +0.000 A 
ATOM      2  C   UNL     1       8.168   7.162  18.496  0.00  0.00    +0.000 A 
ATOM      3  C   UNL     1       7.421   5.994  18.626  0.00  0.00    +0.000 A 
ATOM      4  C   UNL     1       6.177   5.897  18.009  0.00  0.00    +0.000 A 
ATOM      5  C   UNL     1       5.702   6.942  17.210  0.00  0.00    +0.000 A 
ATOM      6  C   UNL     1       6.460   8.114  17.081  0.00  0.00    +0.000 A 
ENDROOT
BRANCH   1   9
ATOM      7  O   UNL     1       8.966   9.853  19.817  0.00  0.00    +0.000 OA
ATOM      8  C   UNL     1       8.966  10.164  18.630  0.00  0.00    +0.000 C 
ATOM      9  N   UNL     1       8.434   9.434  17.580  0.00  0.00    +0.000 N 
ATOM     10  H   UNL     1       8.663   9.712  16.635  0.00  0.00    +0.000 HD
BRANCH   8  11
ATOM     11  C   UNL     1       9.656  11.430  18.287  0.00  0.00    +0.000 A 
ATOM     12  C   UNL     1      10.929  11.464  17.709  0.00  0.00    +0.000 A 
ATOM     13  C   UNL     1      11.494  12.695  17.347  0.00  0.00    +0.000 A 
ATOM     14  C   UNL     1      10.799  13.892  17.557  0.00  0.00    +0.000 A 
ATOM     15 CL   UNL     1      11.587  15.362  17.119  0.00  0.00    +0.000 Cl
ATOM     16  C   UNL     1       9.528  13.837  18.128  0.00  0.00    +0.000 A 
ATOM     17  C   UNL     1       8.945  12.620  18.488  0.00  0.00    +0.000 A 
BRANCH  16  18
ATOM     18  N   UNL     1       8.770  15.040  18.389  0.00  0.00    +0.000 N 
ATOM     19  O   UNL     1       7.861  15.324  17.598  0.00  0.00    +0.000 OA
ATOM     20  O   UNL     1       9.060  15.668  19.415  0.00  0.00    +0.000 OA
ENDBRANCH  16  18
ENDBRANCH   8  11
ENDBRANCH   1   9
BRANCH   4  21
ATOM     21  S   UNL     1       5.261   4.387  18.190  0.00  0.00    +0.000 S 
ATOM     22  O   UNL     1       5.438   3.639  16.959  0.00  0.00    +0.000 OA
ATOM     23  O   UNL     1       5.618   3.788  19.458  0.00  0.00    +0.000 OA
BRANCH  21  24
ATOM     24  N   UNL     1       3.660   4.892  18.189  0.00  0.00    +0.000 N 
ATOM     25  C   UNL     1       2.878   4.265  19.154  0.00  0.00    +0.000 A 
ATOM     26  N   UNL     1       2.860   4.805  20.376  0.00  0.00    +0.000 NA
ATOM     27  C   UNL     1       2.175   4.109  21.301  0.00  0.00    +0.000 A 
ATOM     28  C   UNL     1       1.566   2.901  21.045  0.00  0.00    +0.000 A 
ATOM     29  C   UNL     1       1.663   2.450  19.747  0.00  0.00    +0.000 A 
ATOM     30  N   UNL     1       2.293   3.128  18.770  0.00  0.00    +0.000 NA
ATOM     31  H   UNL     1       3.277   4.769  17.260  0.00  0.00    +0.000 HD
ENDBRANCH  21  24
ENDBRANCH   4  21
TORSDOF 5
ENDMDL
MODEL 2
REMARK VINA RESULT:      -8.4      8.391     11.568
REMARK  Name = 
REMARK  5 active torsions:
REMARK  status: ('A' for Active; 'I' for Inactive)
REMARK    1  A    between atoms: C_2  and  C_20
REMARK    2  A    between atoms: N_3  and  C_4
REMARK    3  A    between atoms: C_7  and  S_8
REMARK    4  A    between atoms: S_8  and  N_11
REMARK    5  A    between atoms: C_25  and  N_26
REMARK                            x       y       z     vdW  Elec       q    Type
REMARK                         _______ _______ _______ _____ _____    ______ ____
ROOT
ATOM      1  C   UNL     1       0.584   9.413  21.697  0.00  0.00    +0.000 A 
ATOM      2  C   UNL     1       0.789  10.628  21.036  0.00  0.00    +0.000 A 
ATOM      3  C   UNL     1       0.104  11.779  21.420  0.00  0.00    +0.000 A 
ATOM      4  C   UNL     1      -0.825  11.716  22.456  0.00  0.00    +0.000 A 
ATOM      5  C   UNL     1      -1.027  10.519  23.151  0.00  0.00    +0.000 A 
ATOM      6  C   UNL     1      -0.333   9.366  22.760  0.00  0.00    +0.000 A 
ENDROOT
BRANCH   1   9
ATOM      7  O   UNL     1       1.714   8.709  19.083  0.00  0.00    +0.000 OA
ATOM      8  C   UNL     1       1.726   7.954  20.050  0.00  0.00    +0.000 C 
ATOM      9  N   UNL     1       1.257   8.226  21.323  0.00  0.00    +0.000 N 
ATOM     10  H   UNL     1       1.494   7.589  22.072  0.00  0.00    +0.000 HD
BRANCH   8  11
ATOM     11  C   UNL     1       2.360   6.631  19.835  0.00  0.00    +0.000 A 
ATOM     12  C   UNL     1       3.449   6.446  18.978  0.00  0.00    +0.000 A 
ATOM     13  C   UNL     1       4.043   5.180  18.875  0.00  0.00    +0.000 A 
ATOM     14  C   UNL     1       3.559   4.098  19.621  0.00  0.00    +0.000 A 
ATOM     15 CL   UNL     1       4.325   2.568  19.401  0.00  0.00    +0.000 Cl
ATOM     16  C   UNL     1       2.478   4.305  20.475  0.00  0.00    +0.000 A 
ATOM     17  C   UNL     1       1.877   5.560  20.597  0.00  0.00    +0.000 A 
BRANCH  16  18
ATOM     18  N   UNL     1       1.920   3.223  21.254  0.00  0.00    +0.000 N 
ATOM     19  O   UNL     1       2.357   3.061  22.401  0.00  0.00    +0.000 OA
ATOM     20  O   UNL     1       1.010   2.570  20.728  0.00  0.00    +0.000 OA
ENDBRANCH  16  18
ENDBRANCH   8  11
ENDBRANCH   1   9
BRANCH   4  21
ATOM     21  S   UNL     1      -1.668  13.206  22.924  0.00  0.00    +0.000 S 
ATOM     22  O   UNL     1      -0.820  13.882  23.889  0.00  0.00    +0.000 OA
ATOM     23  O   UNL     1      -2.082  13.892  21.719  0.00  0.00    +0.000 OA
BRANCH  21  24
ATOM     24  N   UNL     1      -2.994  12.655  23.793  0.00  0.00    +0.000 N 
ATOM     25  C   UNL     1      -4.214  13.082  23.276  0.00  0.00    +0.000 A 
ATOM     26  N   UNL     1      -4.765  12.342  22.311  0.00  0.00    +0.000 NA
ATOM     27  C   UNL     1      -5.890  12.847  21.771  0.00  0.00    +0.000 A 
ATOM     28  C   UNL     1      -6.429  14.059  22.138  0.00  0.00    +0.000 A 
ATOM     29  C   UNL     1      -5.762  14.727  23.141  0.00  0.00    +0.000 A 
ATOM     30  N   UNL     1      -4.662  14.247  23.750  0.00  0.00    +0.000 NA
ATOM     31  H   UNL     1      -2.886  12.920  24.763  0.00  0.00    +0.000 HD
ENDBRANCH  21  24
ENDBRANCH   4  21
TORSDOF 5
ENDMDL
MODEL 3
REMARK VINA RESULT:      -8.3      7.994      9.545
REMARK  Name = 
REMARK  5 active torsions:
REMARK  status: ('A' for Active; 'I' for Inactive)
REMARK    1  A    between atoms: C_2  and  C_20
REMARK    2  A    between atoms: N_3  and  C_4
REMARK    3  A    between atoms: C_7  and  S_8
REMARK    4  A    between atoms: S_8  and  N_11
REMARK    5  A    between atoms: C_25  and  N_26
REMARK                            x       y       z     vdW  Elec       q    Type
REMARK                         _______ _______ _______ _____ _____    ______ ____
ROOT
ATOM      1  C   UNL     1       0.663   9.823  20.476  0.00  0.00    +0.000 A 
ATOM      2  C   UNL     1       1.015   8.667  21.180  0.00  0.00    +0.000 A 
ATOM      3  C   UNL     1       1.756   7.655  20.574  0.00  0.00    +0.000 A 
ATOM      4  C   UNL     1       2.126   7.776  19.238  0.00  0.00    +0.000 A 
ATOM      5  C   UNL     1       1.809   8.933  18.520  0.00  0.00    +0.000 A 
ATOM      6  C   UNL     1       1.066   9.948  19.136  0.00  0.00    +0.000 A 
ENDROOT
BRANCH   1   9
ATOM      7  O   UNL     1       0.061  10.261  23.314  0.00  0.00    +0.000 OA
ATOM      8  C   UNL     1      -0.370  10.975  22.414  0.00  0.00    +0.000 C 
ATOM      9  N   UNL     1      -0.097  10.862  21.061  0.00  0.00    +0.000 N 
ATOM     10  H   UNL     1      -0.365  11.622  20.450  0.00  0.00    +0.000 HD
BRANCH   8  11
ATOM     11  C   UNL     1      -1.230  12.105  22.834  0.00  0.00    +0.000 A 
ATOM     12  C   UNL     1      -0.781  13.429  22.857  0.00  0.00    +0.000 A 
ATOM     13  C   UNL     1      -1.669  14.459  23.200  0.00  0.00    +0.000 A 
ATOM     14  C   UNL     1      -3.003  14.177  23.520  0.00  0.00    +0.000 A 
ATOM     15 CL   UNL     1      -4.015  15.499  23.969  0.00  0.00    +0.000 Cl
ATOM     16  C   UNL     1      -3.434  12.852  23.484  0.00  0.00    +0.000 A 
ATOM     17  C   UNL     1      -2.567  11.813  23.138  0.00  0.00    +0.000 A 
BRANCH  16  18
ATOM     18  N   UNL     1      -4.793  12.496  23.825  0.00  0.00    +0.000 N 
ATOM     19  O   UNL     1      -5.652  12.612  22.941  0.00  0.00    +0.000 OA
ATOM     20  O   UNL     1      -4.983  12.054  24.964  0.00  0.00    +0.000 OA
ENDBRANCH  16  18
ENDBRANCH   8  11
ENDBRANCH   1   9
BRANCH   4  21
ATOM     21  S   UNL     1       3.079   6.470  18.505  0.00  0.00    +0.000 S 
ATOM     22  O   UNL     1       3.854   7.068  17.433  0.00  0.00    +0.000 OA
ATOM     23  O   UNL     1       3.749   5.746  19.565  0.00  0.00    +0.000 OA
BRANCH  21  24
ATOM     24  N   UNL     1       1.926   5.512  17.752  0.00  0.00    +0.000 N 
ATOM     25  C   UNL     1       1.903   4.200  18.217  0.00  0.00    +0.000 A 
ATOM     26  N   UNL     1       1.153   3.943  19.293  0.00  0.00    +0.000 NA
ATOM     27  C   UNL     1       1.241   2.688  19.768  0.00  0.00    +0.000 A 
ATOM     28  C   UNL     1       2.071   1.730  19.231  0.00  0.00    +0.000 A 
ATOM     29  C   UNL     1       2.796   2.123  18.127  0.00  0.00    +0.000 A 
ATOM     30  N   UNL     1       2.710   3.350  17.581  0.00  0.00    +0.000 NA
ATOM     31  H   UNL     1       2.069   5.550  16.750  0.00  0.00    +0.000 HD
ENDBRANCH  21  24
ENDBRANCH   4  21
TORSDOF 5
ENDMDL
MODEL 4
REMARK VINA RESULT:      -8.2      8.025      9.584
REMARK  Name = 
REMARK  5 active torsions:
REMARK  status: ('A' for Active; 'I' for Inactive)
REMARK    1  A    between atoms: C_2  and  C_20
REMARK    2  A    between atoms: N_3  and  C_4
REMARK    3  A    between atoms: C_7  and  S_8
REMARK    4  A    between atoms: S_8  and  N_11
REMARK    5  A    between atoms: C_25  and  N_26
REMARK                            x       y       z     vdW  Elec       q    Type
REMARK                         _______ _______ _______ _____ _____    ______ ____
ROOT
ATOM      1  C   UNL     1       0.649   9.862  20.441  0.00  0.00    +0.000 A 
ATOM      2  C   UNL     1       1.036   8.720  21.149  0.00  0.00    +0.000 A 
ATOM      3  C   UNL     1       1.766   7.706  20.531  0.00  0.00    +0.000 A 
ATOM      4  C   UNL     1       2.088   7.812  19.181  0.00  0.00    +0.000 A 
ATOM      5  C   UNL     1       1.735   8.957  18.459  0.00  0.00    +0.000 A 
ATOM      6  C   UNL     1       1.003   9.973  19.087  0.00  0.00    +0.000 A 
ENDROOT
BRANCH   1   9
ATOM      7  O   UNL     1       0.040  10.266  23.283  0.00  0.00    +0.000 OA
ATOM      8  C   UNL     1      -0.378  10.999  22.391  0.00  0.00    +0.000 C 
ATOM      9  N   UNL     1      -0.101  10.903  21.038  0.00  0.00    +0.000 N 
ATOM     10  H   UNL     1      -0.356  11.675  20.438  0.00  0.00    +0.000 HD
BRANCH   8  11
ATOM     11  C   UNL     1      -1.226  12.134  22.825  0.00  0.00    +0.000 A 
ATOM     12  C   UNL     1      -0.828  13.468  22.692  0.00  0.00    +0.000 A 
ATOM     13  C   UNL     1      -1.709  14.495  23.059  0.00  0.00    +0.000 A 
ATOM     14  C   UNL     1      -2.985  14.201  23.559  0.00  0.00    +0.000 A 
ATOM     15 CL   UNL     1      -3.986  15.525  24.024  0.00  0.00    +0.000 Cl
ATOM     16  C   UNL     1      -3.365  12.866  23.677  0.00  0.00    +0.000 A 
ATOM     17  C   UNL     1      -2.505  11.828  23.309  0.00  0.00    +0.000 A 
BRANCH  16  18
ATOM     18  N   UNL     1      -4.660  12.499  24.205  0.00  0.00    +0.000 N 
ATOM     19  O   UNL     1      -4.732  12.245  25.415  0.00  0.00    +0.000 OA
ATOM     20  O   UNL     1      -5.609  12.514  23.411  0.00  0.00    +0.000 OA
ENDBRANCH  16  18
ENDBRANCH   8  11
ENDBRANCH   1   9
BRANCH   4  21
ATOM     21  S   UNL     1       3.028   6.506  18.433  0.00  0.00    +0.000 S 
ATOM     22  O   UNL     1       2.078   5.632  17.769  0.00  0.00    +0.000 OA
ATOM     23  O   UNL     1       4.113   7.098  17.681  0.00  0.00    +0.000 OA
BRANCH  21  24
ATOM     24  N   UNL     1       3.607   5.633  19.745  0.00  0.00    +0.000 N 
ATOM     25  C   UNL     1       3.102   4.337  19.817  0.00  0.00    +0.000 A 
ATOM     26  N   UNL     1       3.745   3.389  19.131  0.00  0.00    +0.000 NA
ATOM     27  C   UNL     1       3.164   2.175  19.147  0.00  0.00    +0.000 A 
ATOM     28  C   UNL     1       1.969   1.915  19.780  0.00  0.00    +0.000 A 
ATOM     29  C   UNL     1       1.405   2.980  20.447  0.00  0.00    +0.000 A 
ATOM     30  N   UNL     1       1.966   4.201  20.505  0.00  0.00    +0.000 NA
ATOM     31  H   UNL     1       3.424   6.153  20.593  0.00  0.00    +0.000 HD
ENDBRANCH  21  24
ENDBRANCH   4  21
TORSDOF 5
ENDMDL
MODEL 5
REMARK VINA RESULT:      -8.2      7.969      9.545
REMARK  Name = 
REMARK  5 active torsions:
REMARK  status: ('A' for Active; 'I' for Inactive)
REMARK    1  A    between atoms: C_2  and  C_20
REMARK    2  A    between atoms: N_3  and  C_4
REMARK    3  A    between atoms: C_7  and  S_8
REMARK    4  A    between atoms: S_8  and  N_11
REMARK    5  A    between atoms: C_25  and  N_26
REMARK                            x       y       z     vdW  Elec       q    Type
REMARK                         _______ _______ _______ _____ _____    ______ ____
ROOT
ATOM      1  C   UNL     1       0.656   9.828  20.375  0.00  0.00    +0.000 A 
ATOM      2  C   UNL     1       1.147   9.924  19.069  0.00  0.00    +0.000 A 
ATOM      3  C   UNL     1       1.887   8.887  18.503  0.00  0.00    +0.000 A 
ATOM      4  C   UNL     1       2.171   7.751  19.256  0.00  0.00    +0.000 A 
ATOM      5  C   UNL     1       1.668   7.620  20.554  0.00  0.00    +0.000 A 
ATOM      6  C   UNL     1       0.923   8.666  21.116  0.00  0.00    +0.000 A 
ENDROOT
BRANCH   1   9
ATOM      7  O   UNL     1       0.170  10.293  23.231  0.00  0.00    +0.000 OA
ATOM      8  C   UNL     1      -0.305  10.993  22.342  0.00  0.00    +0.000 C 
ATOM      9  N   UNL     1      -0.089  10.867  20.980  0.00  0.00    +0.000 N 
ATOM     10  H   UNL     1      -0.389  11.618  20.373  0.00  0.00    +0.000 HD
BRANCH   8  11
ATOM     11  C   UNL     1      -1.158  12.120  22.786  0.00  0.00    +0.000 A 
ATOM     12  C   UNL     1      -0.761  13.457  22.675  0.00  0.00    +0.000 A 
ATOM     13  C   UNL     1      -1.646  14.477  23.052  0.00  0.00    +0.000 A 
ATOM     14  C   UNL     1      -2.925  14.174  23.537  0.00  0.00    +0.000 A 
ATOM     15 CL   UNL     1      -3.932  15.490  24.015  0.00  0.00    +0.000 Cl
ATOM     16  C   UNL     1      -3.304  12.837  23.633  0.00  0.00    +0.000 A 
ATOM     17  C   UNL     1      -2.440  11.806  23.256  0.00  0.00    +0.000 A 
BRANCH  16  18
ATOM     18  N   UNL     1      -4.602  12.460  24.146  0.00  0.00    +0.000 N 
ATOM     19  O   UNL     1      -4.683  12.192  25.352  0.00  0.00    +0.000 OA
ATOM     20  O   UNL     1      -5.545  12.484  23.345  0.00  0.00    +0.000 OA
ENDBRANCH  16  18
ENDBRANCH   8  11
ENDBRANCH   1   9
BRANCH   4  21
ATOM     21  S   UNL     1       3.105   6.448  18.495  0.00  0.00    +0.000 S 
ATOM     22  O   UNL     1       3.864   7.052  17.415  0.00  0.00    +0.000 OA
ATOM     23  O   UNL     1       3.790   5.712  19.536  0.00  0.00    +0.000 OA
BRANCH  21  24
ATOM     24  N   UNL     1       1.935   5.501  17.754  0.00  0.00    +0.000 N 
ATOM     25  C   UNL     1       1.916   4.185  18.205  0.00  0.00    +0.000 A 
ATOM     26  N   UNL     1       1.187   3.919  19.292  0.00  0.00    +0.000 NA
ATOM     27  C   UNL     1       1.280   2.658  19.752  0.00  0.00    +0.000 A 
ATOM     28  C   UNL     1       2.096   1.703  19.188  0.00  0.00    +0.000 A 
ATOM     29  C   UNL     1       2.801   2.106  18.075  0.00  0.00    +0.000 A 
ATOM     30  N   UNL     1       2.708   3.339  17.544  0.00  0.00    +0.000 NA
ATOM     31  H   UNL     1       2.058   5.550  16.750  0.00  0.00    +0.000 HD
ENDBRANCH  21  24
ENDBRANCH   4  21
TORSDOF 5
ENDMDL
MODEL 6
REMARK VINA RESULT:      -8.2      8.057      9.480
REMARK  Name = 
REMARK  5 active torsions:
REMARK  status: ('A' for Active; 'I' for Inactive)
REMARK    1  A    between atoms: C_2  and  C_20
REMARK    2  A    between atoms: N_3  and  C_4
REMARK    3  A    between atoms: C_7  and  S_8
REMARK    4  A    between atoms: S_8  and  N_11
REMARK    5  A    between atoms: C_25  and  N_26
REMARK                            x       y       z     vdW  Elec       q    Type
REMARK                         _______ _______ _______ _____ _____    ______ ____
ROOT
ATOM      1  C   UNL     1       0.381   9.817  20.617  0.00  0.00    +0.000 A 
ATOM      2  C   UNL     1       0.723   9.951  19.267  0.00  0.00    +0.000 A 
ATOM      3  C   UNL     1       1.501   8.989  18.625  0.00  0.00    +0.000 A 
ATOM      4  C   UNL     1       1.976   7.895  19.343  0.00  0.00    +0.000 A 
ATOM      5  C   UNL     1       1.626   7.725  20.686  0.00  0.00    +0.000 A 
ATOM      6  C   UNL     1       0.841   8.694  21.324  0.00  0.00    +0.000 A 
ENDROOT
BRANCH   1   9
ATOM      7  O   UNL     1       1.155  12.520  21.456  0.00  0.00    +0.000 OA
ATOM      8  C   UNL     1       0.058  12.026  21.696  0.00  0.00    +0.000 C 
ATOM      9  N   UNL     1      -0.398  10.781  21.298  0.00  0.00    +0.000 N 
ATOM     10  H   UNL     1      -1.382  10.572  21.402  0.00  0.00    +0.000 HD
BRANCH   8  11
ATOM     11  C   UNL     1      -0.891  12.881  22.447  0.00  0.00    +0.000 A 
ATOM     12  C   UNL     1      -0.616  14.215  22.766  0.00  0.00    +0.000 A 
ATOM     13  C   UNL     1      -1.587  14.987  23.419  0.00  0.00    +0.000 A 
ATOM     14  C   UNL     1      -2.831  14.438  23.757  0.00  0.00    +0.000 A 
ATOM     15 CL   UNL     1      -3.950  15.448  24.595  0.00  0.00    +0.000 Cl
ATOM     16  C   UNL     1      -3.089  13.110  23.424  0.00  0.00    +0.000 A 
ATOM     17  C   UNL     1      -2.137  12.326  22.767  0.00  0.00    +0.000 A 
BRANCH  16  18
ATOM     18  N   UNL     1      -4.345  12.481  23.764  0.00  0.00    +0.000 N 
ATOM     19  O   UNL     1      -5.230  12.470  22.899  0.00  0.00    +0.000 OA
ATOM     20  O   UNL     1      -4.419  11.957  24.883  0.00  0.00    +0.000 OA
ENDBRANCH  16  18
ENDBRANCH   8  11
ENDBRANCH   1   9
BRANCH   4  21
ATOM     21  S   UNL     1       2.954   6.686  18.486  0.00  0.00    +0.000 S 
ATOM     22  O   UNL     1       2.026   5.793  17.818  0.00  0.00    +0.000 OA
ATOM     23  O   UNL     1       3.968   7.381  17.721  0.00  0.00    +0.000 OA
BRANCH  21  24
ATOM     24  N   UNL     1       3.642   5.784  19.723  0.00  0.00    +0.000 N 
ATOM     25  C   UNL     1       3.249   4.448  19.721  0.00  0.00    +0.000 A 
ATOM     26  N   UNL     1       3.949   3.604  18.959  0.00  0.00    +0.000 NA
ATOM     27  C   UNL     1       3.472   2.347  18.908  0.00  0.00    +0.000 A 
ATOM     28  C   UNL     1       2.322   1.945  19.549  0.00  0.00    +0.000 A 
ATOM     29  C   UNL     1       1.690   2.913  20.299  0.00  0.00    +0.000 A 
ATOM     30  N   UNL     1       2.149   4.172  20.425  0.00  0.00    +0.000 NA
ATOM     31  H   UNL     1       3.440   6.231  20.609  0.00  0.00    +0.000 HD
ENDBRANCH  21  24
ENDBRANCH   4  21
TORSDOF 5
ENDMDL
MODEL 7
REMARK VINA RESULT:      -8.1      6.451      7.929
REMARK  Name = 
REMARK  5 active torsions:
REMARK  status: ('A' for Active; 'I' for Inactive)
REMARK    1  A    between atoms: C_2  and  C_20
REMARK    2  A    between atoms: N_3  and  C_4
REMARK    3  A    between atoms: C_7  and  S_8
REMARK    4  A    between atoms: S_8  and  N_11
REMARK    5  A    between atoms: C_25  and  N_26
REMARK                            x       y       z     vdW  Elec       q    Type
REMARK                         _______ _______ _______ _____ _____    ______ ____
ROOT
ATOM      1  C   UNL     1       2.353   7.760  18.876  0.00  0.00    +0.000 A 
ATOM      2  C   UNL     1       2.541   6.720  19.792  0.00  0.00    +0.000 A 
ATOM      3  C   UNL     1       3.471   5.710  19.552  0.00  0.00    +0.000 A 
ATOM      4  C   UNL     1       4.202   5.714  18.367  0.00  0.00    +0.000 A 
ATOM      5  C   UNL     1       4.051   6.756  17.447  0.00  0.00    +0.000 A 
ATOM      6  C   UNL     1       3.116   7.770  17.697  0.00  0.00    +0.000 A 
ENDROOT
BRANCH   1   9
ATOM      7  O   UNL     1       1.392   8.849  21.425  0.00  0.00    +0.000 OA
ATOM      8  C   UNL     1       0.978   9.223  20.331  0.00  0.00    +0.000 C 
ATOM      9  N   UNL     1       1.411   8.793  19.088  0.00  0.00    +0.000 N 
ATOM     10  H   UNL     1       1.120   9.312  18.271  0.00  0.00    +0.000 HD
BRANCH   8  11
ATOM     11  C   UNL     1      -0.057  10.283  20.353  0.00  0.00    +0.000 A 
ATOM     12  C   UNL     1      -0.720  10.715  19.200  0.00  0.00    +0.000 A 
ATOM     13  C   UNL     1      -1.737  11.674  19.303  0.00  0.00    +0.000 A 
ATOM     14  C   UNL     1      -2.100  12.205  20.548  0.00  0.00    +0.000 A 
ATOM     15 CL   UNL     1      -3.334  13.409  20.576  0.00  0.00    +0.000 Cl
ATOM     16  C   UNL     1      -1.433  11.755  21.686  0.00  0.00    +0.000 A 
ATOM     17  C   UNL     1      -0.421  10.795  21.605  0.00  0.00    +0.000 A 
BRANCH  16  18
ATOM     18  N   UNL     1      -1.747  12.280  22.996  0.00  0.00    +0.000 N 
ATOM     19  O   UNL     1      -1.003  13.158  23.452  0.00  0.00    +0.000 OA
ATOM     20  O   UNL     1      -2.769  11.843  23.539  0.00  0.00    +0.000 OA
ENDBRANCH  16  18
ENDBRANCH   8  11
ENDBRANCH   1   9
BRANCH   4  21
ATOM     21  S   UNL     1       5.384   4.417  18.102  0.00  0.00    +0.000 S 
ATOM     22  O   UNL     1       6.400   4.950  17.214  0.00  0.00    +0.000 OA
ATOM     23  O   UNL     1       5.762   3.875  19.390  0.00  0.00    +0.000 OA
BRANCH  21  24
ATOM     24  N   UNL     1       4.537   3.287  17.195  0.00  0.00    +0.000 N 
ATOM     25  C   UNL     1       3.279   2.988  17.713  0.00  0.00    +0.000 A 
ATOM     26  N   UNL     1       2.263   3.775  17.350  0.00  0.00    +0.000 NA
ATOM     27  C   UNL     1       1.090   3.512  17.954  0.00  0.00    +0.000 A 
ATOM     28  C   UNL     1       0.932   2.538  18.913  0.00  0.00    +0.000 A 
ATOM     29  C   UNL     1       2.058   1.799  19.202  0.00  0.00    +0.000 A 
ATOM     30  N   UNL     1       3.244   1.986  18.594  0.00  0.00    +0.000 NA
ATOM     31  H   UNL     1       5.104   2.455  17.090  0.00  0.00    +0.000 HD
ENDBRANCH  21  24
ENDBRANCH   4  21
TORSDOF 5
ENDMDL
MODEL 8
REMARK VINA RESULT:      -8.1      8.450     11.630
REMARK  Name = 
REMARK  5 active torsions:
REMARK  status: ('A' for Active; 'I' for Inactive)
REMARK    1  A    between atoms: C_2  and  C_20
REMARK    2  A    between atoms: N_3  and  C_4
REMARK    3  A    between atoms: C_7  and  S_8
REMARK    4  A    between atoms: S_8  and  N_11
REMARK    5  A    between atoms: C_25  and  N_26
REMARK                            x       y       z     vdW  Elec       q    Type
REMARK                         _______ _______ _______ _____ _____    ______ ____
ROOT
ATOM      1  C   UNL     1       0.166   9.136  21.500  0.00  0.00    +0.000 A 
ATOM      2  C   UNL     1      -0.115   9.437  22.837  0.00  0.00    +0.000 A 
ATOM      3  C   UNL     1      -0.791  10.606  23.182  0.00  0.00    +0.000 A 
ATOM      4  C   UNL     1      -1.165  11.506  22.189  0.00  0.00    +0.000 A 
ATOM      5  C   UNL     1      -0.919  11.215  20.843  0.00  0.00    +0.000 A 
ATOM      6  C   UNL     1      -0.241  10.037  20.503  0.00  0.00    +0.000 A 
ENDROOT
BRANCH   1   9
ATOM      7  O   UNL     1       2.048   8.774  19.279  0.00  0.00    +0.000 OA
ATOM      8  C   UNL     1       1.703   7.864  20.027  0.00  0.00    +0.000 C 
ATOM      9  N   UNL     1       0.858   7.963  21.120  0.00  0.00    +0.000 N 
ATOM     10  H   UNL     1       0.804   7.181  21.759  0.00  0.00    +0.000 HD
BRANCH   8  11
ATOM     11  C   UNL     1       2.299   6.536  19.755  0.00  0.00    +0.000 A 
ATOM     12  C   UNL     1       3.313   6.341  18.812  0.00  0.00    +0.000 A 
ATOM     13  C   UNL     1       3.880   5.069  18.654  0.00  0.00    +0.000 A 
ATOM     14  C   UNL     1       3.442   3.988  19.430  0.00  0.00    +0.000 A 
ATOM     15 CL   UNL     1       4.166   2.450  19.140  0.00  0.00    +0.000 Cl
ATOM     16  C   UNL     1       2.435   4.203  20.369  0.00  0.00    +0.000 A 
ATOM     17  C   UNL     1       1.863   5.465  20.547  0.00  0.00    +0.000 A 
BRANCH  16  18
ATOM     18  N   UNL     1       1.927   3.123  21.185  0.00  0.00    +0.000 N 
ATOM     19  O   UNL     1       0.964   2.481  20.745  0.00  0.00    +0.000 OA
ATOM     20  O   UNL     1       2.530   2.893  22.241  0.00  0.00    +0.000 OA
ENDBRANCH  16  18
ENDBRANCH   8  11
ENDBRANCH   1   9
BRANCH   4  21
ATOM     21  S   UNL     1      -2.034  12.978  22.668  0.00  0.00    +0.000 S 
ATOM     22  O   UNL     1      -1.188  13.672  23.622  0.00  0.00    +0.000 OA
ATOM     23  O   UNL     1      -2.478  13.655  21.469  0.00  0.00    +0.000 OA
BRANCH  21  24
ATOM     24  N   UNL     1      -3.336  12.398  23.554  0.00  0.00    +0.000 N 
ATOM     25  C   UNL     1      -4.557  12.947  23.172  0.00  0.00    +0.000 A 
ATOM     26  N   UNL     1      -5.208  12.357  22.167  0.00  0.00    +0.000 NA
ATOM     27  C   UNL     1      -6.330  12.981  21.765  0.00  0.00    +0.000 A 
ATOM     28  C   UNL     1      -6.773  14.168  22.303  0.00  0.00    +0.000 A 
ATOM     29  C   UNL     1      -6.008  14.677  23.330  0.00  0.00    +0.000 A 
ATOM     30  N   UNL     1      -4.905  14.070  23.805  0.00  0.00    +0.000 NA
ATOM     31  H   UNL     1      -3.154  12.541  24.539  0.00  0.00    +0.000 HD
ENDBRANCH  21  24
ENDBRANCH   4  21
TORSDOF 5
ENDMDL
MODEL 9
REMARK VINA RESULT:      -8.1      8.197     11.204
REMARK  Name = 
REMARK  5 active torsions:
REMARK  status: ('A' for Active; 'I' for Inactive)
REMARK    1  A    between atoms: C_2  and  C_20
REMARK    2  A    between atoms: N_3  and  C_4
REMARK    3  A    between atoms: C_7  and  S_8
REMARK    4  A    between atoms: S_8  and  N_11
REMARK    5  A    between atoms: C_25  and  N_26
REMARK                            x       y       z     vdW  Elec       q    Type
REMARK                         _______ _______ _______ _____ _____    ______ ____
ROOT
ATOM      1  C   UNL     1       0.622   9.089  21.752  0.00  0.00    +0.000 A 
ATOM      2  C   UNL     1       0.832  10.233  20.976  0.00  0.00    +0.000 A 
ATOM      3  C   UNL     1       0.183  11.430  21.272  0.00  0.00    +0.000 A 
ATOM      4  C   UNL     1      -0.714  11.485  22.335  0.00  0.00    +0.000 A 
ATOM      5  C   UNL     1      -0.920  10.362  23.142  0.00  0.00    +0.000 A 
ATOM      6  C   UNL     1      -0.263   9.162  22.840  0.00  0.00    +0.000 A 
ENDROOT
BRANCH   1   9
ATOM      7  O   UNL     1       1.868   8.217  19.243  0.00  0.00    +0.000 OA
ATOM      8  C   UNL     1       1.788   7.506  20.240  0.00  0.00    +0.000 C 
ATOM      9  N   UNL     1       1.258   7.857  21.470  0.00  0.00    +0.000 N 
ATOM     10  H   UNL     1       1.420   7.244  22.258  0.00  0.00    +0.000 HD
BRANCH   8  11
ATOM     11  C   UNL     1       2.368   6.149  20.121  0.00  0.00    +0.000 A 
ATOM     12  C   UNL     1       1.740   5.010  20.636  0.00  0.00    +0.000 A 
ATOM     13  C   UNL     1       2.311   3.747  20.427  0.00  0.00    +0.000 A 
ATOM     14  C   UNL     1       3.505   3.611  19.707  0.00  0.00    +0.000 A 
ATOM     15 CL   UNL     1       4.158   2.024  19.534  0.00  0.00    +0.000 Cl
ATOM     16  C   UNL     1       4.112   4.756  19.195  0.00  0.00    +0.000 A 
ATOM     17  C   UNL     1       3.554   6.022  19.386  0.00  0.00    +0.000 A 
BRANCH  16  18
ATOM     18  N   UNL     1       5.356   4.682  18.462  0.00  0.00    +0.000 N 
ATOM     19  O   UNL     1       5.290   4.672  17.226  0.00  0.00    +0.000 OA
ATOM     20  O   UNL     1       6.396   4.684  19.132  0.00  0.00    +0.000 OA
ENDBRANCH  16  18
ENDBRANCH   8  11
ENDBRANCH   1   9
BRANCH   4  21
ATOM     21  S   UNL     1      -1.511  13.031  22.687  0.00  0.00    +0.000 S 
ATOM     22  O   UNL     1      -0.638  13.756  23.592  0.00  0.00    +0.000 OA
ATOM     23  O   UNL     1      -1.912  13.632  21.433  0.00  0.00    +0.000 OA
BRANCH  21  24
ATOM     24  N   UNL     1      -2.847  12.589  23.602  0.00  0.00    +0.000 N 
ATOM     25  C   UNL     1      -4.045  13.113  23.125  0.00  0.00    +0.000 A 
ATOM     26  N   UNL     1      -4.686  12.418  22.181  0.00  0.00    +0.000 NA
ATOM     27  C   UNL     1      -5.784  13.011  21.677  0.00  0.00    +0.000 A 
ATOM     28  C   UNL     1      -6.211  14.263  22.058  0.00  0.00    +0.000 A 
ATOM     29  C   UNL     1      -5.460  14.877  23.036  0.00  0.00    +0.000 A 
ATOM     30  N   UNL     1      -4.382  14.310  23.609  0.00  0.00    +0.000 NA
ATOM     31  H   UNL     1      -2.685  12.846  24.567  0.00  0.00    +0.000 HD
ENDBRANCH  21  24
ENDBRANCH   4  21
TORSDOF 5
ENDMDL
