MODEL 1
REMARK VINA RESULT:      -7.4      0.000      0.000
REMARK  Name = 
REMARK  3 active torsions:
REMARK  status: ('A' for Active; 'I' for Inactive)
REMARK    1  A    between atoms: C_4  and  C_5
REMARK    2  A    between atoms: C_5  and  C_6
REMARK    3  A    between atoms: C_6  and  N_7
REMARK                            x       y       z     vdW  Elec       q    Type
REMARK                         _______ _______ _______ _____ _____    ______ ____
ROOT
ATOM      1  N   UNL     1       2.465   5.049  19.325  0.00  0.00    +0.000 NA
ATOM      2  C   UNL     1       1.848   4.498  18.106  0.00  0.00    +0.000 C 
ATOM      3  C   UNL     1       1.559   2.993  18.299  0.00  0.00    +0.000 C 
ATOM      4  C   UNL     1       2.858   2.170  18.397  0.00  0.00    +0.000 C 
ATOM      5 SE   UNL     1       4.014   2.617  19.913  0.00  0.00    +0.000 Se
ATOM      6  C   UNL     1       2.558   2.676  21.225  0.00  0.00    +0.000 C 
ATOM      7  C   UNL     1       1.296   3.449  20.780  0.00  0.00    +0.000 C 
ATOM      8  C   UNL     1       0.662   2.801  19.536  0.00  0.00    +0.000 C 
ATOM      9  C   UNL     1       1.582   4.947  20.498  0.00  0.00    +0.000 C 
ENDROOT
BRANCH   1  10
ATOM     10  C   UNL     1       3.243   6.293  19.167  0.00  0.00    +0.000 C 
BRANCH  10  11
ATOM     11  C   UNL     1       3.682   6.607  17.723  0.00  0.00    +0.000 C 
BRANCH  11  15
ATOM     12  C   UNL     1       7.377   4.608  16.696  0.00  0.00    +0.000 A 
ATOM     13  C   UNL     1       6.440   4.896  15.702  0.00  0.00    +0.000 A 
ATOM     14  C   UNL     1       5.246   5.540  16.035  0.00  0.00    +0.000 A 
ATOM     15  C   UNL     1       4.970   5.893  17.372  0.00  0.00    +0.000 A 
ATOM     16  C   UNL     1       5.918   5.593  18.366  0.00  0.00    +0.000 A 
ATOM     17  C   UNL     1       7.117   4.957  18.024  0.00  0.00    +0.000 A 
ENDBRANCH  11  15
ENDBRANCH  10  11
ENDBRANCH   1  10
TORSDOF 3
ENDMDL
MODEL 2
REMARK VINA RESULT:      -7.3      0.071      1.175
REMARK  Name = 
REMARK  3 active torsions:
REMARK  status: ('A' for Active; 'I' for Inactive)
REMARK    1  A    between atoms: C_4  and  C_5
REMARK    2  A    between atoms: C_5  and  C_6
REMARK    3  A    between atoms: C_6  and  N_7
REMARK                            x       y       z     vdW  Elec       q    Type
REMARK                         _______ _______ _______ _____ _____    ______ ____
ROOT
ATOM      1  N   UNL     1       2.492   5.061  19.333  0.00  0.00    +0.000 NA
ATOM      2  C   UNL     1       1.860   4.516  18.118  0.00  0.00    +0.000 C 
ATOM      3  C   UNL     1       1.564   3.012  18.313  0.00  0.00    +0.000 C 
ATOM      4  C   UNL     1       2.857   2.180  18.397  0.00  0.00    +0.000 C 
ATOM      5 SE   UNL     1       4.031   2.617  19.903  0.00  0.00    +0.000 Se
ATOM      6  C   UNL     1       2.588   2.684  21.229  0.00  0.00    +0.000 C 
ATOM      7  C   UNL     1       1.326   3.466  20.796  0.00  0.00    +0.000 C 
ATOM      8  C   UNL     1       0.677   2.824  19.557  0.00  0.00    +0.000 C 
ATOM      9  C   UNL     1       1.619   4.962  20.513  0.00  0.00    +0.000 C 
ENDROOT
BRANCH   1  10
ATOM     10  C   UNL     1       3.277   6.300  19.169  0.00  0.00    +0.000 C 
BRANCH  10  11
ATOM     11  C   UNL     1       3.675   6.631  17.717  0.00  0.00    +0.000 C 
BRANCH  11  15
ATOM     12  C   UNL     1       7.350   4.627  16.632  0.00  0.00    +0.000 A 
ATOM     13  C   UNL     1       7.063   4.879  17.975  0.00  0.00    +0.000 A 
ATOM     14  C   UNL     1       5.877   5.528  18.324  0.00  0.00    +0.000 A 
ATOM     15  C   UNL     1       4.967   5.944  17.330  0.00  0.00    +0.000 A 
ATOM     16  C   UNL     1       5.269   5.690  15.981  0.00  0.00    +0.000 A 
ATOM     17  C   UNL     1       6.454   5.029  15.638  0.00  0.00    +0.000 A 
ENDBRANCH  11  15
ENDBRANCH  10  11
ENDBRANCH   1  10
TORSDOF 3
ENDMDL
MODEL 3
REMARK VINA RESULT:      -7.3      1.213      1.451
REMARK  Name = 
REMARK  3 active torsions:
REMARK  status: ('A' for Active; 'I' for Inactive)
REMARK    1  A    between atoms: C_4  and  C_5
REMARK    2  A    between atoms: C_5  and  C_6
REMARK    3  A    between atoms: C_6  and  N_7
REMARK                            x       y       z     vdW  Elec       q    Type
REMARK                         _______ _______ _______ _____ _____    ______ ____
ROOT
ATOM      1  N   UNL     1       2.500   4.576  18.728  0.00  0.00    +0.000 NA
ATOM      2  C   UNL     1       2.201   3.728  17.560  0.00  0.00    +0.000 C 
ATOM      3  C   UNL     1       2.020   2.262  18.011  0.00  0.00    +0.000 C 
ATOM      4  C   UNL     1       3.340   1.651  18.517  0.00  0.00    +0.000 C 
ATOM      5 SE   UNL     1       4.113   2.525  20.090  0.00  0.00    +0.000 Se
ATOM      6  C   UNL     1       2.418   2.638  21.070  0.00  0.00    +0.000 C 
ATOM      7  C   UNL     1       1.209   3.139  20.248  0.00  0.00    +0.000 C 
ATOM      8  C   UNL     1       0.908   2.190  19.074  0.00  0.00    +0.000 C 
ATOM      9  C   UNL     1       1.407   4.581  19.713  0.00  0.00    +0.000 C 
ENDROOT
BRANCH   1  10
ATOM     10  C   UNL     1       3.176   5.860  18.456  0.00  0.00    +0.000 C 
BRANCH  10  11
ATOM     11  C   UNL     1       4.180   5.832  17.286  0.00  0.00    +0.000 C 
BRANCH  11  15
ATOM     12  C   UNL     1       8.173   6.775  18.649  0.00  0.00    +0.000 A 
ATOM     13  C   UNL     1       7.601   7.507  17.607  0.00  0.00    +0.000 A 
ATOM     14  C   UNL     1       6.312   7.201  17.166  0.00  0.00    +0.000 A 
ATOM     15  C   UNL     1       5.583   6.147  17.757  0.00  0.00    +0.000 A 
ATOM     16  C   UNL     1       6.171   5.414  18.801  0.00  0.00    +0.000 A 
ATOM     17  C   UNL     1       7.460   5.733  19.246  0.00  0.00    +0.000 A 
ENDBRANCH  11  15
ENDBRANCH  10  11
ENDBRANCH   1  10
TORSDOF 3
ENDMDL
MODEL 4
REMARK VINA RESULT:      -7.2      1.179      1.749
REMARK  Name = 
REMARK  3 active torsions:
REMARK  status: ('A' for Active; 'I' for Inactive)
REMARK    1  A    between atoms: C_4  and  C_5
REMARK    2  A    between atoms: C_5  and  C_6
REMARK    3  A    between atoms: C_6  and  N_7
REMARK                            x       y       z     vdW  Elec       q    Type
REMARK                         _______ _______ _______ _____ _____    ______ ____
ROOT
ATOM      1  N   UNL     1       2.482   4.803  18.781  0.00  0.00    +0.000 NA
ATOM      2  C   UNL     1       1.709   3.964  17.849  0.00  0.00    +0.000 C 
ATOM      3  C   UNL     1       1.395   2.602  18.508  0.00  0.00    +0.000 C 
ATOM      4  C   UNL     1       2.667   1.759  18.713  0.00  0.00    +0.000 C 
ATOM      5 SE   UNL     1       4.007   2.550  19.903  0.00  0.00    +0.000 Se
ATOM      6  C   UNL     1       2.716   3.084  21.279  0.00  0.00    +0.000 C 
ATOM      7  C   UNL     1       1.436   3.776  20.755  0.00  0.00    +0.000 C 
ATOM      8  C   UNL     1       0.641   2.838  19.830  0.00  0.00    +0.000 C 
ATOM      9  C   UNL     1       1.738   5.105  20.014  0.00  0.00    +0.000 C 
ENDROOT
BRANCH   1  10
ATOM     10  C   UNL     1       3.277   5.893  18.184  0.00  0.00    +0.000 C 
BRANCH  10  11
ATOM     11  C   UNL     1       4.439   5.432  17.281  0.00  0.00    +0.000 C 
BRANCH  11  15
ATOM     12  C   UNL     1       8.243   6.982  18.631  0.00  0.00    +0.000 A 
ATOM     13  C   UNL     1       7.672   5.880  19.271  0.00  0.00    +0.000 A 
ATOM     14  C   UNL     1       6.442   5.381  18.835  0.00  0.00    +0.000 A 
ATOM     15  C   UNL     1       5.762   5.988  17.759  0.00  0.00    +0.000 A 
ATOM     16  C   UNL     1       6.344   7.101  17.126  0.00  0.00    +0.000 A 
ATOM     17  C   UNL     1       7.582   7.589  17.561  0.00  0.00    +0.000 A 
ENDBRANCH  11  15
ENDBRANCH  10  11
ENDBRANCH   1  10
TORSDOF 3
ENDMDL
MODEL 5
REMARK VINA RESULT:      -7.1      0.850      1.383
REMARK  Name = 
REMARK  3 active torsions:
REMARK  status: ('A' for Active; 'I' for Inactive)
REMARK    1  A    between atoms: C_4  and  C_5
REMARK    2  A    between atoms: C_5  and  C_6
REMARK    3  A    between atoms: C_6  and  N_7
REMARK                            x       y       z     vdW  Elec       q    Type
REMARK                         _______ _______ _______ _____ _____    ______ ____
ROOT
ATOM      1  N   UNL     1       2.624   4.973  19.419  0.00  0.00    +0.000 NA
ATOM      2  C   UNL     1       1.942   4.470  18.214  0.00  0.00    +0.000 C 
ATOM      3  C   UNL     1       1.519   2.999  18.428  0.00  0.00    +0.000 C 
ATOM      4  C   UNL     1       2.736   2.061  18.518  0.00  0.00    +0.000 C 
ATOM      5 SE   UNL     1       3.950   2.414  20.014  0.00  0.00    +0.000 Se
ATOM      6  C   UNL     1       2.524   2.621  21.344  0.00  0.00    +0.000 C 
ATOM      7  C   UNL     1       1.332   3.503  20.906  0.00  0.00    +0.000 C 
ATOM      8  C   UNL     1       0.624   2.904  19.678  0.00  0.00    +0.000 C 
ATOM      9  C   UNL     1       1.751   4.964  20.604  0.00  0.00    +0.000 C 
ENDROOT
BRANCH   1  10
ATOM     10  C   UNL     1       3.511   6.139  19.237  0.00  0.00    +0.000 C 
BRANCH  10  11
ATOM     11  C   UNL     1       4.999   5.796  19.017  0.00  0.00    +0.000 C 
BRANCH  11  15
ATOM     12  C   UNL     1       5.786   4.930  14.855  0.00  0.00    +0.000 A 
ATOM     13  C   UNL     1       6.038   3.962  15.828  0.00  0.00    +0.000 A 
ATOM     14  C   UNL     1       5.785   4.243  17.172  0.00  0.00    +0.000 A 
ATOM     15  C   UNL     1       5.287   5.504  17.561  0.00  0.00    +0.000 A 
ATOM     16  C   UNL     1       5.042   6.473  16.572  0.00  0.00    +0.000 A 
ATOM     17  C   UNL     1       5.287   6.181  15.225  0.00  0.00    +0.000 A 
ENDBRANCH  11  15
ENDBRANCH  10  11
ENDBRANCH   1  10
TORSDOF 3
ENDMDL
MODEL 6
REMARK VINA RESULT:      -6.9      2.416      4.266
REMARK  Name = 
REMARK  3 active torsions:
REMARK  status: ('A' for Active; 'I' for Inactive)
REMARK    1  A    between atoms: C_4  and  C_5
REMARK    2  A    between atoms: C_5  and  C_6
REMARK    3  A    between atoms: C_6  and  N_7
REMARK                            x       y       z     vdW  Elec       q    Type
REMARK                         _______ _______ _______ _____ _____    ______ ____
ROOT
ATOM      1  N   UNL     1       2.486   4.946  19.346  0.00  0.00    +0.000 NA
ATOM      2  C   UNL     1       1.964   4.435  18.066  0.00  0.00    +0.000 C 
ATOM      3  C   UNL     1       1.689   2.919  18.182  0.00  0.00    +0.000 C 
ATOM      4  C   UNL     1       2.991   2.111  18.339  0.00  0.00    +0.000 C 
ATOM      5 SE   UNL     1       4.032   2.514  19.948  0.00  0.00    +0.000 Se
ATOM      6  C   UNL     1       2.488   2.502  21.156  0.00  0.00    +0.000 C 
ATOM      7  C   UNL     1       1.246   3.273  20.653  0.00  0.00    +0.000 C 
ATOM      8  C   UNL     1       0.711   2.666  19.344  0.00  0.00    +0.000 C 
ATOM      9  C   UNL     1       1.526   4.785  20.449  0.00  0.00    +0.000 C 
ENDROOT
BRANCH   1  10
ATOM     10  C   UNL     1       3.252   6.206  19.291  0.00  0.00    +0.000 C 
BRANCH  10  11
ATOM     11  C   UNL     1       2.802   7.193  18.195  0.00  0.00    +0.000 C 
BRANCH  11  15
ATOM     12  C   UNL     1       0.292  10.322  19.810  0.00  0.00    +0.000 A 
ATOM     13  C   UNL     1       0.583  10.296  18.445  0.00  0.00    +0.000 A 
ATOM     14  C   UNL     1       1.395   9.286  17.925  0.00  0.00    +0.000 A 
ATOM     15  C   UNL     1       1.937   8.295  18.769  0.00  0.00    +0.000 A 
ATOM     16  C   UNL     1       1.642   8.334  20.143  0.00  0.00    +0.000 A 
ATOM     17  C   UNL     1       0.818   9.343  20.656  0.00  0.00    +0.000 A 
ENDBRANCH  11  15
ENDBRANCH  10  11
ENDBRANCH   1  10
TORSDOF 3
ENDMDL
MODEL 7
REMARK VINA RESULT:      -6.7      2.489      4.424
REMARK  Name = 
REMARK  3 active torsions:
REMARK  status: ('A' for Active; 'I' for Inactive)
REMARK    1  A    between atoms: C_4  and  C_5
REMARK    2  A    between atoms: C_5  and  C_6
REMARK    3  A    between atoms: C_6  and  N_7
REMARK                            x       y       z     vdW  Elec       q    Type
REMARK                         _______ _______ _______ _____ _____    ______ ____
ROOT
ATOM      1  N   UNL     1       2.398   5.008  19.328  0.00  0.00    +0.000 NA
ATOM      2  C   UNL     1       1.840   4.472  18.073  0.00  0.00    +0.000 C 
ATOM      3  C   UNL     1       1.635   2.946  18.201  0.00  0.00    +0.000 C 
ATOM      4  C   UNL     1       2.975   2.195  18.298  0.00  0.00    +0.000 C 
ATOM      5 SE   UNL     1       4.071   2.645  19.857  0.00  0.00    +0.000 Se
ATOM      6  C   UNL     1       2.587   2.569  21.136  0.00  0.00    +0.000 C 
ATOM      7  C   UNL     1       1.291   3.287  20.691  0.00  0.00    +0.000 C 
ATOM      8  C   UNL     1       0.723   2.654  19.408  0.00  0.00    +0.000 C 
ATOM      9  C   UNL     1       1.497   4.808  20.474  0.00  0.00    +0.000 C 
ENDROOT
BRANCH   1  10
ATOM     10  C   UNL     1       3.107   6.299  19.237  0.00  0.00    +0.000 C 
BRANCH  10  11
ATOM     11  C   UNL     1       2.576   7.257  18.152  0.00  0.00    +0.000 C 
BRANCH  11  15
ATOM     12  C   UNL     1       0.712  10.727  19.935  0.00  0.00    +0.000 A 
ATOM     13  C   UNL     1       0.839   9.548  20.672  0.00  0.00    +0.000 A 
ATOM     14  C   UNL     1       1.440   8.427  20.094  0.00  0.00    +0.000 A 
ATOM     15  C   UNL     1       1.910   8.470  18.765  0.00  0.00    +0.000 A 
ATOM     16  C   UNL     1       1.772   9.661  18.031  0.00  0.00    +0.000 A 
ATOM     17  C   UNL     1       1.179  10.784  18.620  0.00  0.00    +0.000 A 
ENDBRANCH  11  15
ENDBRANCH  10  11
ENDBRANCH   1  10
TORSDOF 3
ENDMDL
MODEL 8
REMARK VINA RESULT:      -6.7      2.248      4.516
REMARK  Name = 
REMARK  3 active torsions:
REMARK  status: ('A' for Active; 'I' for Inactive)
REMARK    1  A    between atoms: C_4  and  C_5
REMARK    2  A    between atoms: C_5  and  C_6
REMARK    3  A    between atoms: C_6  and  N_7
REMARK                            x       y       z     vdW  Elec       q    Type
REMARK                         _______ _______ _______ _____ _____    ______ ____
ROOT
ATOM      1  N   UNL     1       3.712   4.475  18.714  0.00  0.00    +0.000 NA
ATOM      2  C   UNL     1       4.700   3.561  19.313  0.00  0.00    +0.000 C 
ATOM      3  C   UNL     1       4.007   2.248  19.742  0.00  0.00    +0.000 C 
ATOM      4  C   UNL     1       3.031   2.473  20.912  0.00  0.00    +0.000 C 
ATOM      5 SE   UNL     1       1.538   3.681  20.532  0.00  0.00    +0.000 Se
ATOM      6  C   UNL     1       1.119   2.888  18.788  0.00  0.00    +0.000 C 
ATOM      7  C   UNL     1       2.335   2.621  17.872  0.00  0.00    +0.000 C 
ATOM      8  C   UNL     1       3.307   1.621  18.522  0.00  0.00    +0.000 C 
ATOM      9  C   UNL     1       3.097   3.919  17.499  0.00  0.00    +0.000 C 
ENDROOT
BRANCH   1  10
ATOM     10  C   UNL     1       4.061   5.909  18.704  0.00  0.00    +0.000 C 
BRANCH  10  11
ATOM     11  C   UNL     1       3.239   6.772  17.725  0.00  0.00    +0.000 C 
BRANCH  11  15
ATOM     12  C   UNL     1       0.766   9.602  19.863  0.00  0.00    +0.000 A 
ATOM     13  C   UNL     1       1.276   8.483  20.524  0.00  0.00    +0.000 A 
ATOM     14  C   UNL     1       2.073   7.568  19.832  0.00  0.00    +0.000 A 
ATOM     15  C   UNL     1       2.360   7.757  18.464  0.00  0.00    +0.000 A 
ATOM     16  C   UNL     1       1.837   8.885  17.808  0.00  0.00    +0.000 A 
ATOM     17  C   UNL     1       1.047   9.803  18.510  0.00  0.00    +0.000 A 
ENDBRANCH  11  15
ENDBRANCH  10  11
ENDBRANCH   1  10
TORSDOF 3
ENDMDL
MODEL 9
REMARK VINA RESULT:      -6.6      1.261      2.201
REMARK  Name = 
REMARK  3 active torsions:
REMARK  status: ('A' for Active; 'I' for Inactive)
REMARK    1  A    between atoms: C_4  and  C_5
REMARK    2  A    between atoms: C_5  and  C_6
REMARK    3  A    between atoms: C_6  and  N_7
REMARK                            x       y       z     vdW  Elec       q    Type
REMARK                         _______ _______ _______ _____ _____    ______ ____
ROOT
ATOM      1  N   UNL     1       3.102   4.943  19.762  0.00  0.00    +0.000 NA
ATOM      2  C   UNL     1       2.136   4.917  20.874  0.00  0.00    +0.000 C 
ATOM      3  C   UNL     1       1.585   3.485  21.056  0.00  0.00    +0.000 C 
ATOM      4  C   UNL     1       0.710   3.053  19.865  0.00  0.00    +0.000 C 
ATOM      5 SE   UNL     1       1.632   2.977  18.139  0.00  0.00    +0.000 Se
ATOM      6  C   UNL     1       3.214   2.049  18.832  0.00  0.00    +0.000 C 
ATOM      7  C   UNL     1       3.789   2.614  20.152  0.00  0.00    +0.000 C 
ATOM      8  C   UNL     1       2.758   2.515  21.290  0.00  0.00    +0.000 C 
ATOM      9  C   UNL     1       4.270   4.082  20.013  0.00  0.00    +0.000 C 
ENDROOT
BRANCH   1  10
ATOM     10  C   UNL     1       3.348   6.254  19.131  0.00  0.00    +0.000 C 
BRANCH  10  11
ATOM     11  C   UNL     1       3.350   6.244  17.589  0.00  0.00    +0.000 C 
BRANCH  11  15
ATOM     12  C   UNL     1       7.098   4.710  16.076  0.00  0.00    +0.000 A 
ATOM     13  C   UNL     1       7.066   5.931  16.751  0.00  0.00    +0.000 A 
ATOM     14  C   UNL     1       5.855   6.427  17.238  0.00  0.00    +0.000 A 
ATOM     15  C   UNL     1       4.656   5.710  17.044  0.00  0.00    +0.000 A 
ATOM     16  C   UNL     1       4.699   4.483  16.358  0.00  0.00    +0.000 A 
ATOM     17  C   UNL     1       5.918   3.987  15.882  0.00  0.00    +0.000 A 
ENDBRANCH  11  15
ENDBRANCH  10  11
ENDBRANCH   1  10
TORSDOF 3
ENDMDL
