MODEL 1
REMARK VINA RESULT:      -6.5      0.000      0.000
REMARK  Name = 
REMARK  5 active torsions:
REMARK  status: ('A' for Active; 'I' for Inactive)
REMARK    1  A    between atoms: C_1  and  N_2
REMARK    2  A    between atoms: N_2  and  C_3
REMARK    3  A    between atoms: N_2  and  C_11
REMARK    4  A    between atoms: C_3  and  C_4
REMARK    5  A    between atoms: C_4  and  N_5
REMARK                            x       y       z     vdW  Elec       q    Type
REMARK                         _______ _______ _______ _____ _____    ______ ____
ROOT
ATOM      1  C   UNL     1       4.207   3.373  17.142  0.00  0.00    +0.000 C 
ATOM      2  N   UNL     1       3.947   3.368  18.582  0.00  0.00    +0.000 NA
ENDROOT
BRANCH   2   3
ATOM      3  C   UNL     1       2.771   4.157  19.025  0.00  0.00    +0.000 C 
ATOM      4  C   UNL     1       2.572   4.191  20.559  0.00  0.00    +0.000 C 
ATOM      5  C   UNL     1       1.667   3.096  21.124  0.00  0.00    +0.000 C 
ATOM      6  N   UNL     1       0.397   2.973  20.410  0.00  0.00    +0.000 NA
ATOM      7  C   UNL     1       0.615   2.755  18.979  0.00  0.00    +0.000 C 
ATOM      8  C   UNL     1       1.417   3.884  18.341  0.00  0.00    +0.000 C 
ATOM      9  H   UNL     1      -0.138   3.832  20.537  0.00  0.00    +0.000 HD
ENDBRANCH   2   3
BRANCH   2  10
ATOM     10  C   UNL     1       5.218   3.687  19.275  0.00  0.00    +0.000 C 
BRANCH  10  11
ATOM     11  C   UNL     1       5.789   5.126  19.139  0.00  0.00    +0.000 C 
BRANCH  11  12
ATOM     12  N   UNL     1       7.208   5.119  18.721  0.00  0.00    +0.000 NA
ATOM     13  C   UNL     1       7.851   6.452  18.726  0.00  0.00    +0.000 C 
ATOM     14  C   UNL     1       7.479   7.342  17.529  0.00  0.00    +0.000 C 
ATOM     15  O   UNL     1       7.784   6.688  16.293  0.00  0.00    +0.000 OA
ATOM     16  C   UNL     1       7.078   5.448  16.199  0.00  0.00    +0.000 C 
ATOM     17  C   UNL     1       7.400   4.516  17.382  0.00  0.00    +0.000 C 
ENDBRANCH  11  12
ENDBRANCH  10  11
ENDBRANCH   2  10
TORSDOF 4
ENDMDL
MODEL 2
REMARK VINA RESULT:      -6.2      1.734      2.417
REMARK  Name = 
REMARK  5 active torsions:
REMARK  status: ('A' for Active; 'I' for Inactive)
REMARK    1  A    between atoms: C_1  and  N_2
REMARK    2  A    between atoms: N_2  and  C_3
REMARK    3  A    between atoms: N_2  and  C_11
REMARK    4  A    between atoms: C_3  and  C_4
REMARK    5  A    between atoms: C_4  and  N_5
REMARK                            x       y       z     vdW  Elec       q    Type
REMARK                         _______ _______ _______ _____ _____    ______ ____
ROOT
ATOM      1  C   UNL     1       2.338   6.833  19.802  0.00  0.00    +0.000 C 
ATOM      2  N   UNL     1       2.707   5.635  19.048  0.00  0.00    +0.000 NA
ENDROOT
BRANCH   2   3
ATOM      3  C   UNL     1       1.605   4.676  18.786  0.00  0.00    +0.000 C 
ATOM      4  C   UNL     1       1.204   3.821  20.012  0.00  0.00    +0.000 C 
ATOM      5  C   UNL     1       1.930   2.481  20.139  0.00  0.00    +0.000 C 
ATOM      6  N   UNL     1       1.921   1.703  18.901  0.00  0.00    +0.000 NA
ATOM      7  C   UNL     1       2.480   2.472  17.789  0.00  0.00    +0.000 C 
ATOM      8  C   UNL     1       1.714   3.769  17.545  0.00  0.00    +0.000 C 
ATOM      9  H   UNL     1       0.959   1.447  18.678  0.00  0.00    +0.000 HD
ENDBRANCH   2   3
BRANCH   2  10
ATOM     10  C   UNL     1       3.914   5.050  19.683  0.00  0.00    +0.000 C 
BRANCH  10  11
ATOM     11  C   UNL     1       5.182   4.851  18.808  0.00  0.00    +0.000 C 
BRANCH  11  12
ATOM     12  N   UNL     1       5.019   5.435  17.459  0.00  0.00    +0.000 NA
ATOM     13  C   UNL     1       5.482   4.562  16.358  0.00  0.00    +0.000 C 
ATOM     14  C   UNL     1       7.007   4.518  16.178  0.00  0.00    +0.000 C 
ATOM     15  O   UNL     1       7.536   5.833  15.977  0.00  0.00    +0.000 OA
ATOM     16  C   UNL     1       7.213   6.674  17.088  0.00  0.00    +0.000 C 
ATOM     17  C   UNL     1       5.693   6.747  17.327  0.00  0.00    +0.000 C 
ENDBRANCH  11  12
ENDBRANCH  10  11
ENDBRANCH   2  10
TORSDOF 4
ENDMDL
MODEL 3
REMARK VINA RESULT:      -6.2      1.276      1.498
REMARK  Name = 
REMARK  5 active torsions:
REMARK  status: ('A' for Active; 'I' for Inactive)
REMARK    1  A    between atoms: C_1  and  N_2
REMARK    2  A    between atoms: N_2  and  C_3
REMARK    3  A    between atoms: N_2  and  C_11
REMARK    4  A    between atoms: C_3  and  C_4
REMARK    5  A    between atoms: C_4  and  N_5
REMARK                            x       y       z     vdW  Elec       q    Type
REMARK                         _______ _______ _______ _____ _____    ______ ____
ROOT
ATOM      1  C   UNL     1       3.060   6.491  18.762  0.00  0.00    +0.000 C 
ATOM      2  N   UNL     1       2.799   5.123  18.311  0.00  0.00    +0.000 NA
ENDROOT
BRANCH   2   3
ATOM      3  C   UNL     1       1.632   4.453  18.937  0.00  0.00    +0.000 C 
ATOM      4  C   UNL     1       1.429   4.797  20.432  0.00  0.00    +0.000 C 
ATOM      5  C   UNL     1       2.115   3.850  21.418  0.00  0.00    +0.000 C 
ATOM      6  N   UNL     1       1.851   2.439  21.140  0.00  0.00    +0.000 NA
ATOM      7  C   UNL     1       2.226   2.092  19.768  0.00  0.00    +0.000 C 
ATOM      8  C   UNL     1       1.479   2.933  18.738  0.00  0.00    +0.000 C 
ATOM      9  H   UNL     1       0.856   2.258  21.268  0.00  0.00    +0.000 HD
ENDBRANCH   2   3
BRANCH   2  10
ATOM     10  C   UNL     1       4.074   4.368  18.385  0.00  0.00    +0.000 C 
BRANCH  10  11
ATOM     11  C   UNL     1       5.261   5.003  19.159  0.00  0.00    +0.000 C 
BRANCH  11  12
ATOM     12  N   UNL     1       6.566   4.641  18.563  0.00  0.00    +0.000 NA
ATOM     13  C   UNL     1       7.645   5.619  18.820  0.00  0.00    +0.000 C 
ATOM     14  C   UNL     1       7.575   6.886  17.952  0.00  0.00    +0.000 C 
ATOM     15  O   UNL     1       7.578   6.551  16.560  0.00  0.00    +0.000 OA
ATOM     16  C   UNL     1       6.469   5.702  16.251  0.00  0.00    +0.000 C 
ATOM     17  C   UNL     1       6.477   4.419  17.102  0.00  0.00    +0.000 C 
ENDBRANCH  11  12
ENDBRANCH  10  11
ENDBRANCH   2  10
TORSDOF 4
ENDMDL
MODEL 4
REMARK VINA RESULT:      -6.2      1.718      2.215
REMARK  Name = 
REMARK  5 active torsions:
REMARK  status: ('A' for Active; 'I' for Inactive)
REMARK    1  A    between atoms: C_1  and  N_2
REMARK    2  A    between atoms: N_2  and  C_3
REMARK    3  A    between atoms: N_2  and  C_11
REMARK    4  A    between atoms: C_3  and  C_4
REMARK    5  A    between atoms: C_4  and  N_5
REMARK                            x       y       z     vdW  Elec       q    Type
REMARK                         _______ _______ _______ _____ _____    ______ ____
ROOT
ATOM      1  C   UNL     1       1.790   6.355  20.506  0.00  0.00    +0.000 C 
ATOM      2  N   UNL     1       2.431   5.249  19.795  0.00  0.00    +0.000 NA
ENDROOT
BRANCH   2   3
ATOM      3  C   UNL     1       2.199   3.899  20.365  0.00  0.00    +0.000 C 
ATOM      4  C   UNL     1       3.362   2.904  20.135  0.00  0.00    +0.000 C 
ATOM      5  C   UNL     1       3.253   2.054  18.869  0.00  0.00    +0.000 C 
ATOM      6  N   UNL     1       1.947   1.414  18.716  0.00  0.00    +0.000 NA
ATOM      7  C   UNL     1       0.868   2.402  18.751  0.00  0.00    +0.000 C 
ATOM      8  C   UNL     1       0.861   3.200  20.050  0.00  0.00    +0.000 C 
ATOM      9  H   UNL     1       1.813   0.749  19.478  0.00  0.00    +0.000 HD
ENDBRANCH   2   3
BRANCH   2  10
ATOM     10  C   UNL     1       3.854   5.607  19.582  0.00  0.00    +0.000 C 
BRANCH  10  11
ATOM     11  C   UNL     1       4.386   5.674  18.124  0.00  0.00    +0.000 C 
BRANCH  11  12
ATOM     12  N   UNL     1       5.614   4.868  17.947  0.00  0.00    +0.000 NA
ATOM     13  C   UNL     1       6.866   5.586  18.276  0.00  0.00    +0.000 C 
ATOM     14  C   UNL     1       7.334   6.577  17.198  0.00  0.00    +0.000 C 
ATOM     15  O   UNL     1       7.497   5.918  15.937  0.00  0.00    +0.000 OA
ATOM     16  C   UNL     1       6.266   5.317  15.527  0.00  0.00    +0.000 C 
ATOM     17  C   UNL     1       5.738   4.321  16.577  0.00  0.00    +0.000 C 
ENDBRANCH  11  12
ENDBRANCH  10  11
ENDBRANCH   2  10
TORSDOF 4
ENDMDL
MODEL 5
REMARK VINA RESULT:      -6.0      2.753      6.136
REMARK  Name = 
REMARK  5 active torsions:
REMARK  status: ('A' for Active; 'I' for Inactive)
REMARK    1  A    between atoms: C_1  and  N_2
REMARK    2  A    between atoms: N_2  and  C_3
REMARK    3  A    between atoms: N_2  and  C_11
REMARK    4  A    between atoms: C_3  and  C_4
REMARK    5  A    between atoms: C_4  and  N_5
REMARK                            x       y       z     vdW  Elec       q    Type
REMARK                         _______ _______ _______ _____ _____    ______ ____
ROOT
ATOM      1  C   UNL     1       3.272   7.267  17.907  0.00  0.00    +0.000 C 
ATOM      2  N   UNL     1       4.203   6.148  17.757  0.00  0.00    +0.000 NA
ENDROOT
BRANCH   2   3
ATOM      3  C   UNL     1       5.371   6.399  16.876  0.00  0.00    +0.000 C 
ATOM      4  C   UNL     1       5.523   5.382  15.719  0.00  0.00    +0.000 C 
ATOM      5  C   UNL     1       6.403   4.170  16.028  0.00  0.00    +0.000 C 
ATOM      6  N   UNL     1       7.693   4.529  16.615  0.00  0.00    +0.000 NA
ATOM      7  C   UNL     1       7.517   5.341  17.820  0.00  0.00    +0.000 C 
ATOM      8  C   UNL     1       6.743   6.625  17.540  0.00  0.00    +0.000 C 
ATOM      9  H   UNL     1       8.230   5.062  15.931  0.00  0.00    +0.000 HD
ENDBRANCH   2   3
BRANCH   2  10
ATOM     10  C   UNL     1       3.413   4.938  17.426  0.00  0.00    +0.000 C 
BRANCH  10  11
ATOM     11  C   UNL     1       2.097   4.682  18.212  0.00  0.00    +0.000 C 
BRANCH  11  12
ATOM     12  N   UNL     1       1.896   3.244  18.498  0.00  0.00    +0.000 NA
ATOM     13  C   UNL     1       0.861   2.965  19.517  0.00  0.00    +0.000 C 
ATOM     14  C   UNL     1       1.310   3.214  20.966  0.00  0.00    +0.000 C 
ATOM     15  O   UNL     1       2.480   2.448  21.275  0.00  0.00    +0.000 OA
ATOM     16  C   UNL     1       3.545   2.786  20.383  0.00  0.00    +0.000 C 
ATOM     17  C   UNL     1       3.148   2.570  18.911  0.00  0.00    +0.000 C 
ENDBRANCH  11  12
ENDBRANCH  10  11
ENDBRANCH   2  10
TORSDOF 4
ENDMDL
MODEL 6
REMARK VINA RESULT:      -6.0      1.135      1.659
REMARK  Name = 
REMARK  5 active torsions:
REMARK  status: ('A' for Active; 'I' for Inactive)
REMARK    1  A    between atoms: C_1  and  N_2
REMARK    2  A    between atoms: N_2  and  C_3
REMARK    3  A    between atoms: N_2  and  C_11
REMARK    4  A    between atoms: C_3  and  C_4
REMARK    5  A    between atoms: C_4  and  N_5
REMARK                            x       y       z     vdW  Elec       q    Type
REMARK                         _______ _______ _______ _____ _____    ______ ____
ROOT
ATOM      1  C   UNL     1       4.286   2.425  19.791  0.00  0.00    +0.000 C 
ATOM      2  N   UNL     1       4.195   3.788  19.269  0.00  0.00    +0.000 NA
ENDROOT
BRANCH   2   3
ATOM      3  C   UNL     1       2.879   4.453  19.437  0.00  0.00    +0.000 C 
ATOM      4  C   UNL     1       2.320   4.399  20.879  0.00  0.00    +0.000 C 
ATOM      5  C   UNL     1       1.413   3.206  21.183  0.00  0.00    +0.000 C 
ATOM      6  N   UNL     1       0.366   3.009  20.182  0.00  0.00    +0.000 NA
ATOM      7  C   UNL     1       0.936   2.877  18.841  0.00  0.00    +0.000 C 
ATOM      8  C   UNL     1       1.757   4.099  18.442  0.00  0.00    +0.000 C 
ATOM      9  H   UNL     1      -0.262   3.813  20.198  0.00  0.00    +0.000 HD
ENDBRANCH   2   3
BRANCH   2  10
ATOM     10  C   UNL     1       4.726   3.783  17.884  0.00  0.00    +0.000 C 
BRANCH  10  11
ATOM     11  C   UNL     1       5.200   5.130  17.272  0.00  0.00    +0.000 C 
BRANCH  11  12
ATOM     12  N   UNL     1       6.651   5.125  16.985  0.00  0.00    +0.000 NA
ATOM     13  C   UNL     1       7.497   4.716  18.128  0.00  0.00    +0.000 C 
ATOM     14  C   UNL     1       7.690   5.803  19.198  0.00  0.00    +0.000 C 
ATOM     15  O   UNL     1       8.238   6.994  18.622  0.00  0.00    +0.000 OA
ATOM     16  C   UNL     1       7.377   7.489  17.592  0.00  0.00    +0.000 C 
ATOM     17  C   UNL     1       7.134   6.436  16.495  0.00  0.00    +0.000 C 
ENDBRANCH  11  12
ENDBRANCH  10  11
ENDBRANCH   2  10
TORSDOF 4
ENDMDL
MODEL 7
REMARK VINA RESULT:      -6.0      2.508      6.111
REMARK  Name = 
REMARK  5 active torsions:
REMARK  status: ('A' for Active; 'I' for Inactive)
REMARK    1  A    between atoms: C_1  and  N_2
REMARK    2  A    between atoms: N_2  and  C_3
REMARK    3  A    between atoms: N_2  and  C_11
REMARK    4  A    between atoms: C_3  and  C_4
REMARK    5  A    between atoms: C_4  and  N_5
REMARK                            x       y       z     vdW  Elec       q    Type
REMARK                         _______ _______ _______ _____ _____    ______ ____
ROOT
ATOM      1  C   UNL     1       5.134   3.951  19.052  0.00  0.00    +0.000 C 
ATOM      2  N   UNL     1       4.847   3.636  17.652  0.00  0.00    +0.000 NA
ENDROOT
BRANCH   2   3
ATOM      3  C   UNL     1       4.905   4.782  16.711  0.00  0.00    +0.000 C 
ATOM      4  C   UNL     1       5.431   4.420  15.302  0.00  0.00    +0.000 C 
ATOM      5  C   UNL     1       6.940   4.579  15.108  0.00  0.00    +0.000 C 
ATOM      6  N   UNL     1       7.447   5.871  15.567  0.00  0.00    +0.000 NA
ATOM      7  C   UNL     1       7.093   6.111  16.967  0.00  0.00    +0.000 C 
ATOM      8  C   UNL     1       5.585   6.079  17.192  0.00  0.00    +0.000 C 
ATOM      9  H   UNL     1       7.041   6.609  14.991  0.00  0.00    +0.000 HD
ENDBRANCH   2   3
BRANCH   2  10
ATOM     10  C   UNL     1       3.591   2.849  17.610  0.00  0.00    +0.000 C 
BRANCH  10  11
ATOM     11  C   UNL     1       3.130   2.130  18.908  0.00  0.00    +0.000 C 
BRANCH  11  12
ATOM     12  N   UNL     1       1.759   2.524  19.300  0.00  0.00    +0.000 NA
ATOM     13  C   UNL     1       1.332   3.843  18.781  0.00  0.00    +0.000 C 
ATOM     14  C   UNL     1       1.918   5.045  19.538  0.00  0.00    +0.000 C 
ATOM     15  O   UNL     1       1.600   4.974  20.932  0.00  0.00    +0.000 OA
ATOM     16  C   UNL     1       2.109   3.763  21.497  0.00  0.00    +0.000 C 
ATOM     17  C   UNL     1       1.567   2.519  20.768  0.00  0.00    +0.000 C 
ENDBRANCH  11  12
ENDBRANCH  10  11
ENDBRANCH   2  10
TORSDOF 4
ENDMDL
MODEL 8
REMARK VINA RESULT:      -6.0      1.469      2.104
REMARK  Name = 
REMARK  5 active torsions:
REMARK  status: ('A' for Active; 'I' for Inactive)
REMARK    1  A    between atoms: C_1  and  N_2
REMARK    2  A    between atoms: N_2  and  C_3
REMARK    3  A    between atoms: N_2  and  C_11
REMARK    4  A    between atoms: C_3  and  C_4
REMARK    5  A    between atoms: C_4  and  N_5
REMARK                            x       y       z     vdW  Elec       q    Type
REMARK                         _______ _______ _______ _____ _____    ______ ____
ROOT
ATOM      1  C   UNL     1       1.548   4.805  17.776  0.00  0.00    +0.000 C 
ATOM      2  N   UNL     1       2.096   3.502  17.399  0.00  0.00    +0.000 NA
ENDROOT
BRANCH   2   3
ATOM      3  C   UNL     1       1.864   2.403  18.368  0.00  0.00    +0.000 C 
ATOM      4  C   UNL     1       0.780   2.712  19.429  0.00  0.00    +0.000 C 
ATOM      5  C   UNL     1       1.296   3.336  20.726  0.00  0.00    +0.000 C 
ATOM      6  N   UNL     1       2.434   2.618  21.298  0.00  0.00    +0.000 NA
ATOM      7  C   UNL     1       3.525   2.501  20.330  0.00  0.00    +0.000 C 
ATOM      8  C   UNL     1       3.090   1.777  19.059  0.00  0.00    +0.000 C 
ATOM      9  H   UNL     1       2.131   1.684  21.572  0.00  0.00    +0.000 HD
ENDBRANCH   2   3
BRANCH   2  10
ATOM     10  C   UNL     1       3.510   3.702  16.999  0.00  0.00    +0.000 C 
BRANCH  10  11
ATOM     11  C   UNL     1       4.264   4.942  17.553  0.00  0.00    +0.000 C 
BRANCH  11  12
ATOM     12  N   UNL     1       5.694   4.654  17.799  0.00  0.00    +0.000 NA
ATOM     13  C   UNL     1       6.457   5.793  18.357  0.00  0.00    +0.000 C 
ATOM     14  C   UNL     1       6.828   6.875  17.330  0.00  0.00    +0.000 C 
ATOM     15  O   UNL     1       7.569   6.312  16.242  0.00  0.00    +0.000 OA
ATOM     16  C   UNL     1       6.806   5.288  15.598  0.00  0.00    +0.000 C 
ATOM     17  C   UNL     1       6.392   4.179  16.583  0.00  0.00    +0.000 C 
ENDBRANCH  11  12
ENDBRANCH  10  11
ENDBRANCH   2  10
TORSDOF 4
ENDMDL
MODEL 9
REMARK VINA RESULT:      -6.0      2.711      6.075
REMARK  Name = 
REMARK  5 active torsions:
REMARK  status: ('A' for Active; 'I' for Inactive)
REMARK    1  A    between atoms: C_1  and  N_2
REMARK    2  A    between atoms: N_2  and  C_3
REMARK    3  A    between atoms: N_2  and  C_11
REMARK    4  A    between atoms: C_3  and  C_4
REMARK    5  A    between atoms: C_4  and  N_5
REMARK                            x       y       z     vdW  Elec       q    Type
REMARK                         _______ _______ _______ _____ _____    ______ ____
ROOT
ATOM      1  C   UNL     1       3.249   5.922  17.961  0.00  0.00    +0.000 C 
ATOM      2  N   UNL     1       4.598   5.790  18.511  0.00  0.00    +0.000 NA
ENDROOT
BRANCH   2   3
ATOM      3  C   UNL     1       5.690   6.343  17.673  0.00  0.00    +0.000 C 
ATOM      4  C   UNL     1       5.422   6.267  16.151  0.00  0.00    +0.000 C 
ATOM      5  C   UNL     1       5.944   5.006  15.459  0.00  0.00    +0.000 C 
ATOM      6  N   UNL     1       7.337   4.704  15.787  0.00  0.00    +0.000 NA
ATOM      7  C   UNL     1       7.528   4.598  17.234  0.00  0.00    +0.000 C 
ATOM      8  C   UNL     1       7.131   5.878  17.962  0.00  0.00    +0.000 C 
ATOM      9  H   UNL     1       7.930   5.452  15.427  0.00  0.00    +0.000 HD
ENDBRANCH   2   3
BRANCH   2  10
ATOM     10  C   UNL     1       4.781   4.380  18.934  0.00  0.00    +0.000 C 
BRANCH  10  11
ATOM     11  C   UNL     1       3.914   3.288  18.250  0.00  0.00    +0.000 C 
BRANCH  11  12
ATOM     12  N   UNL     1       3.342   2.341  19.232  0.00  0.00    +0.000 NA
ATOM     13  C   UNL     1       2.012   1.809  18.862  0.00  0.00    +0.000 C 
ATOM     14  C   UNL     1       0.848   2.786  19.092  0.00  0.00    +0.000 C 
ATOM     15  O   UNL     1       0.808   3.218  20.457  0.00  0.00    +0.000 OA
ATOM     16  C   UNL     1       2.039   3.853  20.813  0.00  0.00    +0.000 C 
ATOM     17  C   UNL     1       3.247   2.924  20.590  0.00  0.00    +0.000 C 
ENDBRANCH  11  12
ENDBRANCH  10  11
ENDBRANCH   2  10
TORSDOF 4
ENDMDL
