MODEL 1
REMARK VINA RESULT:      -8.2      0.000      0.000
REMARK  Name = 
REMARK  4 active torsions:
REMARK  status: ('A' for Active; 'I' for Inactive)
REMARK    1  A    between atoms: C_2  and  C_4
REMARK    2  A    between atoms: N_7  and  C_8
REMARK    3  A    between atoms: P_13  and  O_15
REMARK    4  A    between atoms: C_18  and  O_19
REMARK                            x       y       z     vdW  Elec       q    Type
REMARK                         _______ _______ _______ _____ _____    ______ ____
ROOT
ATOM      1  C   UNL     1       5.329   5.235  19.012  0.00  0.00    +0.000 C 
ATOM      2  O   UNL     1       5.482   3.785  19.191  0.00  0.00    +0.000 OA
ATOM      3  C   UNL     1       4.162   3.291  19.384  0.00  0.00    +0.000 C 
ATOM      4  C   UNL     1       3.885   1.835  19.047  0.00  0.00    +0.000 C 
ATOM      5  O   UNL     1       2.484   1.532  19.025  0.00  0.00    +0.000 OA
ATOM      6  P   UNL     1       1.351   2.630  19.342  0.00  0.00    +0.000 P 
ATOM      7  O   UNL     1      -0.034   2.232  19.018  0.00  0.00    +0.000 OA
ATOM      8  O   UNL     1       1.889   4.006  18.715  0.00  0.00    +0.000 OA
ATOM      9  C   UNL     1       3.271   4.178  18.539  0.00  0.00    +0.000 C 
ATOM     10  C   UNL     1       3.820   5.549  18.889  0.00  0.00    +0.000 C 
ENDROOT
BRANCH   1  14
ATOM     11  C   UNL     1       6.851   5.439  15.900  0.00  0.00    +0.000 A 
ATOM     12  N   UNL     1       7.568   6.464  16.512  0.00  0.00    +0.000 NA
ATOM     13  C   UNL     1       7.009   6.568  17.698  0.00  0.00    +0.000 A 
ATOM     14  N   UNL     1       6.064   5.608  17.822  0.00  0.00    +0.000 N 
ATOM     15  N   UNL     1       5.884   4.931  16.682  0.00  0.00    +0.000 NA
BRANCH  11  17
ATOM     16  N   UNL     1       6.475   3.793  14.208  0.00  0.00    +0.000 N 
ATOM     17  C   UNL     1       7.143   4.948  14.549  0.00  0.00    +0.000 C 
ATOM     18  O   UNL     1       7.917   5.486  13.755  0.00  0.00    +0.000 OA
ATOM     19  H   UNL     1       6.588   3.421  13.281  0.00  0.00    +0.000 HD
ATOM     20  H   UNL     1       5.808   3.402  14.853  0.00  0.00    +0.000 HD
ENDBRANCH  11  17
ENDBRANCH   1  14
BRANCH   6  21
ATOM     21  O   UNL     1       1.589   2.897  20.907  0.00  0.00    +0.000 OA
ATOM     22  H   UNL     1       1.439   3.811  21.177  0.00  0.00    +0.000 HD
ENDBRANCH   6  21
BRANCH  10  23
ATOM     23  O   UNL     1       3.312   6.119  20.103  0.00  0.00    +0.000 OA
ATOM     24  H   UNL     1       3.565   7.051  20.210  0.00  0.00    +0.000 HD
ENDBRANCH  10  23
TORSDOF 4
ENDMDL
MODEL 2
REMARK VINA RESULT:      -8.2      1.927      3.137
REMARK  Name = 
REMARK  4 active torsions:
REMARK  status: ('A' for Active; 'I' for Inactive)
REMARK    1  A    between atoms: C_2  and  C_4
REMARK    2  A    between atoms: N_7  and  C_8
REMARK    3  A    between atoms: P_13  and  O_15
REMARK    4  A    between atoms: C_18  and  O_19
REMARK                            x       y       z     vdW  Elec       q    Type
REMARK                         _______ _______ _______ _____ _____    ______ ____
ROOT
ATOM      1  C   UNL     1       3.940   4.017  17.123  0.00  0.00    +0.000 C 
ATOM      2  O   UNL     1       3.095   5.080  17.685  0.00  0.00    +0.000 OA
ATOM      3  C   UNL     1       2.410   4.477  18.776  0.00  0.00    +0.000 C 
ATOM      4  C   UNL     1       1.907   5.377  19.892  0.00  0.00    +0.000 C 
ATOM      5  O   UNL     1       1.481   4.638  21.045  0.00  0.00    +0.000 OA
ATOM      6  P   UNL     1       1.529   3.031  21.116  0.00  0.00    +0.000 P 
ATOM      7  O   UNL     1       1.314   2.443  22.453  0.00  0.00    +0.000 OA
ATOM      8  O   UNL     1       2.857   2.599  20.325  0.00  0.00    +0.000 OA
ATOM      9  C   UNL     1       3.379   3.463  19.350  0.00  0.00    +0.000 C 
ATOM     10  C   UNL     1       3.886   2.803  18.080  0.00  0.00    +0.000 C 
ENDROOT
BRANCH   1  14
ATOM     11  C   UNL     1       6.875   5.864  17.248  0.00  0.00    +0.000 A 
ATOM     12  N   UNL     1       7.223   5.055  16.168  0.00  0.00    +0.000 NA
ATOM     13  C   UNL     1       6.216   4.215  16.073  0.00  0.00    +0.000 A 
ATOM     14  N   UNL     1       5.279   4.549  16.990  0.00  0.00    +0.000 N 
ATOM     15  N   UNL     1       5.695   5.532  17.797  0.00  0.00    +0.000 NA
BRANCH  11  17
ATOM     16  N   UNL     1       8.264   6.790  18.958  0.00  0.00    +0.000 N 
ATOM     17  C   UNL     1       7.702   6.982  17.715  0.00  0.00    +0.000 C 
ATOM     18  O   UNL     1       7.900   8.024  17.088  0.00  0.00    +0.000 OA
ATOM     19  H   UNL     1       8.881   7.492  19.327  0.00  0.00    +0.000 HD
ATOM     20  H   UNL     1       8.130   5.909  19.428  0.00  0.00    +0.000 HD
ENDBRANCH  11  17
ENDBRANCH   1  14
BRANCH   6  21
ATOM     21  O   UNL     1       0.398   2.627  20.051  0.00  0.00    +0.000 OA
ATOM     22  H   UNL     1       0.043   3.373  19.552  0.00  0.00    +0.000 HD
ENDBRANCH   6  21
BRANCH  10  23
ATOM     23  O   UNL     1       3.046   1.768  17.551  0.00  0.00    +0.000 OA
ATOM     24  H   UNL     1       3.537   1.137  16.999  0.00  0.00    +0.000 HD
ENDBRANCH  10  23
TORSDOF 4
ENDMDL
MODEL 3
REMARK VINA RESULT:      -8.0      1.110      1.123
REMARK  Name = 
REMARK  4 active torsions:
REMARK  status: ('A' for Active; 'I' for Inactive)
REMARK    1  A    between atoms: C_2  and  C_4
REMARK    2  A    between atoms: N_7  and  C_8
REMARK    3  A    between atoms: P_13  and  O_15
REMARK    4  A    between atoms: C_18  and  O_19
REMARK                            x       y       z     vdW  Elec       q    Type
REMARK                         _______ _______ _______ _____ _____    ______ ____
ROOT
ATOM      1  C   UNL     1       5.009   5.551  18.236  0.00  0.00    +0.000 C 
ATOM      2  O   UNL     1       5.131   4.562  19.316  0.00  0.00    +0.000 OA
ATOM      3  C   UNL     1       3.821   4.039  19.495  0.00  0.00    +0.000 C 
ATOM      4  C   UNL     1       3.679   2.653  20.102  0.00  0.00    +0.000 C 
ATOM      5  O   UNL     1       2.347   2.134  19.983  0.00  0.00    +0.000 OA
ATOM      6  P   UNL     1       1.150   2.957  19.289  0.00  0.00    +0.000 P 
ATOM      7  O   UNL     1      -0.076   2.185  19.007  0.00  0.00    +0.000 OA
ATOM      8  O   UNL     1       1.820   3.753  18.067  0.00  0.00    +0.000 OA
ATOM      9  C   UNL     1       3.191   4.048  18.117  0.00  0.00    +0.000 C 
ATOM     10  C   UNL     1       3.592   5.428  17.629  0.00  0.00    +0.000 C 
ENDROOT
BRANCH   1  14
ATOM     11  C   UNL     1       6.909   4.906  15.405  0.00  0.00    +0.000 A 
ATOM     12  N   UNL     1       7.845   4.477  16.344  0.00  0.00    +0.000 NA
ATOM     13  C   UNL     1       7.281   4.767  17.497  0.00  0.00    +0.000 A 
ATOM     14  N   UNL     1       6.045   5.268  17.266  0.00  0.00    +0.000 N 
ATOM     15  N   UNL     1       5.810   5.442  15.961  0.00  0.00    +0.000 NA
BRANCH  11  17
ATOM     16  N   UNL     1       6.436   3.685  13.405  0.00  0.00    +0.000 N 
ATOM     17  C   UNL     1       7.098   4.759  13.958  0.00  0.00    +0.000 C 
ATOM     18  O   UNL     1       7.786   5.504  13.257  0.00  0.00    +0.000 OA
ATOM     19  H   UNL     1       6.479   3.545  12.411  0.00  0.00    +0.000 HD
ATOM     20  H   UNL     1       5.838   3.122  13.989  0.00  0.00    +0.000 HD
ENDBRANCH  11  17
ENDBRANCH   1  14
BRANCH   6  21
ATOM     21  O   UNL     1       0.928   4.150  20.341  0.00  0.00    +0.000 OA
ATOM     22  H   UNL     1       1.504   4.910  20.200  0.00  0.00    +0.000 HD
ENDBRANCH   6  21
BRANCH  10  23
ATOM     23  O   UNL     1       2.749   6.501  18.070  0.00  0.00    +0.000 OA
ATOM     24  H   UNL     1       3.163   7.038  18.766  0.00  0.00    +0.000 HD
ENDBRANCH  10  23
TORSDOF 4
ENDMDL
MODEL 4
REMARK VINA RESULT:      -7.7      3.348      6.281
REMARK  Name = 
REMARK  4 active torsions:
REMARK  status: ('A' for Active; 'I' for Inactive)
REMARK    1  A    between atoms: C_2  and  C_4
REMARK    2  A    between atoms: N_7  and  C_8
REMARK    3  A    between atoms: P_13  and  O_15
REMARK    4  A    between atoms: C_18  and  O_19
REMARK                            x       y       z     vdW  Elec       q    Type
REMARK                         _______ _______ _______ _____ _____    ______ ____
ROOT
ATOM      1  C   UNL     1       5.149   5.561  19.010  0.00  0.00    +0.000 C 
ATOM      2  O   UNL     1       4.967   6.627  18.014  0.00  0.00    +0.000 OA
ATOM      3  C   UNL     1       5.526   6.114  16.812  0.00  0.00    +0.000 C 
ATOM      4  C   UNL     1       5.030   6.682  15.492  0.00  0.00    +0.000 C 
ATOM      5  O   UNL     1       5.462   5.909  14.363  0.00  0.00    +0.000 OA
ATOM      6  P   UNL     1       6.382   4.597  14.507  0.00  0.00    +0.000 P 
ATOM      7  O   UNL     1       6.513   3.771  13.290  0.00  0.00    +0.000 OA
ATOM      8  O   UNL     1       5.889   3.864  15.847  0.00  0.00    +0.000 OA
ATOM      9  C   UNL     1       5.259   4.623  16.845  0.00  0.00    +0.000 C 
ATOM     10  C   UNL     1       5.649   4.296  18.275  0.00  0.00    +0.000 C 
ENDROOT
BRANCH   1  14
ATOM     11  C   UNL     1       2.282   4.302  20.507  0.00  0.00    +0.000 A 
ATOM     12  N   UNL     1       1.797   5.583  20.250  0.00  0.00    +0.000 NA
ATOM     13  C   UNL     1       2.840   6.218  19.762  0.00  0.00    +0.000 A 
ATOM     14  N   UNL     1       3.871   5.348  19.658  0.00  0.00    +0.000 N 
ATOM     15  N   UNL     1       3.579   4.156  20.190  0.00  0.00    +0.000 NA
BRANCH  11  17
ATOM     16  N   UNL     1       0.371   2.889  20.254  0.00  0.00    +0.000 N 
ATOM     17  C   UNL     1       1.450   3.220  21.044  0.00  0.00    +0.000 C 
ATOM     18  O   UNL     1       1.656   2.633  22.108  0.00  0.00    +0.000 OA
ATOM     19  H   UNL     1      -0.220   2.126  20.532  0.00  0.00    +0.000 HD
ATOM     20  H   UNL     1       0.254   3.347  19.364  0.00  0.00    +0.000 HD
ENDBRANCH  11  17
ENDBRANCH   1  14
BRANCH   6  21
ATOM     21  O   UNL     1       7.772   5.230  15.003  0.00  0.00    +0.000 OA
ATOM     22  H   UNL     1       7.852   5.301  15.962  0.00  0.00    +0.000 HD
ENDBRANCH   6  21
BRANCH  10  23
ATOM     23  O   UNL     1       7.052   4.095  18.495  0.00  0.00    +0.000 OA
ATOM     24  H   UNL     1       7.360   4.499  19.323  0.00  0.00    +0.000 HD
ENDBRANCH  10  23
TORSDOF 4
ENDMDL
MODEL 5
REMARK VINA RESULT:      -7.7      1.715      2.674
REMARK  Name = 
REMARK  4 active torsions:
REMARK  status: ('A' for Active; 'I' for Inactive)
REMARK    1  A    between atoms: C_2  and  C_4
REMARK    2  A    between atoms: N_7  and  C_8
REMARK    3  A    between atoms: P_13  and  O_15
REMARK    4  A    between atoms: C_18  and  O_19
REMARK                            x       y       z     vdW  Elec       q    Type
REMARK                         _______ _______ _______ _____ _____    ______ ____
ROOT
ATOM      1  C   UNL     1       3.655   3.994  16.757  0.00  0.00    +0.000 C 
ATOM      2  O   UNL     1       3.074   5.160  17.437  0.00  0.00    +0.000 OA
ATOM      3  C   UNL     1       2.544   4.656  18.656  0.00  0.00    +0.000 C 
ATOM      4  C   UNL     1       2.382   5.620  19.820  0.00  0.00    +0.000 C 
ATOM      5  O   UNL     1       2.098   4.949  21.055  0.00  0.00    +0.000 OA
ATOM      6  P   UNL     1       1.957   3.350  21.164  0.00  0.00    +0.000 P 
ATOM      7  O   UNL     1       1.933   2.802  22.536  0.00  0.00    +0.000 OA
ATOM      8  O   UNL     1       3.043   2.746  20.148  0.00  0.00    +0.000 OA
ATOM      9  C   UNL     1       3.471   3.530  19.065  0.00  0.00    +0.000 C 
ATOM     10  C   UNL     1       3.636   2.803  17.743  0.00  0.00    +0.000 C 
ENDROOT
BRANCH   1  14
ATOM     11  C   UNL     1       6.602   4.733  15.078  0.00  0.00    +0.000 A 
ATOM     12  N   UNL     1       7.161   4.553  16.342  0.00  0.00    +0.000 NA
ATOM     13  C   UNL     1       6.117   4.362  17.118  0.00  0.00    +0.000 A 
ATOM     14  N   UNL     1       5.000   4.349  16.354  0.00  0.00    +0.000 N 
ATOM     15  N   UNL     1       5.261   4.657  15.079  0.00  0.00    +0.000 NA
BRANCH  11  17
ATOM     16  N   UNL     1       7.000   4.214  12.780  0.00  0.00    +0.000 N 
ATOM     17  C   UNL     1       7.402   4.955  13.869  0.00  0.00    +0.000 C 
ATOM     18  O   UNL     1       8.363   5.723  13.790  0.00  0.00    +0.000 OA
ATOM     19  H   UNL     1       7.471   4.346  11.902  0.00  0.00    +0.000 HD
ATOM     20  H   UNL     1       6.180   3.634  12.854  0.00  0.00    +0.000 HD
ENDBRANCH  11  17
ENDBRANCH   1  14
BRANCH   6  21
ATOM     21  O   UNL     1       0.600   3.089  20.348  0.00  0.00    +0.000 OA
ATOM     22  H   UNL     1      -0.199   3.359  20.816  0.00  0.00    +0.000 HD
ENDBRANCH   6  21
BRANCH  10  23
ATOM     23  O   UNL     1       2.587   1.881  17.416  0.00  0.00    +0.000 OA
ATOM     24  H   UNL     1       1.709   2.215  17.663  0.00  0.00    +0.000 HD
ENDBRANCH  10  23
TORSDOF 4
ENDMDL
MODEL 6
REMARK VINA RESULT:      -7.5      1.588      2.134
REMARK  Name = 
REMARK  4 active torsions:
REMARK  status: ('A' for Active; 'I' for Inactive)
REMARK    1  A    between atoms: C_2  and  C_4
REMARK    2  A    between atoms: N_7  and  C_8
REMARK    3  A    between atoms: P_13  and  O_15
REMARK    4  A    between atoms: C_18  and  O_19
REMARK                            x       y       z     vdW  Elec       q    Type
REMARK                         _______ _______ _______ _____ _____    ______ ____
ROOT
ATOM      1  C   UNL     1       5.781   5.364  17.414  0.00  0.00    +0.000 C 
ATOM      2  O   UNL     1       5.976   4.318  18.427  0.00  0.00    +0.000 OA
ATOM      3  C   UNL     1       4.738   4.235  19.122  0.00  0.00    +0.000 C 
ATOM      4  C   UNL     1       4.396   2.930  19.824  0.00  0.00    +0.000 C 
ATOM      5  O   UNL     1       3.028   2.877  20.251  0.00  0.00    +0.000 OA
ATOM      6  P   UNL     1       1.994   4.087  20.013  0.00  0.00    +0.000 P 
ATOM      7  O   UNL     1       0.574   3.774  20.266  0.00  0.00    +0.000 OA
ATOM      8  O   UNL     1       2.369   4.706  18.580  0.00  0.00    +0.000 OA
ATOM      9  C   UNL     1       3.673   4.539  18.088  0.00  0.00    +0.000 C 
ATOM     10  C   UNL     1       4.282   5.746  17.398  0.00  0.00    +0.000 C 
ENDROOT
BRANCH   1  14
ATOM     11  C   UNL     1       7.095   4.798  14.252  0.00  0.00    +0.000 A 
ATOM     12  N   UNL     1       6.303   3.654  14.319  0.00  0.00    +0.000 NA
ATOM     13  C   UNL     1       5.811   3.689  15.539  0.00  0.00    +0.000 A 
ATOM     14  N   UNL     1       6.221   4.828  16.143  0.00  0.00    +0.000 N 
ATOM     15  N   UNL     1       7.092   5.510  15.391  0.00  0.00    +0.000 NA
BRANCH  11  17
ATOM     16  N   UNL     1       8.901   6.032  13.289  0.00  0.00    +0.000 N 
ATOM     17  C   UNL     1       7.834   5.196  13.049  0.00  0.00    +0.000 C 
ATOM     18  O   UNL     1       7.555   4.843  11.901  0.00  0.00    +0.000 OA
ATOM     19  H   UNL     1       9.484   6.311  12.519  0.00  0.00    +0.000 HD
ATOM     20  H   UNL     1       9.141   6.264  14.240  0.00  0.00    +0.000 HD
ENDBRANCH  11  17
ENDBRANCH   1  14
BRANCH   6  21
ATOM     21  O   UNL     1       2.584   5.214  20.993  0.00  0.00    +0.000 OA
ATOM     22  H   UNL     1       2.007   5.979  21.106  0.00  0.00    +0.000 HD
ENDBRANCH   6  21
BRANCH  10  23
ATOM     23  O   UNL     1       4.065   7.001  18.057  0.00  0.00    +0.000 OA
ATOM     24  H   UNL     1       3.132   7.272  18.043  0.00  0.00    +0.000 HD
ENDBRANCH  10  23
TORSDOF 4
ENDMDL
MODEL 7
REMARK VINA RESULT:      -7.3      2.191      3.380
REMARK  Name = 
REMARK  4 active torsions:
REMARK  status: ('A' for Active; 'I' for Inactive)
REMARK    1  A    between atoms: C_2  and  C_4
REMARK    2  A    between atoms: N_7  and  C_8
REMARK    3  A    between atoms: P_13  and  O_15
REMARK    4  A    between atoms: C_18  and  O_19
REMARK                            x       y       z     vdW  Elec       q    Type
REMARK                         _______ _______ _______ _____ _____    ______ ____
ROOT
ATOM      1  C   UNL     1       4.140   3.835  17.407  0.00  0.00    +0.000 C 
ATOM      2  O   UNL     1       3.265   4.923  17.866  0.00  0.00    +0.000 OA
ATOM      3  C   UNL     1       2.449   4.345  18.877  0.00  0.00    +0.000 C 
ATOM      4  C   UNL     1       1.848   5.266  19.926  0.00  0.00    +0.000 C 
ATOM      5  O   UNL     1       1.279   4.547  21.029  0.00  0.00    +0.000 OA
ATOM      6  P   UNL     1       1.279   2.939  21.113  0.00  0.00    +0.000 P 
ATOM      7  O   UNL     1       0.903   2.367  22.421  0.00  0.00    +0.000 OA
ATOM      8  O   UNL     1       2.675   2.469  20.476  0.00  0.00    +0.000 OA
ATOM      9  C   UNL     1       3.323   3.313  19.561  0.00  0.00    +0.000 C 
ATOM     10  C   UNL     1       3.951   2.631  18.359  0.00  0.00    +0.000 C 
ENDROOT
BRANCH   1  14
ATOM     11  C   UNL     1       7.228   5.224  18.170  0.00  0.00    +0.000 A 
ATOM     12  N   UNL     1       7.374   5.224  16.784  0.00  0.00    +0.000 NA
ATOM     13  C   UNL     1       6.289   4.615  16.358  0.00  0.00    +0.000 A 
ATOM     14  N   UNL     1       5.499   4.335  17.421  0.00  0.00    +0.000 N 
ATOM     15  N   UNL     1       6.094   4.633  18.581  0.00  0.00    +0.000 NA
BRANCH  11  17
ATOM     16  N   UNL     1       8.450   7.166  18.839  0.00  0.00    +0.000 N 
ATOM     17  C   UNL     1       8.203   5.833  19.081  0.00  0.00    +0.000 C 
ATOM     18  O   UNL     1       8.781   5.240  19.994  0.00  0.00    +0.000 OA
ATOM     19  H   UNL     1       9.072   7.664  19.451  0.00  0.00    +0.000 HD
ATOM     20  H   UNL     1       7.927   7.641  18.121  0.00  0.00    +0.000 HD
ENDBRANCH  11  17
ENDBRANCH   1  14
BRANCH   6  21
ATOM     21  O   UNL     1       0.263   2.554  19.931  0.00  0.00    +0.000 OA
ATOM     22  H   UNL     1      -0.485   3.156  19.844  0.00  0.00    +0.000 HD
ENDBRANCH   6  21
BRANCH  10  23
ATOM     23  O   UNL     1       3.150   1.612  17.745  0.00  0.00    +0.000 OA
ATOM     24  H   UNL     1       2.332   1.436  18.239  0.00  0.00    +0.000 HD
ENDBRANCH  10  23
TORSDOF 4
ENDMDL
MODEL 8
REMARK VINA RESULT:      -7.2      1.763      2.490
REMARK  Name = 
REMARK  4 active torsions:
REMARK  status: ('A' for Active; 'I' for Inactive)
REMARK    1  A    between atoms: C_2  and  C_4
REMARK    2  A    between atoms: N_7  and  C_8
REMARK    3  A    between atoms: P_13  and  O_15
REMARK    4  A    between atoms: C_18  and  O_19
REMARK                            x       y       z     vdW  Elec       q    Type
REMARK                         _______ _______ _______ _____ _____    ______ ____
ROOT
ATOM      1  C   UNL     1       5.830   3.945  17.453  0.00  0.00    +0.000 C 
ATOM      2  O   UNL     1       4.535   3.272  17.279  0.00  0.00    +0.000 OA
ATOM      3  C   UNL     1       3.685   3.834  18.271  0.00  0.00    +0.000 C 
ATOM      4  C   UNL     1       2.185   3.797  18.033  0.00  0.00    +0.000 C 
ATOM      5  O   UNL     1       1.460   4.620  18.957  0.00  0.00    +0.000 OA
ATOM      6  P   UNL     1       2.183   5.470  20.118  0.00  0.00    +0.000 P 
ATOM      7  O   UNL     1       1.335   6.465  20.804  0.00  0.00    +0.000 OA
ATOM      8  O   UNL     1       3.564   5.988  19.484  0.00  0.00    +0.000 OA
ATOM      9  C   UNL     1       4.132   5.274  18.417  0.00  0.00    +0.000 C 
ATOM     10  C   UNL     1       5.640   5.102  18.462  0.00  0.00    +0.000 C 
ENDROOT
BRANCH   1  14
ATOM     11  C   UNL     1       6.650   4.368  14.107  0.00  0.00    +0.000 A 
ATOM     12  N   UNL     1       7.333   5.480  14.596  0.00  0.00    +0.000 NA
ATOM     13  C   UNL     1       7.017   5.501  15.873  0.00  0.00    +0.000 A 
ATOM     14  N   UNL     1       6.253   4.420  16.152  0.00  0.00    +0.000 N 
ATOM     15  N   UNL     1       5.938   3.730  15.050  0.00  0.00    +0.000 NA
BRANCH  11  17
ATOM     16  N   UNL     1       5.987   2.800  12.430  0.00  0.00    +0.000 N 
ATOM     17  C   UNL     1       6.726   3.928  12.710  0.00  0.00    +0.000 C 
ATOM     18  O   UNL     1       7.387   4.484  11.830  0.00  0.00    +0.000 OA
ATOM     19  H   UNL     1       5.953   2.464  11.483  0.00  0.00    +0.000 HD
ATOM     20  H   UNL     1       5.415   2.395  13.153  0.00  0.00    +0.000 HD
ENDBRANCH  11  17
ENDBRANCH   1  14
BRANCH   6  21
ATOM     21  O   UNL     1       2.714   4.305  21.087  0.00  0.00    +0.000 OA
ATOM     22  H   UNL     1       2.448   3.418  20.818  0.00  0.00    +0.000 HD
ENDBRANCH   6  21
BRANCH  10  23
ATOM     23  O   UNL     1       6.178   4.757  19.746  0.00  0.00    +0.000 OA
ATOM     24  H   UNL     1       6.117   3.805  19.931  0.00  0.00    +0.000 HD
ENDBRANCH  10  23
TORSDOF 4
ENDMDL
MODEL 9
REMARK VINA RESULT:      -7.1      3.588      6.351
REMARK  Name = 
REMARK  4 active torsions:
REMARK  status: ('A' for Active; 'I' for Inactive)
REMARK    1  A    between atoms: C_2  and  C_4
REMARK    2  A    between atoms: N_7  and  C_8
REMARK    3  A    between atoms: P_13  and  O_15
REMARK    4  A    between atoms: C_18  and  O_19
REMARK                            x       y       z     vdW  Elec       q    Type
REMARK                         _______ _______ _______ _____ _____    ______ ____
ROOT
ATOM      1  C   UNL     1       4.248   4.464  19.450  0.00  0.00    +0.000 C 
ATOM      2  O   UNL     1       5.417   5.335  19.634  0.00  0.00    +0.000 OA
ATOM      3  C   UNL     1       6.132   5.265  18.407  0.00  0.00    +0.000 C 
ATOM      4  C   UNL     1       7.044   6.425  18.041  0.00  0.00    +0.000 C 
ATOM      5  O   UNL     1       7.492   6.365  16.680  0.00  0.00    +0.000 OA
ATOM      6  P   UNL     1       7.071   5.180  15.676  0.00  0.00    +0.000 P 
ATOM      7  O   UNL     1       7.391   5.404  14.252  0.00  0.00    +0.000 OA
ATOM      8  O   UNL     1       5.551   4.817  16.043  0.00  0.00    +0.000 OA
ATOM      9  C   UNL     1       5.076   5.102  17.332  0.00  0.00    +0.000 C 
ATOM     10  C   UNL     1       4.189   4.044  17.963  0.00  0.00    +0.000 C 
ENDROOT
BRANCH   1  14
ATOM     11  C   UNL     1       1.920   6.871  20.364  0.00  0.00    +0.000 A 
ATOM     12  N   UNL     1       1.207   5.760  20.810  0.00  0.00    +0.000 NA
ATOM     13  C   UNL     1       1.947   4.742  20.426  0.00  0.00    +0.000 A 
ATOM     14  N   UNL     1       3.077   5.215  19.852  0.00  0.00    +0.000 N 
ATOM     15  N   UNL     1       3.057   6.547  19.727  0.00  0.00    +0.000 NA
BRANCH  11  17
ATOM     16  N   UNL     1       1.515   8.644  21.915  0.00  0.00    +0.000 N 
ATOM     17  C   UNL     1       1.483   8.252  20.595  0.00  0.00    +0.000 C 
ATOM     18  O   UNL     1       1.106   9.028  19.715  0.00  0.00    +0.000 OA
ATOM     19  H   UNL     1       1.274   9.591  22.146  0.00  0.00    +0.000 HD
ATOM     20  H   UNL     1       1.877   8.009  22.608  0.00  0.00    +0.000 HD
ENDBRANCH  11  17
ENDBRANCH   1  14
BRANCH   6  21
ATOM     21  O   UNL     1       7.844   3.926  16.315  0.00  0.00    +0.000 OA
ATOM     22  H   UNL     1       7.960   3.981  17.271  0.00  0.00    +0.000 HD
ENDBRANCH   6  21
BRANCH  10  23
ATOM     23  O   UNL     1       4.635   2.692  17.793  0.00  0.00    +0.000 OA
ATOM     24  H   UNL     1       4.305   2.292  16.971  0.00  0.00    +0.000 HD
ENDBRANCH  10  23
TORSDOF 4
ENDMDL
