MODEL 1
REMARK VINA RESULT:      -7.1      0.000      0.000
REMARK  Name = 
REMARK  8 active torsions:
REMARK  status: ('A' for Active; 'I' for Inactive)
REMARK    1  A    between atoms: C_2  and  C_3
REMARK    2  A    between atoms: C_2  and  C_13
REMARK    3  A    between atoms: C_3  and  C_4
REMARK    4  A    between atoms: C_4  and  C_5
REMARK    5  A    between atoms: C_5  and  C_6
REMARK    6  A    between atoms: C_6  and  C_7
REMARK    7  A    between atoms: C_14  and  O_15
REMARK    8  A    between atoms: C_19  and  O_20
REMARK                            x       y       z     vdW  Elec       q    Type
REMARK                         _______ _______ _______ _____ _____    ______ ____
ROOT
ATOM      1  O   UNL     1       5.527   5.283  19.719  0.00  0.00    +0.000 OA
ATOM      2  C   UNL     1       4.450   5.414  19.131  0.00  0.00    +0.000 C 
ENDROOT
BRANCH   2   3
ATOM      3  C   UNL     1       3.309   4.512  19.508  0.00  0.00    +0.000 A 
ATOM      4  C   UNL     1       3.313   3.184  19.043  0.00  0.00    +0.000 A 
ATOM      5  C   UNL     1       2.261   2.311  19.328  0.00  0.00    +0.000 A 
ATOM      6  C   UNL     1       1.187   2.743  20.102  0.00  0.00    +0.000 A 
ATOM      7  C   UNL     1       1.171   4.044  20.596  0.00  0.00    +0.000 A 
ATOM      8  C   UNL     1       2.223   4.921  20.305  0.00  0.00    +0.000 A 
BRANCH   4   9
ATOM      9  O   UNL     1       4.330   2.644  18.296  0.00  0.00    +0.000 OA
ATOM     10  H   UNL     1       5.052   3.311  18.244  0.00  0.00    +0.000 HD
ENDBRANCH   4   9
BRANCH   8  11
ATOM     11  O   UNL     1       2.155   6.177  20.835  0.00  0.00    +0.000 OA
ATOM     12  H   UNL     1       1.500   6.710  20.351  0.00  0.00    +0.000 HD
ENDBRANCH   8  11
ENDBRANCH   2   3
BRANCH   2  13
ATOM     13  C   UNL     1       4.251   6.460  18.051  0.00  0.00    +0.000 C 
BRANCH  13  14
ATOM     14  C   UNL     1       4.629   5.993  16.648  0.00  0.00    +0.000 C 
BRANCH  14  15
ATOM     15  C   UNL     1       6.122   6.236  16.419  0.00  0.00    +0.000 C 
BRANCH  15  16
ATOM     16  C   UNL     1       6.872   4.947  16.091  0.00  0.00    +0.000 C 
BRANCH  16  17
ATOM     17  C   UNL     1       6.850   4.681  14.608  0.00  0.00    +0.000 A 
ATOM     18  C   UNL     1       5.984   3.715  14.076  0.00  0.00    +0.000 A 
ATOM     19  C   UNL     1       5.999   3.433  12.709  0.00  0.00    +0.000 A 
ATOM     20  C   UNL     1       6.879   4.110  11.866  0.00  0.00    +0.000 A 
ATOM     21  C   UNL     1       7.745   5.069  12.387  0.00  0.00    +0.000 A 
ATOM     22  C   UNL     1       7.732   5.353  13.754  0.00  0.00    +0.000 A 
ENDBRANCH  16  17
ENDBRANCH  15  16
ENDBRANCH  14  15
ENDBRANCH  13  14
ENDBRANCH   2  13
TORSDOF 8
ENDMDL
MODEL 2
REMARK VINA RESULT:      -7.0      1.343      2.031
REMARK  Name = 
REMARK  8 active torsions:
REMARK  status: ('A' for Active; 'I' for Inactive)
REMARK    1  A    between atoms: C_2  and  C_3
REMARK    2  A    between atoms: C_2  and  C_13
REMARK    3  A    between atoms: C_3  and  C_4
REMARK    4  A    between atoms: C_4  and  C_5
REMARK    5  A    between atoms: C_5  and  C_6
REMARK    6  A    between atoms: C_6  and  C_7
REMARK    7  A    between atoms: C_14  and  O_15
REMARK    8  A    between atoms: C_19  and  O_20
REMARK                            x       y       z     vdW  Elec       q    Type
REMARK                         _______ _______ _______ _____ _____    ______ ____
ROOT
ATOM      1  O   UNL     1       4.180   2.970  17.038  0.00  0.00    +0.000 OA
ATOM      2  C   UNL     1       4.138   3.740  18.001  0.00  0.00    +0.000 C 
ENDROOT
BRANCH   2   3
ATOM      3  C   UNL     1       3.236   3.402  19.155  0.00  0.00    +0.000 A 
ATOM      4  C   UNL     1       1.893   3.819  19.110  0.00  0.00    +0.000 A 
ATOM      5  C   UNL     1       1.018   3.568  20.169  0.00  0.00    +0.000 A 
ATOM      6  C   UNL     1       1.464   2.877  21.293  0.00  0.00    +0.000 A 
ATOM      7  C   UNL     1       2.781   2.431  21.352  0.00  0.00    +0.000 A 
ATOM      8  C   UNL     1       3.659   2.688  20.292  0.00  0.00    +0.000 A 
BRANCH   4   9
ATOM      9  O   UNL     1       1.339   4.482  18.043  0.00  0.00    +0.000 OA
ATOM     10  H   UNL     1       1.872   4.264  17.244  0.00  0.00    +0.000 HD
ENDBRANCH   4   9
BRANCH   8  11
ATOM     11  O   UNL     1       4.933   2.208  20.405  0.00  0.00    +0.000 OA
ATOM     12  H   UNL     1       5.440   2.749  21.034  0.00  0.00    +0.000 HD
ENDBRANCH   8  11
ENDBRANCH   2   3
BRANCH   2  13
ATOM     13  C   UNL     1       4.974   5.004  18.051  0.00  0.00    +0.000 C 
BRANCH  13  14
ATOM     14  C   UNL     1       4.365   6.188  17.304  0.00  0.00    +0.000 C 
BRANCH  14  15
ATOM     15  C   UNL     1       5.117   6.395  15.987  0.00  0.00    +0.000 C 
BRANCH  15  16
ATOM     16  C   UNL     1       6.344   5.493  15.876  0.00  0.00    +0.000 C 
BRANCH  16  17
ATOM     17  C   UNL     1       6.463   4.926  14.485  0.00  0.00    +0.000 A 
ATOM     18  C   UNL     1       5.517   4.005  14.014  0.00  0.00    +0.000 A 
ATOM     19  C   UNL     1       5.655   3.441  12.744  0.00  0.00    +0.000 A 
ATOM     20  C   UNL     1       6.739   3.789  11.939  0.00  0.00    +0.000 A 
ATOM     21  C   UNL     1       7.685   4.701  12.401  0.00  0.00    +0.000 A 
ATOM     22  C   UNL     1       7.550   5.267  13.670  0.00  0.00    +0.000 A 
ENDBRANCH  16  17
ENDBRANCH  15  16
ENDBRANCH  14  15
ENDBRANCH  13  14
ENDBRANCH   2  13
TORSDOF 8
ENDMDL
MODEL 3
REMARK VINA RESULT:      -7.0      0.981      2.060
REMARK  Name = 
REMARK  8 active torsions:
REMARK  status: ('A' for Active; 'I' for Inactive)
REMARK    1  A    between atoms: C_2  and  C_3
REMARK    2  A    between atoms: C_2  and  C_13
REMARK    3  A    between atoms: C_3  and  C_4
REMARK    4  A    between atoms: C_4  and  C_5
REMARK    5  A    between atoms: C_5  and  C_6
REMARK    6  A    between atoms: C_6  and  C_7
REMARK    7  A    between atoms: C_14  and  O_15
REMARK    8  A    between atoms: C_19  and  O_20
REMARK                            x       y       z     vdW  Elec       q    Type
REMARK                         _______ _______ _______ _____ _____    ______ ____
ROOT
ATOM      1  O   UNL     1       5.525   3.520  19.658  0.00  0.00    +0.000 OA
ATOM      2  C   UNL     1       4.620   3.761  18.855  0.00  0.00    +0.000 C 
ENDROOT
BRANCH   2   3
ATOM      3  C   UNL     1       3.196   3.569  19.296  0.00  0.00    +0.000 A 
ATOM      4  C   UNL     1       2.578   4.581  20.054  0.00  0.00    +0.000 A 
ATOM      5  C   UNL     1       1.271   4.441  20.524  0.00  0.00    +0.000 A 
ATOM      6  C   UNL     1       0.544   3.290  20.232  0.00  0.00    +0.000 A 
ATOM      7  C   UNL     1       1.122   2.285  19.462  0.00  0.00    +0.000 A 
ATOM      8  C   UNL     1       2.435   2.423  18.996  0.00  0.00    +0.000 A 
BRANCH   4   9
ATOM      9  O   UNL     1       3.189   5.766  20.379  0.00  0.00    +0.000 OA
ATOM     10  H   UNL     1       2.594   6.498  20.096  0.00  0.00    +0.000 HD
ENDBRANCH   4   9
BRANCH   8  11
ATOM     11  O   UNL     1       2.937   1.409  18.232  0.00  0.00    +0.000 OA
ATOM     12  H   UNL     1       3.737   1.706  17.764  0.00  0.00    +0.000 HD
ENDBRANCH   8  11
ENDBRANCH   2   3
BRANCH   2  13
ATOM     13  C   UNL     1       4.907   4.248  17.448  0.00  0.00    +0.000 C 
BRANCH  13  14
ATOM     14  C   UNL     1       5.015   5.765  17.319  0.00  0.00    +0.000 C 
BRANCH  14  15
ATOM     15  C   UNL     1       5.487   6.120  15.907  0.00  0.00    +0.000 C 
BRANCH  15  16
ATOM     16  C   UNL     1       6.815   5.453  15.558  0.00  0.00    +0.000 C 
BRANCH  16  17
ATOM     17  C   UNL     1       6.769   4.867  14.171  0.00  0.00    +0.000 A 
ATOM     18  C   UNL     1       5.838   3.867  13.858  0.00  0.00    +0.000 A 
ATOM     19  C   UNL     1       5.828   3.287  12.588  0.00  0.00    +0.000 A 
ATOM     20  C   UNL     1       6.747   3.699  11.625  0.00  0.00    +0.000 A 
ATOM     21  C   UNL     1       7.677   4.691  11.928  0.00  0.00    +0.000 A 
ATOM     22  C   UNL     1       7.690   5.272  13.198  0.00  0.00    +0.000 A 
ENDBRANCH  16  17
ENDBRANCH  15  16
ENDBRANCH  14  15
ENDBRANCH  13  14
ENDBRANCH   2  13
TORSDOF 8
ENDMDL
MODEL 4
REMARK VINA RESULT:      -7.0      1.502      1.922
REMARK  Name = 
REMARK  8 active torsions:
REMARK  status: ('A' for Active; 'I' for Inactive)
REMARK    1  A    between atoms: C_2  and  C_3
REMARK    2  A    between atoms: C_2  and  C_13
REMARK    3  A    between atoms: C_3  and  C_4
REMARK    4  A    between atoms: C_4  and  C_5
REMARK    5  A    between atoms: C_5  and  C_6
REMARK    6  A    between atoms: C_6  and  C_7
REMARK    7  A    between atoms: C_14  and  O_15
REMARK    8  A    between atoms: C_19  and  O_20
REMARK                            x       y       z     vdW  Elec       q    Type
REMARK                         _______ _______ _______ _____ _____    ______ ____
ROOT
ATOM      1  O   UNL     1       3.986   1.918  17.235  0.00  0.00    +0.000 OA
ATOM      2  C   UNL     1       3.990   2.934  17.936  0.00  0.00    +0.000 C 
ENDROOT
BRANCH   2   3
ATOM      3  C   UNL     1       3.036   3.014  19.094  0.00  0.00    +0.000 A 
ATOM      4  C   UNL     1       3.482   2.618  20.369  0.00  0.00    +0.000 A 
ATOM      5  C   UNL     1       2.629   2.634  21.474  0.00  0.00    +0.000 A 
ATOM      6  C   UNL     1       1.312   3.063  21.333  0.00  0.00    +0.000 A 
ATOM      7  C   UNL     1       0.853   3.485  20.088  0.00  0.00    +0.000 A 
ATOM      8  C   UNL     1       1.707   3.463  18.979  0.00  0.00    +0.000 A 
BRANCH   4   9
ATOM      9  O   UNL     1       4.764   2.203  20.630  0.00  0.00    +0.000 OA
ATOM     10  H   UNL     1       5.082   2.692  21.423  0.00  0.00    +0.000 HD
ENDBRANCH   4   9
BRANCH   8  11
ATOM     11  O   UNL     1       1.200   3.906  17.791  0.00  0.00    +0.000 OA
ATOM     12  H   UNL     1       1.876   4.410  17.306  0.00  0.00    +0.000 HD
ENDBRANCH   8  11
ENDBRANCH   2   3
BRANCH   2  13
ATOM     13  C   UNL     1       4.932   4.090  17.662  0.00  0.00    +0.000 C 
BRANCH  13  14
ATOM     14  C   UNL     1       4.237   5.374  17.218  0.00  0.00    +0.000 C 
BRANCH  14  15
ATOM     15  C   UNL     1       5.072   6.050  16.128  0.00  0.00    +0.000 C 
BRANCH  15  16
ATOM     16  C   UNL     1       6.415   5.357  15.918  0.00  0.00    +0.000 C 
BRANCH  16  17
ATOM     17  C   UNL     1       6.547   4.871  14.497  0.00  0.00    +0.000 A 
ATOM     18  C   UNL     1       5.652   3.918  13.991  0.00  0.00    +0.000 A 
ATOM     19  C   UNL     1       5.804   3.430  12.692  0.00  0.00    +0.000 A 
ATOM     20  C   UNL     1       6.850   3.887  11.892  0.00  0.00    +0.000 A 
ATOM     21  C   UNL     1       7.745   4.832  12.389  0.00  0.00    +0.000 A 
ATOM     22  C   UNL     1       7.596   5.321  13.688  0.00  0.00    +0.000 A 
ENDBRANCH  16  17
ENDBRANCH  15  16
ENDBRANCH  14  15
ENDBRANCH  13  14
ENDBRANCH   2  13
TORSDOF 8
ENDMDL
MODEL 5
REMARK VINA RESULT:      -7.0      2.115      6.875
REMARK  Name = 
REMARK  8 active torsions:
REMARK  status: ('A' for Active; 'I' for Inactive)
REMARK    1  A    between atoms: C_2  and  C_3
REMARK    2  A    between atoms: C_2  and  C_13
REMARK    3  A    between atoms: C_3  and  C_4
REMARK    4  A    between atoms: C_4  and  C_5
REMARK    5  A    between atoms: C_5  and  C_6
REMARK    6  A    between atoms: C_6  and  C_7
REMARK    7  A    between atoms: C_14  and  O_15
REMARK    8  A    between atoms: C_19  and  O_20
REMARK                            x       y       z     vdW  Elec       q    Type
REMARK                         _______ _______ _______ _____ _____    ______ ____
ROOT
ATOM      1  O   UNL     1       7.968   4.548  16.821  0.00  0.00    +0.000 OA
ATOM      2  C   UNL     1       7.185   5.218  16.143  0.00  0.00    +0.000 C 
ENDROOT
BRANCH   2   3
ATOM      3  C   UNL     1       6.869   4.760  14.746  0.00  0.00    +0.000 A 
ATOM      4  C   UNL     1       5.743   3.942  14.539  0.00  0.00    +0.000 A 
ATOM      5  C   UNL     1       5.422   3.456  13.270  0.00  0.00    +0.000 A 
ATOM      6  C   UNL     1       6.213   3.791  12.174  0.00  0.00    +0.000 A 
ATOM      7  C   UNL     1       7.317   4.620  12.347  0.00  0.00    +0.000 A 
ATOM      8  C   UNL     1       7.642   5.104  13.621  0.00  0.00    +0.000 A 
BRANCH   4   9
ATOM      9  O   UNL     1       4.880   3.570  15.539  0.00  0.00    +0.000 OA
ATOM     10  H   UNL     1       4.390   2.773  15.233  0.00  0.00    +0.000 HD
ENDBRANCH   4   9
BRANCH   8  11
ATOM     11  O   UNL     1       8.727   5.926  13.720  0.00  0.00    +0.000 OA
ATOM     12  H   UNL     1       8.516   6.804  13.358  0.00  0.00    +0.000 HD
ENDBRANCH   8  11
ENDBRANCH   2   3
BRANCH   2  13
ATOM     13  C   UNL     1       6.534   6.477  16.682  0.00  0.00    +0.000 C 
BRANCH  13  14
ATOM     14  C   UNL     1       5.424   6.224  17.699  0.00  0.00    +0.000 C 
BRANCH  14  15
ATOM     15  C   UNL     1       4.091   6.703  17.121  0.00  0.00    +0.000 C 
BRANCH  15  16
ATOM     16  C   UNL     1       3.078   7.040  18.212  0.00  0.00    +0.000 C 
BRANCH  16  17
ATOM     17  C   UNL     1       2.424   5.788  18.736  0.00  0.00    +0.000 A 
ATOM     18  C   UNL     1       2.044   4.767  17.854  0.00  0.00    +0.000 A 
ATOM     19  C   UNL     1       1.393   3.629  18.333  0.00  0.00    +0.000 A 
ATOM     20  C   UNL     1       1.113   3.504  19.693  0.00  0.00    +0.000 A 
ATOM     21  C   UNL     1       1.485   4.515  20.576  0.00  0.00    +0.000 A 
ATOM     22  C   UNL     1       2.136   5.655  20.100  0.00  0.00    +0.000 A 
ENDBRANCH  16  17
ENDBRANCH  15  16
ENDBRANCH  14  15
ENDBRANCH  13  14
ENDBRANCH   2  13
TORSDOF 8
ENDMDL
MODEL 6
REMARK VINA RESULT:      -7.0      0.701      2.243
REMARK  Name = 
REMARK  8 active torsions:
REMARK  status: ('A' for Active; 'I' for Inactive)
REMARK    1  A    between atoms: C_2  and  C_3
REMARK    2  A    between atoms: C_2  and  C_13
REMARK    3  A    between atoms: C_3  and  C_4
REMARK    4  A    between atoms: C_4  and  C_5
REMARK    5  A    between atoms: C_5  and  C_6
REMARK    6  A    between atoms: C_6  and  C_7
REMARK    7  A    between atoms: C_14  and  O_15
REMARK    8  A    between atoms: C_19  and  O_20
REMARK                            x       y       z     vdW  Elec       q    Type
REMARK                         _______ _______ _______ _____ _____    ______ ____
ROOT
ATOM      1  O   UNL     1       5.962   4.897  19.649  0.00  0.00    +0.000 OA
ATOM      2  C   UNL     1       4.901   5.154  19.074  0.00  0.00    +0.000 C 
ENDROOT
BRANCH   2   3
ATOM      3  C   UNL     1       3.643   4.484  19.552  0.00  0.00    +0.000 A 
ATOM      4  C   UNL     1       2.596   5.282  20.049  0.00  0.00    +0.000 A 
ATOM      5  C   UNL     1       1.420   4.713  20.541  0.00  0.00    +0.000 A 
ATOM      6  C   UNL     1       1.257   3.330  20.532  0.00  0.00    +0.000 A 
ATOM      7  C   UNL     1       2.266   2.520  20.022  0.00  0.00    +0.000 A 
ATOM      8  C   UNL     1       3.448   3.090  19.533  0.00  0.00    +0.000 A 
BRANCH   4   9
ATOM      9  O   UNL     1       2.637   6.653  20.081  0.00  0.00    +0.000 OA
ATOM     10  H   UNL     1       3.204   6.955  19.335  0.00  0.00    +0.000 HD
ENDBRANCH   4   9
BRANCH   8  11
ATOM     11  O   UNL     1       4.391   2.240  19.030  0.00  0.00    +0.000 OA
ATOM     12  H   UNL     1       5.275   2.494  19.349  0.00  0.00    +0.000 HD
ENDBRANCH   8  11
ENDBRANCH   2   3
BRANCH   2  13
ATOM     13  C   UNL     1       4.835   6.126  17.913  0.00  0.00    +0.000 C 
BRANCH  13  14
ATOM     14  C   UNL     1       6.197   6.614  17.424  0.00  0.00    +0.000 C 
BRANCH  14  15
ATOM     15  C   UNL     1       6.826   5.542  16.531  0.00  0.00    +0.000 C 
BRANCH  15  16
ATOM     16  C   UNL     1       5.777   4.743  15.764  0.00  0.00    +0.000 C 
BRANCH  16  17
ATOM     17  C   UNL     1       6.241   4.468  14.356  0.00  0.00    +0.000 A 
ATOM     18  C   UNL     1       7.351   5.146  13.833  0.00  0.00    +0.000 A 
ATOM     19  C   UNL     1       7.750   4.930  12.513  0.00  0.00    +0.000 A 
ATOM     20  C   UNL     1       7.043   4.040  11.707  0.00  0.00    +0.000 A 
ATOM     21  C   UNL     1       5.938   3.364  12.217  0.00  0.00    +0.000 A 
ATOM     22  C   UNL     1       5.535   3.579  13.537  0.00  0.00    +0.000 A 
ENDBRANCH  16  17
ENDBRANCH  15  16
ENDBRANCH  14  15
ENDBRANCH  13  14
ENDBRANCH   2  13
TORSDOF 8
ENDMDL
MODEL 7
REMARK VINA RESULT:      -6.9      3.276      5.543
REMARK  Name = 
REMARK  8 active torsions:
REMARK  status: ('A' for Active; 'I' for Inactive)
REMARK    1  A    between atoms: C_2  and  C_3
REMARK    2  A    between atoms: C_2  and  C_13
REMARK    3  A    between atoms: C_3  and  C_4
REMARK    4  A    between atoms: C_4  and  C_5
REMARK    5  A    between atoms: C_5  and  C_6
REMARK    6  A    between atoms: C_6  and  C_7
REMARK    7  A    between atoms: C_14  and  O_15
REMARK    8  A    between atoms: C_19  and  O_20
REMARK                            x       y       z     vdW  Elec       q    Type
REMARK                         _______ _______ _______ _____ _____    ______ ____
ROOT
ATOM      1  O   UNL     1       3.711   2.291  17.028  0.00  0.00    +0.000 OA
ATOM      2  C   UNL     1       3.971   3.045  17.970  0.00  0.00    +0.000 C 
ENDROOT
BRANCH   2   3
ATOM      3  C   UNL     1       3.077   3.024  19.177  0.00  0.00    +0.000 A 
ATOM      4  C   UNL     1       1.743   3.451  19.040  0.00  0.00    +0.000 A 
ATOM      5  C   UNL     1       0.877   3.491  20.135  0.00  0.00    +0.000 A 
ATOM      6  C   UNL     1       1.321   3.086  21.391  0.00  0.00    +0.000 A 
ATOM      7  C   UNL     1       2.628   2.634  21.548  0.00  0.00    +0.000 A 
ATOM      8  C   UNL     1       3.498   2.600  20.452  0.00  0.00    +0.000 A 
BRANCH   4   9
ATOM      9  O   UNL     1       1.191   3.847  17.847  0.00  0.00    +0.000 OA
ATOM     10  H   UNL     1       1.929   4.060  17.231  0.00  0.00    +0.000 HD
ENDBRANCH   4   9
BRANCH   8  11
ATOM     11  O   UNL     1       4.761   2.130  20.670  0.00  0.00    +0.000 OA
ATOM     12  H   UNL     1       4.975   2.170  21.618  0.00  0.00    +0.000 HD
ENDBRANCH   8  11
ENDBRANCH   2   3
BRANCH   2  13
ATOM     13  C   UNL     1       5.166   3.978  17.940  0.00  0.00    +0.000 C 
BRANCH  13  14
ATOM     14  C   UNL     1       5.006   5.229  18.800  0.00  0.00    +0.000 C 
BRANCH  14  15
ATOM     15  C   UNL     1       4.662   6.419  17.901  0.00  0.00    +0.000 C 
BRANCH  15  16
ATOM     16  C   UNL     1       3.176   6.467  17.552  0.00  0.00    +0.000 C 
BRANCH  16  17
ATOM     17  C   UNL     1       2.452   7.443  18.443  0.00  0.00    +0.000 A 
ATOM     18  C   UNL     1       2.212   7.129  19.788  0.00  0.00    +0.000 A 
ATOM     19  C   UNL     1       1.497   8.011  20.600  0.00  0.00    +0.000 A 
ATOM     20  C   UNL     1       1.014   9.208  20.075  0.00  0.00    +0.000 A 
ATOM     21  C   UNL     1       1.245   9.527  18.739  0.00  0.00    +0.000 A 
ATOM     22  C   UNL     1       1.960   8.646  17.923  0.00  0.00    +0.000 A 
ENDBRANCH  16  17
ENDBRANCH  15  16
ENDBRANCH  14  15
ENDBRANCH  13  14
ENDBRANCH   2  13
TORSDOF 8
ENDMDL
MODEL 8
REMARK VINA RESULT:      -6.9      1.640      2.374
REMARK  Name = 
REMARK  8 active torsions:
REMARK  status: ('A' for Active; 'I' for Inactive)
REMARK    1  A    between atoms: C_2  and  C_3
REMARK    2  A    between atoms: C_2  and  C_13
REMARK    3  A    between atoms: C_3  and  C_4
REMARK    4  A    between atoms: C_4  and  C_5
REMARK    5  A    between atoms: C_5  and  C_6
REMARK    6  A    between atoms: C_6  and  C_7
REMARK    7  A    between atoms: C_14  and  O_15
REMARK    8  A    between atoms: C_19  and  O_20
REMARK                            x       y       z     vdW  Elec       q    Type
REMARK                         _______ _______ _______ _____ _____    ______ ____
ROOT
ATOM      1  O   UNL     1       3.958   1.403  17.541  0.00  0.00    +0.000 OA
ATOM      2  C   UNL     1       3.666   2.564  17.839  0.00  0.00    +0.000 C 
ENDROOT
BRANCH   2   3
ATOM      3  C   UNL     1       2.844   2.807  19.074  0.00  0.00    +0.000 A 
ATOM      4  C   UNL     1       3.422   2.560  20.332  0.00  0.00    +0.000 A 
ATOM      5  C   UNL     1       2.694   2.731  21.512  0.00  0.00    +0.000 A 
ATOM      6  C   UNL     1       1.374   3.170  21.460  0.00  0.00    +0.000 A 
ATOM      7  C   UNL     1       0.787   3.446  20.229  0.00  0.00    +0.000 A 
ATOM      8  C   UNL     1       1.515   3.270  19.046  0.00  0.00    +0.000 A 
BRANCH   4   9
ATOM      9  O   UNL     1       4.721   2.151  20.505  0.00  0.00    +0.000 OA
ATOM     10  H   UNL     1       4.960   1.580  19.738  0.00  0.00    +0.000 HD
ENDBRANCH   4   9
BRANCH   8  11
ATOM     11  O   UNL     1       0.886   3.575  17.873  0.00  0.00    +0.000 OA
ATOM     12  H   UNL     1       0.749   2.768  17.346  0.00  0.00    +0.000 HD
ENDBRANCH   8  11
ENDBRANCH   2   3
BRANCH   2  13
ATOM     13  C   UNL     1       4.120   3.743  16.999  0.00  0.00    +0.000 C 
BRANCH  13  14
ATOM     14  C   UNL     1       5.224   4.581  17.638  0.00  0.00    +0.000 C 
BRANCH  14  15
ATOM     15  C   UNL     1       6.541   4.328  16.903  0.00  0.00    +0.000 C 
BRANCH  15  16
ATOM     16  C   UNL     1       6.862   5.432  15.899  0.00  0.00    +0.000 C 
BRANCH  16  17
ATOM     17  C   UNL     1       6.878   4.887  14.494  0.00  0.00    +0.000 A 
ATOM     18  C   UNL     1       7.760   5.414  13.541  0.00  0.00    +0.000 A 
ATOM     19  C   UNL     1       7.740   4.944  12.227  0.00  0.00    +0.000 A 
ATOM     20  C   UNL     1       6.838   3.948  11.855  0.00  0.00    +0.000 A 
ATOM     21  C   UNL     1       5.956   3.421  12.795  0.00  0.00    +0.000 A 
ATOM     22  C   UNL     1       5.973   3.890  14.110  0.00  0.00    +0.000 A 
ENDBRANCH  16  17
ENDBRANCH  15  16
ENDBRANCH  14  15
ENDBRANCH  13  14
ENDBRANCH   2  13
TORSDOF 8
ENDMDL
MODEL 9
REMARK VINA RESULT:      -6.9      0.631      1.906
REMARK  Name = 
REMARK  8 active torsions:
REMARK  status: ('A' for Active; 'I' for Inactive)
REMARK    1  A    between atoms: C_2  and  C_3
REMARK    2  A    between atoms: C_2  and  C_13
REMARK    3  A    between atoms: C_3  and  C_4
REMARK    4  A    between atoms: C_4  and  C_5
REMARK    5  A    between atoms: C_5  and  C_6
REMARK    6  A    between atoms: C_6  and  C_7
REMARK    7  A    between atoms: C_14  and  O_15
REMARK    8  A    between atoms: C_19  and  O_20
REMARK                            x       y       z     vdW  Elec       q    Type
REMARK                         _______ _______ _______ _____ _____    ______ ____
ROOT
ATOM      1  O   UNL     1       5.127   5.395  19.536  0.00  0.00    +0.000 OA
ATOM      2  C   UNL     1       4.134   5.548  18.821  0.00  0.00    +0.000 C 
ENDROOT
BRANCH   2   3
ATOM      3  C   UNL     1       2.966   4.620  19.001  0.00  0.00    +0.000 A 
ATOM      4  C   UNL     1       2.102   4.821  20.093  0.00  0.00    +0.000 A 
ATOM      5  C   UNL     1       1.023   3.968  20.334  0.00  0.00    +0.000 A 
ATOM      6  C   UNL     1       0.774   2.900  19.475  0.00  0.00    +0.000 A 
ATOM      7  C   UNL     1       1.598   2.694  18.373  0.00  0.00    +0.000 A 
ATOM      8  C   UNL     1       2.683   3.547  18.135  0.00  0.00    +0.000 A 
BRANCH   4   9
ATOM      9  O   UNL     1       2.236   5.854  20.987  0.00  0.00    +0.000 OA
ATOM     10  H   UNL     1       1.332   6.156  21.236  0.00  0.00    +0.000 HD
ENDBRANCH   4   9
BRANCH   8  11
ATOM     11  O   UNL     1       3.441   3.300  17.027  0.00  0.00    +0.000 OA
ATOM     12  H   UNL     1       4.345   3.635  17.159  0.00  0.00    +0.000 HD
ENDBRANCH   8  11
ENDBRANCH   2   3
BRANCH   2  13
ATOM     13  C   UNL     1       4.062   6.646  17.777  0.00  0.00    +0.000 C 
BRANCH  13  14
ATOM     14  C   UNL     1       4.716   6.289  16.445  0.00  0.00    +0.000 C 
BRANCH  14  15
ATOM     15  C   UNL     1       6.237   6.285  16.614  0.00  0.00    +0.000 C 
BRANCH  15  16
ATOM     16  C   UNL     1       6.851   4.928  16.277  0.00  0.00    +0.000 C 
BRANCH  16  17
ATOM     17  C   UNL     1       6.830   4.690  14.789  0.00  0.00    +0.000 A 
ATOM     18  C   UNL     1       5.937   3.763  14.234  0.00  0.00    +0.000 A 
ATOM     19  C   UNL     1       5.952   3.505  12.862  0.00  0.00    +0.000 A 
ATOM     20  C   UNL     1       6.860   4.167  12.037  0.00  0.00    +0.000 A 
ATOM     21  C   UNL     1       7.753   5.087  12.581  0.00  0.00    +0.000 A 
ATOM     22  C   UNL     1       7.740   5.347  13.953  0.00  0.00    +0.000 A 
ENDBRANCH  16  17
ENDBRANCH  15  16
ENDBRANCH  14  15
ENDBRANCH  13  14
ENDBRANCH   2  13
TORSDOF 8
ENDMDL
