MODEL 1
REMARK VINA RESULT:      -6.8      0.000      0.000
REMARK  Name = 
REMARK  7 active torsions:
REMARK  status: ('A' for Active; 'I' for Inactive)
REMARK    1  A    between atoms: C_2  and  O_3
REMARK    2  A    between atoms: C_2  and  C_4
REMARK    3  A    between atoms: C_5  and  C_6
REMARK    4  A    between atoms: C_9  and  C_10
REMARK    5  A    between atoms: C_10  and  C_23
REMARK    6  A    between atoms: C_11  and  C_12
REMARK    7  A    between atoms: C_11  and  C_19
REMARK                            x       y       z     vdW  Elec       q    Type
REMARK                         _______ _______ _______ _____ _____    ______ ____
ROOT
ATOM      1  C   UNL     1      -1.201  12.708  21.156  0.00  0.00    +0.000 C 
ATOM      2  C   UNL     1      -0.594  13.913  20.956  0.00  0.00    +0.000 C 
ENDROOT
BRANCH   1   3
ATOM      3  C   UNL     1      -2.645  12.648  21.497  0.00  0.00    +0.000 A 
ATOM      4  C   UNL     1      -3.643  12.747  20.520  0.00  0.00    +0.000 A 
ATOM      5  C   UNL     1      -5.003  12.736  20.863  0.00  0.00    +0.000 A 
ATOM      6  C   UNL     1      -5.317  12.629  22.223  0.00  0.00    +0.000 A 
ATOM      7  N   UNL     1      -6.517  12.610  22.887  0.00  0.00    +0.000 N 
ATOM      8  N   UNL     1      -6.408  12.486  24.224  0.00  0.00    +0.000 NA
ATOM      9  C   UNL     1      -5.089  12.434  24.411  0.00  0.00    +0.000 A 
ATOM     10  F   UNL     1      -4.543  12.317  25.591  0.00  0.00    +0.000 F 
ATOM     11  C   UNL     1      -4.352  12.524  23.214  0.00  0.00    +0.000 A 
ATOM     12  C   UNL     1      -2.995  12.531  22.855  0.00  0.00    +0.000 A 
ATOM     13  H   UNL     1      -7.447  12.681  22.490  0.00  0.00    +0.000 HD
ENDBRANCH   1   3
BRANCH   2  14
ATOM     14  C   UNL     1       0.777  13.987  20.392  0.00  0.00    +0.000 A 
ATOM     15  C   UNL     1       1.873  14.084  21.258  0.00  0.00    +0.000 A 
ATOM     16  C   UNL     1       3.152  14.082  20.719  0.00  0.00    +0.000 A 
ATOM     17  N   UNL     1       3.414  13.999  19.398  0.00  0.00    +0.000 NA
ATOM     18  C   UNL     1       2.341  13.917  18.575  0.00  0.00    +0.000 A 
ATOM     19  C   UNL     1       1.024  13.912  19.011  0.00  0.00    +0.000 A 
ATOM     20 CL   UNL     1      -0.228  13.816  17.828  0.00  0.00    +0.000 Cl
ENDBRANCH   2  14
BRANCH   1  24
ATOM     21  C   UNL     1       0.983   9.017  20.520  0.00  0.00    +0.000 A 
ATOM     22  C   UNL     1       0.917   9.606  21.790  0.00  0.00    +0.000 A 
ATOM     23  C   UNL     1       0.195  10.794  22.001  0.00  0.00    +0.000 A 
ATOM     24  C   UNL     1      -0.461  11.426  20.938  0.00  0.00    +0.000 A 
ATOM     25  C   UNL     1      -0.423  10.822  19.677  0.00  0.00    +0.000 A 
ATOM     26  C   UNL     1       0.298   9.638  19.468  0.00  0.00    +0.000 A 
BRANCH  21  28
ATOM     27  C   UNL     1       2.304   7.420  19.131  0.00  0.00    +0.000 C 
ATOM     28  C   UNL     1       1.834   7.828  20.321  0.00  0.00    +0.000 C 
BRANCH  27  30
ATOM     29  O   UNL     1       3.523   5.929  17.770  0.00  0.00    +0.000 OA
ATOM     30  C   UNL     1       3.212   6.276  18.899  0.00  0.00    +0.000 C 
BRANCH  30  31
ATOM     31  O   UNL     1       3.631   5.637  20.003  0.00  0.00    +0.000 OA
ATOM     32  H   UNL     1       3.534   6.139  20.828  0.00  0.00    +0.000 HD
ENDBRANCH  30  31
ENDBRANCH  27  30
ENDBRANCH  21  28
ENDBRANCH   1  24
BRANCH   2  33
ATOM     33  C   UNL     1      -1.288  15.208  21.312  0.00  0.00    +0.000 C 
ATOM     34  C   UNL     1      -1.034  15.860  22.704  0.00  0.00    +0.000 C 
ATOM     35  C   UNL     1      -1.131  17.231  22.007  0.00  0.00    +0.000 C 
ATOM     36  C   UNL     1      -0.720  16.520  20.705  0.00  0.00    +0.000 C 
ENDBRANCH   2  33
TORSDOF 7
ENDMDL
MODEL 2
REMARK VINA RESULT:      -6.6      2.549      3.252
REMARK  Name = 
REMARK  7 active torsions:
REMARK  status: ('A' for Active; 'I' for Inactive)
REMARK    1  A    between atoms: C_2  and  O_3
REMARK    2  A    between atoms: C_2  and  C_4
REMARK    3  A    between atoms: C_5  and  C_6
REMARK    4  A    between atoms: C_9  and  C_10
REMARK    5  A    between atoms: C_10  and  C_23
REMARK    6  A    between atoms: C_11  and  C_12
REMARK    7  A    between atoms: C_11  and  C_19
REMARK                            x       y       z     vdW  Elec       q    Type
REMARK                         _______ _______ _______ _____ _____    ______ ____
ROOT
ATOM      1  C   UNL     1      -0.744  12.004  18.906  0.00  0.00    +0.000 C 
ATOM      2  C   UNL     1      -0.221  13.256  19.045  0.00  0.00    +0.000 C 
ENDROOT
BRANCH   1   3
ATOM      3  C   UNL     1      -2.130  11.827  18.402  0.00  0.00    +0.000 A 
ATOM      4  C   UNL     1      -2.398  11.533  17.059  0.00  0.00    +0.000 A 
ATOM      5  C   UNL     1      -3.715  11.415  16.589  0.00  0.00    +0.000 A 
ATOM      6  C   UNL     1      -4.744  11.609  17.518  0.00  0.00    +0.000 A 
ATOM      7  N   UNL     1      -6.109  11.587  17.389  0.00  0.00    +0.000 N 
ATOM      8  N   UNL     1      -6.777  11.818  18.535  0.00  0.00    +0.000 NA
ATOM      9  C   UNL     1      -5.796  12.004  19.419  0.00  0.00    +0.000 A 
ATOM     10  F   UNL     1      -6.015  12.266  20.679  0.00  0.00    +0.000 F 
ATOM     11  C   UNL     1      -4.510  11.895  18.855  0.00  0.00    +0.000 A 
ATOM     12  C   UNL     1      -3.188  12.006  19.312  0.00  0.00    +0.000 A 
ATOM     13  H   UNL     1      -6.651  11.422  16.548  0.00  0.00    +0.000 HD
ENDBRANCH   1   3
BRANCH   2  14
ATOM     14  C   UNL     1       1.224  13.448  19.322  0.00  0.00    +0.000 A 
ATOM     15  C   UNL     1       2.132  13.475  18.256  0.00  0.00    +0.000 A 
ATOM     16  C   UNL     1       3.471  13.725  18.526  0.00  0.00    +0.000 A 
ATOM     17  N   UNL     1       3.964  13.940  19.763  0.00  0.00    +0.000 NA
ATOM     18  C   UNL     1       3.073  13.900  20.782  0.00  0.00    +0.000 A 
ATOM     19  C   UNL     1       1.716  13.658  20.621  0.00  0.00    +0.000 A 
ATOM     20 CL   UNL     1       0.720  13.626  22.029  0.00  0.00    +0.000 Cl
ENDBRANCH   2  14
BRANCH   1  24
ATOM     21  C   UNL     1       1.638   8.453  19.619  0.00  0.00    +0.000 A 
ATOM     22  C   UNL     1       1.542   9.011  18.337  0.00  0.00    +0.000 A 
ATOM     23  C   UNL     1       0.783  10.172  18.108  0.00  0.00    +0.000 A 
ATOM     24  C   UNL     1       0.090  10.788  19.157  0.00  0.00    +0.000 A 
ATOM     25  C   UNL     1       0.213  10.251  20.442  0.00  0.00    +0.000 A 
ATOM     26  C   UNL     1       0.969   9.092  20.669  0.00  0.00    +0.000 A 
BRANCH  21  28
ATOM     27  C   UNL     1       1.863   6.105  20.434  0.00  0.00    +0.000 C 
ATOM     28  C   UNL     1       2.361   7.178  19.797  0.00  0.00    +0.000 C 
BRANCH  27  30
ATOM     29  O   UNL     1       3.496   4.491  19.894  0.00  0.00    +0.000 OA
ATOM     30  C   UNL     1       2.526   4.791  20.574  0.00  0.00    +0.000 C 
BRANCH  30  31
ATOM     31  O   UNL     1       1.970   3.954  21.464  0.00  0.00    +0.000 OA
ATOM     32  H   UNL     1       1.527   3.182  21.077  0.00  0.00    +0.000 HD
ENDBRANCH  30  31
ENDBRANCH  27  30
ENDBRANCH  21  28
ENDBRANCH   1  24
BRANCH   2  33
ATOM     33  C   UNL     1      -1.094  14.485  18.935  0.00  0.00    +0.000 C 
ATOM     34  C   UNL     1      -1.643  15.159  20.229  0.00  0.00    +0.000 C 
ATOM     35  C   UNL     1      -1.469  16.515  19.519  0.00  0.00    +0.000 C 
ATOM     36  C   UNL     1      -0.394  15.842  18.646  0.00  0.00    +0.000 C 
ENDBRANCH   2  33
TORSDOF 7
ENDMDL
MODEL 3
REMARK VINA RESULT:      -6.6      0.767      1.145
REMARK  Name = 
REMARK  7 active torsions:
REMARK  status: ('A' for Active; 'I' for Inactive)
REMARK    1  A    between atoms: C_2  and  O_3
REMARK    2  A    between atoms: C_2  and  C_4
REMARK    3  A    between atoms: C_5  and  C_6
REMARK    4  A    between atoms: C_9  and  C_10
REMARK    5  A    between atoms: C_10  and  C_23
REMARK    6  A    between atoms: C_11  and  C_12
REMARK    7  A    between atoms: C_11  and  C_19
REMARK                            x       y       z     vdW  Elec       q    Type
REMARK                         _______ _______ _______ _____ _____    ______ ____
ROOT
ATOM      1  C   UNL     1      -0.931  13.001  21.028  0.00  0.00    +0.000 C 
ATOM      2  C   UNL     1      -0.337  14.228  21.086  0.00  0.00    +0.000 C 
ENDROOT
BRANCH   1   3
ATOM      3  C   UNL     1      -2.363  12.849  21.395  0.00  0.00    +0.000 A 
ATOM      4  C   UNL     1      -3.381  12.868  20.433  0.00  0.00    +0.000 A 
ATOM      5  C   UNL     1      -4.731  12.770  20.800  0.00  0.00    +0.000 A 
ATOM      6  C   UNL     1      -5.015  12.659  22.167  0.00  0.00    +0.000 A 
ATOM      7  N   UNL     1      -6.200  12.567  22.851  0.00  0.00    +0.000 N 
ATOM      8  N   UNL     1      -6.061  12.466  24.187  0.00  0.00    +0.000 NA
ATOM      9  C   UNL     1      -4.739  12.506  24.352  0.00  0.00    +0.000 A 
ATOM     10  F   UNL     1      -4.167  12.440  25.524  0.00  0.00    +0.000 F 
ATOM     11  C   UNL     1      -4.029  12.631  23.142  0.00  0.00    +0.000 A 
ATOM     12  C   UNL     1      -2.682  12.725  22.760  0.00  0.00    +0.000 A 
ATOM     13  H   UNL     1      -7.139  12.570  22.469  0.00  0.00    +0.000 HD
ENDBRANCH   1   3
BRANCH   2  14
ATOM     14  C   UNL     1       1.013  14.444  20.509  0.00  0.00    +0.000 A 
ATOM     15  C   UNL     1       2.145  14.082  21.249  0.00  0.00    +0.000 A 
ATOM     16  C   UNL     1       3.397  14.225  20.668  0.00  0.00    +0.000 A 
ATOM     17  N   UNL     1       3.600  14.704  19.423  0.00  0.00    +0.000 NA
ATOM     18  C   UNL     1       2.495  15.060  18.726  0.00  0.00    +0.000 A 
ATOM     19  C   UNL     1       1.200  14.957  19.214  0.00  0.00    +0.000 A 
ATOM     20 CL   UNL     1      -0.098  15.468  18.200  0.00  0.00    +0.000 Cl
ENDBRANCH   2  14
BRANCH   1  24
ATOM     21  C   UNL     1       1.164   9.530  19.495  0.00  0.00    +0.000 A 
ATOM     22  C   UNL     1       0.611  10.479  18.626  0.00  0.00    +0.000 A 
ATOM     23  C   UNL     1      -0.055  11.615  19.122  0.00  0.00    +0.000 A 
ATOM     24  C   UNL     1      -0.195  11.811  20.501  0.00  0.00    +0.000 A 
ATOM     25  C   UNL     1       0.386  10.881  21.370  0.00  0.00    +0.000 A 
ATOM     26  C   UNL     1       1.048   9.749  20.873  0.00  0.00    +0.000 A 
BRANCH  21  28
ATOM     27  C   UNL     1       2.209   7.270  19.668  0.00  0.00    +0.000 C 
ATOM     28  C   UNL     1       1.764   8.304  18.934  0.00  0.00    +0.000 C 
BRANCH  27  30
ATOM     29  O   UNL     1       2.227   5.422  18.203  0.00  0.00    +0.000 OA
ATOM     30  C   UNL     1       2.753   6.000  19.143  0.00  0.00    +0.000 C 
BRANCH  30  31
ATOM     31  O   UNL     1       3.827   5.520  19.789  0.00  0.00    +0.000 OA
ATOM     32  H   UNL     1       4.474   5.066  19.225  0.00  0.00    +0.000 HD
ENDBRANCH  30  31
ENDBRANCH  27  30
ENDBRANCH  21  28
ENDBRANCH   1  24
BRANCH   2  33
ATOM     33  C   UNL     1      -1.024  15.400  21.750  0.00  0.00    +0.000 C 
ATOM     34  C   UNL     1      -0.211  16.692  22.064  0.00  0.00    +0.000 C 
ATOM     35  C   UNL     1      -1.483  17.495  21.731  0.00  0.00    +0.000 C 
ATOM     36  C   UNL     1      -1.925  16.303  20.863  0.00  0.00    +0.000 C 
ENDBRANCH   2  33
TORSDOF 7
ENDMDL
MODEL 4
REMARK VINA RESULT:      -6.6      1.087      1.459
REMARK  Name = 
REMARK  7 active torsions:
REMARK  status: ('A' for Active; 'I' for Inactive)
REMARK    1  A    between atoms: C_2  and  O_3
REMARK    2  A    between atoms: C_2  and  C_4
REMARK    3  A    between atoms: C_5  and  C_6
REMARK    4  A    between atoms: C_9  and  C_10
REMARK    5  A    between atoms: C_10  and  C_23
REMARK    6  A    between atoms: C_11  and  C_12
REMARK    7  A    between atoms: C_11  and  C_19
REMARK                            x       y       z     vdW  Elec       q    Type
REMARK                         _______ _______ _______ _____ _____    ______ ____
ROOT
ATOM      1  C   UNL     1      -1.924  12.884  21.025  0.00  0.00    +0.000 C 
ATOM      2  C   UNL     1      -1.363  14.122  20.906  0.00  0.00    +0.000 C 
ENDROOT
BRANCH   1   3
ATOM      3  C   UNL     1      -3.402  12.731  21.007  0.00  0.00    +0.000 A 
ATOM      4  C   UNL     1      -4.113  12.538  19.816  0.00  0.00    +0.000 A 
ATOM      5  C   UNL     1      -5.512  12.442  19.811  0.00  0.00    +0.000 A 
ATOM      6  C   UNL     1      -6.165  12.554  21.045  0.00  0.00    +0.000 A 
ATOM      7  N   UNL     1      -7.493  12.527  21.384  0.00  0.00    +0.000 N 
ATOM      8  N   UNL     1      -7.731  12.664  22.702  0.00  0.00    +0.000 NA
ATOM      9  C   UNL     1      -6.507  12.793  23.213  0.00  0.00    +0.000 A 
ATOM     10  F   UNL     1      -6.283  12.956  24.489  0.00  0.00    +0.000 F 
ATOM     11  C   UNL     1      -5.488  12.741  22.241  0.00  0.00    +0.000 A 
ATOM     12  C   UNL     1      -4.088  12.830  22.232  0.00  0.00    +0.000 A 
ATOM     13  H   UNL     1      -8.290  12.422  20.765  0.00  0.00    +0.000 HD
ENDBRANCH   1   3
BRANCH   2  14
ATOM     14  C   UNL     1       0.097  14.274  20.689  0.00  0.00    +0.000 A 
ATOM     15  C   UNL     1       0.937  14.495  21.788  0.00  0.00    +0.000 A 
ATOM     16  C   UNL     1       2.307  14.566  21.579  0.00  0.00    +0.000 A 
ATOM     17  N   UNL     1       2.892  14.441  20.369  0.00  0.00    +0.000 NA
ATOM     18  C   UNL     1       2.064  14.239  19.317  0.00  0.00    +0.000 A 
ATOM     19  C   UNL     1       0.682  14.153  19.418  0.00  0.00    +0.000 A 
ATOM     20 CL   UNL     1      -0.228  13.907  17.974  0.00  0.00    +0.000 Cl
ENDBRANCH   2  14
BRANCH   1  24
ATOM     21  C   UNL     1       0.497   9.291  21.160  0.00  0.00    +0.000 A 
ATOM     22  C   UNL     1       0.064   9.822  19.938  0.00  0.00    +0.000 A 
ATOM     23  C   UNL     1      -0.708  10.997  19.892  0.00  0.00    +0.000 A 
ATOM     24  C   UNL     1      -1.076  11.654  21.073  0.00  0.00    +0.000 A 
ATOM     25  C   UNL     1      -0.616  11.142  22.291  0.00  0.00    +0.000 A 
ATOM     26  C   UNL     1       0.153   9.970  22.335  0.00  0.00    +0.000 A 
BRANCH  21  28
ATOM     27  C   UNL     1       1.835   7.469  20.103  0.00  0.00    +0.000 C 
ATOM     28  C   UNL     1       1.218   8.003  21.170  0.00  0.00    +0.000 C 
BRANCH  27  30
ATOM     29  O   UNL     1       3.438   5.989  19.207  0.00  0.00    +0.000 OA
ATOM     30  C   UNL     1       2.622   6.218  20.087  0.00  0.00    +0.000 C 
BRANCH  30  31
ATOM     31  O   UNL     1       2.350   5.351  21.076  0.00  0.00    +0.000 OA
ATOM     32  H   UNL     1       1.426   5.348  21.374  0.00  0.00    +0.000 HD
ENDBRANCH  30  31
ENDBRANCH  27  30
ENDBRANCH  21  28
ENDBRANCH   1  24
BRANCH   2  33
ATOM     33  C   UNL     1      -2.203  15.375  21.003  0.00  0.00    +0.000 C 
ATOM     34  C   UNL     1      -2.305  16.131  22.362  0.00  0.00    +0.000 C 
ATOM     35  C   UNL     1      -2.337  17.443  21.555  0.00  0.00    +0.000 C 
ATOM     36  C   UNL     1      -1.604  16.689  20.431  0.00  0.00    +0.000 C 
ENDBRANCH   2  33
TORSDOF 7
ENDMDL
MODEL 5
REMARK VINA RESULT:      -6.5      1.817      2.465
REMARK  Name = 
REMARK  7 active torsions:
REMARK  status: ('A' for Active; 'I' for Inactive)
REMARK    1  A    between atoms: C_2  and  O_3
REMARK    2  A    between atoms: C_2  and  C_4
REMARK    3  A    between atoms: C_5  and  C_6
REMARK    4  A    between atoms: C_9  and  C_10
REMARK    5  A    between atoms: C_10  and  C_23
REMARK    6  A    between atoms: C_11  and  C_12
REMARK    7  A    between atoms: C_11  and  C_19
REMARK                            x       y       z     vdW  Elec       q    Type
REMARK                         _______ _______ _______ _____ _____    ______ ____
ROOT
ATOM      1  C   UNL     1      -1.850  12.887  21.183  0.00  0.00    +0.000 C 
ATOM      2  C   UNL     1      -1.224  14.077  20.955  0.00  0.00    +0.000 C 
ENDROOT
BRANCH   1   3
ATOM      3  C   UNL     1      -3.333  12.824  21.241  0.00  0.00    +0.000 A 
ATOM      4  C   UNL     1      -4.033  12.939  22.448  0.00  0.00    +0.000 A 
ATOM      5  C   UNL     1      -5.431  12.831  22.493  0.00  0.00    +0.000 A 
ATOM      6  C   UNL     1      -6.092  12.597  21.280  0.00  0.00    +0.000 A 
ATOM      7  N   UNL     1      -7.418  12.424  20.979  0.00  0.00    +0.000 N 
ATOM      8  N   UNL     1      -7.668  12.224  19.671  0.00  0.00    +0.000 NA
ATOM      9  C   UNL     1      -6.452  12.263  19.127  0.00  0.00    +0.000 A 
ATOM     10  F   UNL     1      -6.239  12.106  17.848  0.00  0.00    +0.000 F 
ATOM     11  C   UNL     1      -5.427  12.485  20.068  0.00  0.00    +0.000 A 
ATOM     12  C   UNL     1      -4.028  12.600  20.038  0.00  0.00    +0.000 A 
ATOM     13  H   UNL     1      -8.206  12.426  21.619  0.00  0.00    +0.000 HD
ENDBRANCH   1   3
BRANCH   2  14
ATOM     14  C   UNL     1       0.231  14.125  20.664  0.00  0.00    +0.000 A 
ATOM     15  C   UNL     1       1.136  14.342  21.710  0.00  0.00    +0.000 A 
ATOM     16  C   UNL     1       2.496  14.314  21.434  0.00  0.00    +0.000 A 
ATOM     17  N   UNL     1       3.011  14.097  20.206  0.00  0.00    +0.000 NA
ATOM     18  C   UNL     1       2.121  13.901  19.204  0.00  0.00    +0.000 A 
ATOM     19  C   UNL     1       0.744  13.910  19.374  0.00  0.00    +0.000 A 
ATOM     20 CL   UNL     1      -0.251  13.657  17.988  0.00  0.00    +0.000 Cl
ENDBRANCH   2  14
BRANCH   1  24
ATOM     21  C   UNL     1       0.362   9.168  21.447  0.00  0.00    +0.000 A 
ATOM     22  C   UNL     1      -0.024   9.690  20.206  0.00  0.00    +0.000 A 
ATOM     23  C   UNL     1      -0.728  10.905  20.117  0.00  0.00    +0.000 A 
ATOM     24  C   UNL     1      -1.073  11.612  21.275  0.00  0.00    +0.000 A 
ATOM     25  C   UNL     1      -0.659  11.109  22.512  0.00  0.00    +0.000 A 
ATOM     26  C   UNL     1       0.040   9.897  22.599  0.00  0.00    +0.000 A 
BRANCH  21  28
ATOM     27  C   UNL     1       1.475   7.180  20.429  0.00  0.00    +0.000 C 
ATOM     28  C   UNL     1       1.007   7.842  21.501  0.00  0.00    +0.000 C 
BRANCH  27  30
ATOM     29  O   UNL     1       1.642   4.865  20.845  0.00  0.00    +0.000 OA
ATOM     30  C   UNL     1       2.186   5.885  20.448  0.00  0.00    +0.000 C 
BRANCH  30  31
ATOM     31  O   UNL     1       3.464   5.920  20.038  0.00  0.00    +0.000 OA
ATOM     32  H   UNL     1       3.954   6.719  20.294  0.00  0.00    +0.000 HD
ENDBRANCH  30  31
ENDBRANCH  27  30
ENDBRANCH  21  28
ENDBRANCH   1  24
BRANCH   2  33
ATOM     33  C   UNL     1      -1.983  15.383  21.005  0.00  0.00    +0.000 C 
ATOM     34  C   UNL     1      -1.954  16.242  22.305  0.00  0.00    +0.000 C 
ATOM     35  C   UNL     1      -1.964  17.491  21.403  0.00  0.00    +0.000 C 
ATOM     36  C   UNL     1      -1.348  16.613  20.299  0.00  0.00    +0.000 C 
ENDBRANCH   2  33
TORSDOF 7
ENDMDL
MODEL 6
REMARK VINA RESULT:      -6.5      1.169      1.585
REMARK  Name = 
REMARK  7 active torsions:
REMARK  status: ('A' for Active; 'I' for Inactive)
REMARK    1  A    between atoms: C_2  and  O_3
REMARK    2  A    between atoms: C_2  and  C_4
REMARK    3  A    between atoms: C_5  and  C_6
REMARK    4  A    between atoms: C_9  and  C_10
REMARK    5  A    between atoms: C_10  and  C_23
REMARK    6  A    between atoms: C_11  and  C_12
REMARK    7  A    between atoms: C_11  and  C_19
REMARK                            x       y       z     vdW  Elec       q    Type
REMARK                         _______ _______ _______ _____ _____    ______ ____
ROOT
ATOM      1  C   UNL     1      -1.179  12.733  21.652  0.00  0.00    +0.000 C 
ATOM      2  C   UNL     1      -0.557  13.912  21.362  0.00  0.00    +0.000 C 
ENDROOT
BRANCH   1   3
ATOM      3  C   UNL     1      -2.569  12.734  22.178  0.00  0.00    +0.000 A 
ATOM      4  C   UNL     1      -2.842  12.670  23.550  0.00  0.00    +0.000 A 
ATOM      5  C   UNL     1      -4.160  12.624  24.029  0.00  0.00    +0.000 A 
ATOM      6  C   UNL     1      -5.186  12.638  23.076  0.00  0.00    +0.000 A 
ATOM      7  N   UNL     1      -6.550  12.584  23.200  0.00  0.00    +0.000 N 
ATOM      8  N   UNL     1      -7.215  12.629  22.030  0.00  0.00    +0.000 NA
ATOM      9  C   UNL     1      -6.231  12.703  21.133  0.00  0.00    +0.000 A 
ATOM     10  F   UNL     1      -6.446  12.761  19.846  0.00  0.00    +0.000 F 
ATOM     11  C   UNL     1      -4.947  12.706  21.712  0.00  0.00    +0.000 A 
ATOM     12  C   UNL     1      -3.624  12.757  21.247  0.00  0.00    +0.000 A 
ATOM     13  H   UNL     1      -7.094  12.514  24.053  0.00  0.00    +0.000 HD
ENDBRANCH   1   3
BRANCH   2  14
ATOM     14  C   UNL     1       0.731  13.928  20.624  0.00  0.00    +0.000 A 
ATOM     15  C   UNL     1       1.933  13.994  21.339  0.00  0.00    +0.000 A 
ATOM     16  C   UNL     1       3.130  13.938  20.639  0.00  0.00    +0.000 A 
ATOM     17  N   UNL     1       3.214  13.830  19.297  0.00  0.00    +0.000 NA
ATOM     18  C   UNL     1       2.041  13.779  18.621  0.00  0.00    +0.000 A 
ATOM     19  C   UNL     1       0.793  13.828  19.225  0.00  0.00    +0.000 A 
ATOM     20 CL   UNL     1      -0.605  13.766  18.216  0.00  0.00    +0.000 Cl
ENDBRANCH   2  14
BRANCH   1  24
ATOM     21  C   UNL     1       0.756   8.954  20.774  0.00  0.00    +0.000 A 
ATOM     22  C   UNL     1       0.853   9.536  22.046  0.00  0.00    +0.000 A 
ATOM     23  C   UNL     1       0.212  10.754  22.336  0.00  0.00    +0.000 A 
ATOM     24  C   UNL     1      -0.526  11.422  21.352  0.00  0.00    +0.000 A 
ATOM     25  C   UNL     1      -0.651  10.826  20.093  0.00  0.00    +0.000 A 
ATOM     26  C   UNL     1      -0.010   9.613  19.804  0.00  0.00    +0.000 A 
BRANCH  21  28
ATOM     27  C   UNL     1       2.206   7.513  19.344  0.00  0.00    +0.000 C 
ATOM     28  C   UNL     1       1.526   7.730  20.482  0.00  0.00    +0.000 C 
BRANCH  27  30
ATOM     29  O   UNL     1       3.176   5.923  17.897  0.00  0.00    +0.000 OA
ATOM     30  C   UNL     1       3.042   6.333  19.041  0.00  0.00    +0.000 C 
BRANCH  30  31
ATOM     31  O   UNL     1       3.606   5.735  20.103  0.00  0.00    +0.000 OA
ATOM     32  H   UNL     1       3.692   6.297  20.890  0.00  0.00    +0.000 HD
ENDBRANCH  30  31
ENDBRANCH  27  30
ENDBRANCH  21  28
ENDBRANCH   1  24
BRANCH   2  33
ATOM     33  C   UNL     1      -1.147  15.235  21.793  0.00  0.00    +0.000 C 
ATOM     34  C   UNL     1      -0.655  15.906  23.111  0.00  0.00    +0.000 C 
ATOM     35  C   UNL     1      -0.822  17.265  22.405  0.00  0.00    +0.000 C 
ATOM     36  C   UNL     1      -0.646  16.516  21.072  0.00  0.00    +0.000 C 
ENDBRANCH   2  33
TORSDOF 7
ENDMDL
MODEL 7
REMARK VINA RESULT:      -6.5      0.958      1.243
REMARK  Name = 
REMARK  7 active torsions:
REMARK  status: ('A' for Active; 'I' for Inactive)
REMARK    1  A    between atoms: C_2  and  O_3
REMARK    2  A    between atoms: C_2  and  C_4
REMARK    3  A    between atoms: C_5  and  C_6
REMARK    4  A    between atoms: C_9  and  C_10
REMARK    5  A    between atoms: C_10  and  C_23
REMARK    6  A    between atoms: C_11  and  C_12
REMARK    7  A    between atoms: C_11  and  C_19
REMARK                            x       y       z     vdW  Elec       q    Type
REMARK                         _______ _______ _______ _____ _____    ______ ____
ROOT
ATOM      1  C   UNL     1      -1.257  12.725  20.787  0.00  0.00    +0.000 C 
ATOM      2  C   UNL     1      -0.690  13.910  20.420  0.00  0.00    +0.000 C 
ENDROOT
BRANCH   1   3
ATOM      3  C   UNL     1      -2.679  12.681  21.216  0.00  0.00    +0.000 A 
ATOM      4  C   UNL     1      -3.733  12.788  20.301  0.00  0.00    +0.000 A 
ATOM      5  C   UNL     1      -5.070  12.792  20.727  0.00  0.00    +0.000 A 
ATOM      6  C   UNL     1      -5.301  12.691  22.104  0.00  0.00    +0.000 A 
ATOM      7  N   UNL     1      -6.458  12.686  22.840  0.00  0.00    +0.000 N 
ATOM      8  N   UNL     1      -6.269  12.563  24.168  0.00  0.00    +0.000 NA
ATOM      9  C   UNL     1      -4.942  12.498  24.274  0.00  0.00    +0.000 A 
ATOM     10  F   UNL     1      -4.326  12.378  25.419  0.00  0.00    +0.000 F 
ATOM     11  C   UNL     1      -4.278  12.578  23.034  0.00  0.00    +0.000 A 
ATOM     12  C   UNL     1      -2.946  12.571  22.593  0.00  0.00    +0.000 A 
ATOM     13  H   UNL     1      -7.410  12.766  22.500  0.00  0.00    +0.000 HD
ENDBRANCH   1   3
BRANCH   2  14
ATOM     14  C   UNL     1       0.646  13.942  19.772  0.00  0.00    +0.000 A 
ATOM     15  C   UNL     1       0.762  13.609  18.417  0.00  0.00    +0.000 A 
ATOM     16  C   UNL     1       2.006  13.712  17.809  0.00  0.00    +0.000 A 
ATOM     17  N   UNL     1       3.126  14.110  18.446  0.00  0.00    +0.000 NA
ATOM     18  C   UNL     1       2.997  14.417  19.758  0.00  0.00    +0.000 A 
ATOM     19  C   UNL     1       1.801  14.348  20.460  0.00  0.00    +0.000 A 
ATOM     20 CL   UNL     1       1.812  14.762  22.135  0.00  0.00    +0.000 Cl
ENDBRANCH   2  14
BRANCH   1  24
ATOM     21  C   UNL     1       0.969   9.021  20.435  0.00  0.00    +0.000 A 
ATOM     22  C   UNL     1       1.013   9.780  21.613  0.00  0.00    +0.000 A 
ATOM     23  C   UNL     1       0.279  10.973  21.734  0.00  0.00    +0.000 A 
ATOM     24  C   UNL     1      -0.502  11.439  20.670  0.00  0.00    +0.000 A 
ATOM     25  C   UNL     1      -0.573  10.666  19.507  0.00  0.00    +0.000 A 
ATOM     26  C   UNL     1       0.160   9.477  19.387  0.00  0.00    +0.000 A 
BRANCH  21  28
ATOM     27  C   UNL     1       2.328   7.367  19.154  0.00  0.00    +0.000 C 
ATOM     28  C   UNL     1       1.833   7.832  20.313  0.00  0.00    +0.000 C 
BRANCH  27  30
ATOM     29  O   UNL     1       3.662   5.883  17.898  0.00  0.00    +0.000 OA
ATOM     30  C   UNL     1       3.249   6.222  18.996  0.00  0.00    +0.000 C 
BRANCH  30  31
ATOM     31  O   UNL     1       3.562   5.572  20.129  0.00  0.00    +0.000 OA
ATOM     32  H   UNL     1       3.531   4.603  20.065  0.00  0.00    +0.000 HD
ENDBRANCH  30  31
ENDBRANCH  27  30
ENDBRANCH  21  28
ENDBRANCH   1  24
BRANCH   2  33
ATOM     33  C   UNL     1      -1.391  15.225  20.670  0.00  0.00    +0.000 C 
ATOM     34  C   UNL     1      -1.259  15.916  22.061  0.00  0.00    +0.000 C 
ATOM     35  C   UNL     1      -1.265  17.266  21.318  0.00  0.00    +0.000 C 
ATOM     36  C   UNL     1      -0.744  16.509  20.082  0.00  0.00    +0.000 C 
ENDBRANCH   2  33
TORSDOF 7
ENDMDL
MODEL 8
REMARK VINA RESULT:      -6.4      2.107      2.809
REMARK  Name = 
REMARK  7 active torsions:
REMARK  status: ('A' for Active; 'I' for Inactive)
REMARK    1  A    between atoms: C_2  and  O_3
REMARK    2  A    between atoms: C_2  and  C_4
REMARK    3  A    between atoms: C_5  and  C_6
REMARK    4  A    between atoms: C_9  and  C_10
REMARK    5  A    between atoms: C_10  and  C_23
REMARK    6  A    between atoms: C_11  and  C_12
REMARK    7  A    between atoms: C_11  and  C_19
REMARK                            x       y       z     vdW  Elec       q    Type
REMARK                         _______ _______ _______ _____ _____    ______ ____
ROOT
ATOM      1  C   UNL     1      -1.362  12.727  20.303  0.00  0.00    +0.000 C 
ATOM      2  C   UNL     1      -0.750  13.906  19.993  0.00  0.00    +0.000 C 
ENDROOT
BRANCH   1   3
ATOM      3  C   UNL     1      -2.843  12.659  20.400  0.00  0.00    +0.000 A 
ATOM      4  C   UNL     1      -3.519  12.894  21.603  0.00  0.00    +0.000 A 
ATOM      5  C   UNL     1      -4.915  12.780  21.689  0.00  0.00    +0.000 A 
ATOM      6  C   UNL     1      -5.598  12.416  20.522  0.00  0.00    +0.000 A 
ATOM      7  N   UNL     1      -6.929  12.202  20.270  0.00  0.00    +0.000 N 
ATOM      8  N   UNL     1      -7.203  11.865  18.995  0.00  0.00    +0.000 NA
ATOM      9  C   UNL     1      -5.999  11.857  18.424  0.00  0.00    +0.000 A 
ATOM     10  F   UNL     1      -5.811  11.569  17.164  0.00  0.00    +0.000 F 
ATOM     11  C   UNL     1      -4.957  12.183  19.314  0.00  0.00    +0.000 A 
ATOM     12  C   UNL     1      -3.561  12.305  19.242  0.00  0.00    +0.000 A 
ATOM     13  H   UNL     1      -7.702  12.265  20.922  0.00  0.00    +0.000 HD
ENDBRANCH   1   3
BRANCH   2  14
ATOM     14  C   UNL     1       0.697  13.946  19.665  0.00  0.00    +0.000 A 
ATOM     15  C   UNL     1       1.120  13.619  18.370  0.00  0.00    +0.000 A 
ATOM     16  C   UNL     1       2.468  13.728  18.060  0.00  0.00    +0.000 A 
ATOM     17  N   UNL     1       3.413  14.127  18.936  0.00  0.00    +0.000 NA
ATOM     18  C   UNL     1       2.988  14.428  20.186  0.00  0.00    +0.000 A 
ATOM     19  C   UNL     1       1.665  14.352  20.598  0.00  0.00    +0.000 A 
ATOM     20 CL   UNL     1       1.295  14.757  22.233  0.00  0.00    +0.000 Cl
ENDBRANCH   2  14
BRANCH   1  24
ATOM     21  C   UNL     1       0.882   9.043  20.733  0.00  0.00    +0.000 A 
ATOM     22  C   UNL     1       0.416   9.461  19.479  0.00  0.00    +0.000 A 
ATOM     23  C   UNL     1      -0.298  10.664  19.336  0.00  0.00    +0.000 A 
ATOM     24  C   UNL     1      -0.574  11.465  20.451  0.00  0.00    +0.000 A 
ATOM     25  C   UNL     1      -0.081  11.065  21.697  0.00  0.00    +0.000 A 
ATOM     26  C   UNL     1       0.629   9.864  21.838  0.00  0.00    +0.000 A 
BRANCH  21  28
ATOM     27  C   UNL     1       2.144   7.083  19.843  0.00  0.00    +0.000 C 
ATOM     28  C   UNL     1       1.537   7.726  20.855  0.00  0.00    +0.000 C 
BRANCH  27  30
ATOM     29  O   UNL     1       3.615   5.419  19.049  0.00  0.00    +0.000 OA
ATOM     30  C   UNL     1       2.868   5.798  19.939  0.00  0.00    +0.000 C 
BRANCH  30  31
ATOM     31  O   UNL     1       2.618   5.073  21.042  0.00  0.00    +0.000 OA
ATOM     32  H   UNL     1       3.402   4.847  21.568  0.00  0.00    +0.000 HD
ENDBRANCH  30  31
ENDBRANCH  27  30
ENDBRANCH  21  28
ENDBRANCH   1  24
BRANCH   2  33
ATOM     33  C   UNL     1      -1.517  15.208  19.985  0.00  0.00    +0.000 C 
ATOM     34  C   UNL     1      -1.586  16.070  21.282  0.00  0.00    +0.000 C 
ATOM     35  C   UNL     1      -1.537  17.317  20.378  0.00  0.00    +0.000 C 
ATOM     36  C   UNL     1      -0.839  16.439  19.323  0.00  0.00    +0.000 C 
ENDBRANCH   2  33
TORSDOF 7
ENDMDL
MODEL 9
REMARK VINA RESULT:      -6.4      1.231      1.773
REMARK  Name = 
REMARK  7 active torsions:
REMARK  status: ('A' for Active; 'I' for Inactive)
REMARK    1  A    between atoms: C_2  and  O_3
REMARK    2  A    between atoms: C_2  and  C_4
REMARK    3  A    between atoms: C_5  and  C_6
REMARK    4  A    between atoms: C_9  and  C_10
REMARK    5  A    between atoms: C_10  and  C_23
REMARK    6  A    between atoms: C_11  and  C_12
REMARK    7  A    between atoms: C_11  and  C_19
REMARK                            x       y       z     vdW  Elec       q    Type
REMARK                         _______ _______ _______ _____ _____    ______ ____
ROOT
ATOM      1  C   UNL     1      -1.148  12.678  20.798  0.00  0.00    +0.000 C 
ATOM      2  C   UNL     1      -0.607  13.848  20.351  0.00  0.00    +0.000 C 
ENDROOT
BRANCH   1   3
ATOM      3  C   UNL     1      -2.579  12.622  21.191  0.00  0.00    +0.000 A 
ATOM      4  C   UNL     1      -3.610  12.679  20.245  0.00  0.00    +0.000 A 
ATOM      5  C   UNL     1      -4.958  12.672  20.635  0.00  0.00    +0.000 A 
ATOM      6  C   UNL     1      -5.224  12.611  22.008  0.00  0.00    +0.000 A 
ATOM      7  N   UNL     1      -6.401  12.608  22.713  0.00  0.00    +0.000 N 
ATOM      8  N   UNL     1      -6.246  12.531  24.049  0.00  0.00    +0.000 NA
ATOM      9  C   UNL     1      -4.921  12.495  24.192  0.00  0.00    +0.000 A 
ATOM     10  F   UNL     1      -4.334  12.423  25.356  0.00  0.00    +0.000 F 
ATOM     11  C   UNL     1      -4.225  12.547  22.968  0.00  0.00    +0.000 A 
ATOM     12  C   UNL     1      -2.882  12.551  22.563  0.00  0.00    +0.000 A 
ATOM     13  H   UNL     1      -7.345  12.659  22.346  0.00  0.00    +0.000 HD
ENDBRANCH   1   3
BRANCH   2  14
ATOM     14  C   UNL     1       0.746  13.873  19.740  0.00  0.00    +0.000 A 
ATOM     15  C   UNL     1       0.903  13.492  18.401  0.00  0.00    +0.000 A 
ATOM     16  C   UNL     1       2.162  13.588  17.824  0.00  0.00    +0.000 A 
ATOM     17  N   UNL     1       3.260  14.021  18.476  0.00  0.00    +0.000 NA
ATOM     18  C   UNL     1       3.091  14.374  19.773  0.00  0.00    +0.000 A 
ATOM     19  C   UNL     1       1.877  14.316  20.443  0.00  0.00    +0.000 A 
ATOM     20 CL   UNL     1       1.838  14.789  22.102  0.00  0.00    +0.000 Cl
ENDBRANCH   2  14
BRANCH   1  24
ATOM     21  C   UNL     1       1.125   8.986  20.830  0.00  0.00    +0.000 A 
ATOM     22  C   UNL     1       0.485   9.429  19.665  0.00  0.00    +0.000 A 
ATOM     23  C   UNL     1      -0.239  10.635  19.648  0.00  0.00    +0.000 A 
ATOM     24  C   UNL     1      -0.350  11.413  20.807  0.00  0.00    +0.000 A 
ATOM     25  C   UNL     1       0.315  10.989  21.962  0.00  0.00    +0.000 A 
ATOM     26  C   UNL     1       1.035   9.786  21.976  0.00  0.00    +0.000 A 
BRANCH  21  28
ATOM     27  C   UNL     1       1.147   6.495  20.683  0.00  0.00    +0.000 C 
ATOM     28  C   UNL     1       1.787   7.668  20.831  0.00  0.00    +0.000 C 
BRANCH  27  30
ATOM     29  O   UNL     1       1.123   4.138  20.740  0.00  0.00    +0.000 OA
ATOM     30  C   UNL     1       1.779   5.161  20.612  0.00  0.00    +0.000 C 
BRANCH  30  31
ATOM     31  O   UNL     1       3.110   5.160  20.433  0.00  0.00    +0.000 OA
ATOM     32  H   UNL     1       3.630   5.023  21.242  0.00  0.00    +0.000 HD
ENDBRANCH  30  31
ENDBRANCH  27  30
ENDBRANCH  21  28
ENDBRANCH   1  24
BRANCH   2  33
ATOM     33  C   UNL     1      -1.356  15.155  20.475  0.00  0.00    +0.000 C 
ATOM     34  C   UNL     1      -1.253  15.980  21.792  0.00  0.00    +0.000 C 
ATOM     35  C   UNL     1      -1.305  17.251  20.923  0.00  0.00    +0.000 C 
ATOM     36  C   UNL     1      -0.754  16.399  19.766  0.00  0.00    +0.000 C 
ENDBRANCH   2  33
TORSDOF 7
ENDMDL
