MODEL 1
REMARK VINA RESULT:      -7.2      0.000      0.000
REMARK  Name = 
REMARK  6 active torsions:
REMARK  status: ('A' for Active; 'I' for Inactive)
REMARK    1  A    between atoms: CA_4  and  CB_5
REMARK    2  A    between atoms: CB_5  and  SG_6
REMARK    3  A    between atoms: N_9  and  C_10
REMARK    4  A    between atoms: C_10  and  C_11
REMARK    5  A    between atoms: CA_17  and  CB_18
REMARK    6  A    between atoms: CB_18  and  CG_19
REMARK                            x       y       z     vdW  Elec       q    Type
REMARK                         _______ _______ _______ _____ _____    ______ ____
ROOT
ATOM      1  O   PHE A   2       7.941   4.132  18.318  0.00  0.00    +0.000 OA
ATOM      2  C   PHE A   2       7.157   4.620  17.511  0.00  0.00    +0.000 C 
ATOM      3  N   CYS A   1       7.542   4.930  16.215  0.00  0.00    +0.000 N 
ATOM      4  CA  CYS A   1       6.588   5.398  15.193  0.00  0.00    +0.000 C 
ATOM      5  C   CYS A   1       5.466   6.275  15.812  0.00  0.00    +0.000 C 
ATOM      6  O   CYS A   1       4.676   6.902  15.113  0.00  0.00    +0.000 OA
ATOM      7  N   PHE A   2       5.396   6.221  17.212  0.00  0.00    +0.000 N 
ATOM      8  CA  PHE A   2       5.658   4.861  17.755  0.00  0.00    +0.000 C 
ATOM      9  H   CYS A   1       8.494   4.701  15.958  0.00  0.00    +0.000 HD
ENDROOT
BRANCH   4  10
ATOM     10  CB  CYS A   1       5.940   4.301  14.336  0.00  0.00    +0.000 C 
BRANCH  10  11
ATOM     11  SG  CYS A   1       6.819   4.038  12.762  0.00  0.00    +0.000 S 
ATOM     12  HG  CYS A   1       6.189   2.903  12.422  0.00  0.00    +0.000 HD
ENDBRANCH  10  11
ENDBRANCH   4  10
BRANCH   7  13
ATOM     13  C   UNK A   0       4.610   7.224  17.918  0.00  0.00    +0.000 C 
BRANCH  13  14
ATOM     14  C   UNK A   0       3.053   7.181  17.788  0.00  0.00    +0.000 C 
ATOM     15  C   UNK A   0       2.356   6.437  18.929  0.00  0.00    +0.000 C 
ATOM     16  C   UNK A   0       2.129   7.281  20.165  0.00  0.00    +0.000 C 
ATOM     17  C   UNK A   0       1.393   8.583  19.875  0.00  0.00    +0.000 C 
ATOM     18  C   UNK A   0       1.835   9.331  18.622  0.00  0.00    +0.000 C 
ATOM     19  C   UNK A   0       2.317   8.478  17.448  0.00  0.00    +0.000 C 
ENDBRANCH  13  14
ENDBRANCH   7  13
BRANCH   8  20
ATOM     20  CB  PHE A   2       5.115   4.446  19.133  0.00  0.00    +0.000 C 
BRANCH  20  21
ATOM     21  CG  PHE A   2       4.499   3.006  19.154  0.00  0.00    +0.000 C 
ATOM     22  CD1 PHE A   2       3.604   2.678  20.365  0.00  0.00    +0.000 C 
ATOM     23  CE1 PHE A   2       2.188   3.232  20.262  0.00  0.00    +0.000 C 
ATOM     24  CZ  PHE A   2       1.513   2.774  18.976  0.00  0.00    +0.000 C 
ATOM     25  CE2 PHE A   2       2.334   3.143  17.747  0.00  0.00    +0.000 C 
ATOM     26  CD2 PHE A   2       3.775   2.651  17.840  0.00  0.00    +0.000 C 
ENDBRANCH  20  21
ENDBRANCH   8  20
TORSDOF 6
ENDMDL
MODEL 2
REMARK VINA RESULT:      -6.4      2.750      5.334
REMARK  Name = 
REMARK  6 active torsions:
REMARK  status: ('A' for Active; 'I' for Inactive)
REMARK    1  A    between atoms: CA_4  and  CB_5
REMARK    2  A    between atoms: CB_5  and  SG_6
REMARK    3  A    between atoms: N_9  and  C_10
REMARK    4  A    between atoms: C_10  and  C_11
REMARK    5  A    between atoms: CA_17  and  CB_18
REMARK    6  A    between atoms: CB_18  and  CG_19
REMARK                            x       y       z     vdW  Elec       q    Type
REMARK                         _______ _______ _______ _____ _____    ______ ____
ROOT
ATOM      1  O   PHE A   2       5.539   5.132  19.997  0.00  0.00    +0.000 OA
ATOM      2  C   PHE A   2       4.562   5.403  19.307  0.00  0.00    +0.000 C 
ATOM      3  N   CYS A   1       3.643   6.370  19.690  0.00  0.00    +0.000 N 
ATOM      4  CA  CYS A   1       2.535   6.801  18.820  0.00  0.00    +0.000 C 
ATOM      5  C   CYS A   1       1.990   5.629  17.958  0.00  0.00    +0.000 C 
ATOM      6  O   CYS A   1       0.961   5.736  17.300  0.00  0.00    +0.000 OA
ATOM      7  N   PHE A   2       2.810   4.492  17.945  0.00  0.00    +0.000 N 
ATOM      8  CA  PHE A   2       4.261   4.822  17.916  0.00  0.00    +0.000 C 
ATOM      9  H   CYS A   1       3.839   6.865  20.552  0.00  0.00    +0.000 HD
ENDROOT
BRANCH   4  10
ATOM     10  CB  CYS A   1       2.835   7.992  17.899  0.00  0.00    +0.000 C 
BRANCH  10  11
ATOM     11  SG  CYS A   1       1.581   9.307  18.029  0.00  0.00    +0.000 S 
ATOM     12  HG  CYS A   1       0.908   8.776  19.060  0.00  0.00    +0.000 HD
ENDBRANCH  10  11
ENDBRANCH   4  10
BRANCH   7  13
ATOM     13  C   UNK A   0       2.268   3.236  17.443  0.00  0.00    +0.000 C 
BRANCH  13  14
ATOM     14  C   UNK A   0       1.799   2.160  18.474  0.00  0.00    +0.000 C 
ATOM     15  C   UNK A   0       2.944   1.505  19.250  0.00  0.00    +0.000 C 
ATOM     16  C   UNK A   0       3.411   2.304  20.447  0.00  0.00    +0.000 C 
ATOM     17  C   UNK A   0       2.283   2.666  21.404  0.00  0.00    +0.000 C 
ATOM     18  C   UNK A   0       0.982   3.126  20.755  0.00  0.00    +0.000 C 
ATOM     19  C   UNK A   0       0.633   2.504  19.402  0.00  0.00    +0.000 C 
ENDBRANCH  13  14
ENDBRANCH   7  13
BRANCH   8  20
ATOM     20  CB  PHE A   2       5.285   3.818  17.359  0.00  0.00    +0.000 C 
BRANCH  20  21
ATOM     21  CG  PHE A   2       6.418   4.488  16.512  0.00  0.00    +0.000 C 
ATOM     22  CD1 PHE A   2       6.054   5.832  15.849  0.00  0.00    +0.000 C 
ATOM     23  CE1 PHE A   2       6.114   7.028  16.791  0.00  0.00    +0.000 C 
ATOM     24  CZ  PHE A   2       7.478   7.130  17.460  0.00  0.00    +0.000 C 
ATOM     25  CE2 PHE A   2       7.846   5.843  18.188  0.00  0.00    +0.000 C 
ATOM     26  CD2 PHE A   2       7.744   4.616  17.288  0.00  0.00    +0.000 C 
ENDBRANCH  20  21
ENDBRANCH   8  20
TORSDOF 6
ENDMDL
MODEL 3
REMARK VINA RESULT:      -6.4      0.892      1.193
REMARK  Name = 
REMARK  6 active torsions:
REMARK  status: ('A' for Active; 'I' for Inactive)
REMARK    1  A    between atoms: CA_4  and  CB_5
REMARK    2  A    between atoms: CB_5  and  SG_6
REMARK    3  A    between atoms: N_9  and  C_10
REMARK    4  A    between atoms: C_10  and  C_11
REMARK    5  A    between atoms: CA_17  and  CB_18
REMARK    6  A    between atoms: CB_18  and  CG_19
REMARK                            x       y       z     vdW  Elec       q    Type
REMARK                         _______ _______ _______ _____ _____    ______ ____
ROOT
ATOM      1  O   PHE A   2       6.820   4.050  19.102  0.00  0.00    +0.000 OA
ATOM      2  C   PHE A   2       6.309   4.611  18.140  0.00  0.00    +0.000 C 
ATOM      3  N   CYS A   1       7.011   4.826  16.962  0.00  0.00    +0.000 N 
ATOM      4  CA  CYS A   1       6.381   5.383  15.752  0.00  0.00    +0.000 C 
ATOM      5  C   CYS A   1       5.279   6.420  16.101  0.00  0.00    +0.000 C 
ATOM      6  O   CYS A   1       4.758   7.123  15.242  0.00  0.00    +0.000 OA
ATOM      7  N   PHE A   2       4.893   6.421  17.449  0.00  0.00    +0.000 N 
ATOM      8  CA  PHE A   2       4.840   5.056  18.039  0.00  0.00    +0.000 C 
ATOM      9  H   CYS A   1       7.957   4.465  16.927  0.00  0.00    +0.000 HD
ENDROOT
BRANCH   4  10
ATOM     10  CB  CYS A   1       5.797   4.355  14.772  0.00  0.00    +0.000 C 
BRANCH  10  11
ATOM     11  SG  CYS A   1       6.772   4.223  13.239  0.00  0.00    +0.000 S 
ATOM     12  HG  CYS A   1       7.094   5.522  13.149  0.00  0.00    +0.000 HD
ENDBRANCH  10  11
ENDBRANCH   4  10
BRANCH   7  13
ATOM     13  C   UNK A   0       4.113   7.541  17.960  0.00  0.00    +0.000 C 
BRANCH  13  14
ATOM     14  C   UNK A   0       2.560   7.392  18.046  0.00  0.00    +0.000 C 
ATOM     15  C   UNK A   0       2.055   6.951  19.422  0.00  0.00    +0.000 C 
ATOM     16  C   UNK A   0       1.901   8.085  20.412  0.00  0.00    +0.000 C 
ATOM     17  C   UNK A   0       1.037   9.226  19.888  0.00  0.00    +0.000 C 
ATOM     18  C   UNK A   0       1.276   9.628  18.437  0.00  0.00    +0.000 C 
ATOM     19  C   UNK A   0       1.691   8.513  17.476  0.00  0.00    +0.000 C 
ENDBRANCH  13  14
ENDBRANCH   7  13
BRANCH   8  20
ATOM     20  CB  PHE A   2       3.952   4.760  19.261  0.00  0.00    +0.000 C 
BRANCH  20  21
ATOM     21  CG  PHE A   2       3.302   3.337  19.229  0.00  0.00    +0.000 C 
ATOM     22  CD1 PHE A   2       3.575   2.449  20.460  0.00  0.00    +0.000 C 
ATOM     23  CE1 PHE A   2       2.702   2.771  21.667  0.00  0.00    +0.000 C 
ATOM     24  CZ  PHE A   2       1.224   2.719  21.304  0.00  0.00    +0.000 C 
ATOM     25  CE2 PHE A   2       0.898   3.639  20.135  0.00  0.00    +0.000 C 
ATOM     26  CD2 PHE A   2       1.791   3.381  18.925  0.00  0.00    +0.000 C 
ENDBRANCH  20  21
ENDBRANCH   8  20
TORSDOF 6
ENDMDL
MODEL 4
REMARK VINA RESULT:      -6.2      2.189      5.247
REMARK  Name = 
REMARK  6 active torsions:
REMARK  status: ('A' for Active; 'I' for Inactive)
REMARK    1  A    between atoms: CA_4  and  CB_5
REMARK    2  A    between atoms: CB_5  and  SG_6
REMARK    3  A    between atoms: N_9  and  C_10
REMARK    4  A    between atoms: C_10  and  C_11
REMARK    5  A    between atoms: CA_17  and  CB_18
REMARK    6  A    between atoms: CB_18  and  CG_19
REMARK                            x       y       z     vdW  Elec       q    Type
REMARK                         _______ _______ _______ _____ _____    ______ ____
ROOT
ATOM      1  O   PHE A   2       4.283   7.627  16.152  0.00  0.00    +0.000 OA
ATOM      2  C   PHE A   2       4.390   6.676  16.918  0.00  0.00    +0.000 C 
ATOM      3  N   CYS A   1       5.548   5.915  16.980  0.00  0.00    +0.000 N 
ATOM      4  CA  CYS A   1       5.745   4.849  17.980  0.00  0.00    +0.000 C 
ATOM      5  C   CYS A   1       4.416   4.117  18.311  0.00  0.00    +0.000 C 
ATOM      6  O   CYS A   1       4.394   3.092  18.984  0.00  0.00    +0.000 OA
ATOM      7  N   PHE A   2       3.266   4.769  17.844  0.00  0.00    +0.000 N 
ATOM      8  CA  PHE A   2       3.347   6.250  17.965  0.00  0.00    +0.000 C 
ATOM      9  H   CYS A   1       6.314   6.206  16.386  0.00  0.00    +0.000 HD
ENDROOT
BRANCH   4  10
ATOM     10  CB  CYS A   1       6.411   5.284  19.294  0.00  0.00    +0.000 C 
BRANCH  10  11
ATOM     11  SG  CYS A   1       7.992   6.146  19.021  0.00  0.00    +0.000 S 
ATOM     12  HG  CYS A   1       7.521   7.066  18.166  0.00  0.00    +0.000 HD
ENDBRANCH  10  11
ENDBRANCH   4  10
BRANCH   7  13
ATOM     13  C   UNK A   0       2.005   4.040  17.813  0.00  0.00    +0.000 C 
BRANCH  13  14
ATOM     14  C   UNK A   0       1.110   4.040  19.095  0.00  0.00    +0.000 C 
ATOM     15  C   UNK A   0       0.701   2.643  19.565  0.00  0.00    +0.000 C 
ATOM     16  C   UNK A   0       1.744   1.950  20.415  0.00  0.00    +0.000 C 
ATOM     17  C   UNK A   0       2.195   2.783  21.609  0.00  0.00    +0.000 C 
ATOM     18  C   UNK A   0       2.425   4.265  21.336  0.00  0.00    +0.000 C 
ATOM     19  C   UNK A   0       1.535   4.914  20.276  0.00  0.00    +0.000 C 
ENDBRANCH  13  14
ENDBRANCH   7  13
BRANCH   8  20
ATOM     20  CB  PHE A   2       2.070   7.104  18.044  0.00  0.00    +0.000 C 
BRANCH  20  21
ATOM     21  CG  PHE A   2       2.293   8.498  18.721  0.00  0.00    +0.000 C 
ATOM     22  CD1 PHE A   2       1.727   9.712  17.956  0.00  0.00    +0.000 C 
ATOM     23  CE1 PHE A   2       0.228   9.917  18.133  0.00  0.00    +0.000 C 
ATOM     24  CZ  PHE A   2      -0.142  10.012  19.606  0.00  0.00    +0.000 C 
ATOM     25  CE2 PHE A   2       0.338   8.795  20.387  0.00  0.00    +0.000 C 
ATOM     26  CD2 PHE A   2       1.827   8.527  20.190  0.00  0.00    +0.000 C 
ENDBRANCH  20  21
ENDBRANCH   8  20
TORSDOF 6
ENDMDL
MODEL 5
REMARK VINA RESULT:      -6.1      2.579      5.210
REMARK  Name = 
REMARK  6 active torsions:
REMARK  status: ('A' for Active; 'I' for Inactive)
REMARK    1  A    between atoms: CA_4  and  CB_5
REMARK    2  A    between atoms: CB_5  and  SG_6
REMARK    3  A    between atoms: N_9  and  C_10
REMARK    4  A    between atoms: C_10  and  C_11
REMARK    5  A    between atoms: CA_17  and  CB_18
REMARK    6  A    between atoms: CB_18  and  CG_19
REMARK                            x       y       z     vdW  Elec       q    Type
REMARK                         _______ _______ _______ _____ _____    ______ ____
ROOT
ATOM      1  O   PHE A   2       8.260   3.930  16.994  0.00  0.00    +0.000 OA
ATOM      2  C   PHE A   2       7.318   4.700  17.145  0.00  0.00    +0.000 C 
ATOM      3  N   CYS A   1       7.342   5.703  18.104  0.00  0.00    +0.000 N 
ATOM      4  CA  CYS A   1       6.278   6.718  18.218  0.00  0.00    +0.000 C 
ATOM      5  C   CYS A   1       4.885   6.134  17.860  0.00  0.00    +0.000 C 
ATOM      6  O   CYS A   1       3.851   6.763  18.058  0.00  0.00    +0.000 OA
ATOM      7  N   PHE A   2       4.928   4.881  17.232  0.00  0.00    +0.000 N 
ATOM      8  CA  PHE A   2       6.055   4.751  16.269  0.00  0.00    +0.000 C 
ATOM      9  H   CYS A   1       8.191   5.789  18.649  0.00  0.00    +0.000 HD
ENDROOT
BRANCH   4  10
ATOM     10  CB  CYS A   1       6.497   8.005  17.410  0.00  0.00    +0.000 C 
BRANCH  10  11
ATOM     11  SG  CYS A   1       8.053   8.845  17.844  0.00  0.00    +0.000 S 
ATOM     12  HG  CYS A   1       8.746   7.737  18.148  0.00  0.00    +0.000 HD
ENDBRANCH  10  11
ENDBRANCH   4  10
BRANCH   7  13
ATOM     13  C   UNK A   0       3.703   4.098  17.134  0.00  0.00    +0.000 C 
BRANCH  13  14
ATOM     14  C   UNK A   0       3.437   2.991  18.205  0.00  0.00    +0.000 C 
ATOM     15  C   UNK A   0       3.592   3.475  19.648  0.00  0.00    +0.000 C 
ATOM     16  C   UNK A   0       2.364   4.164  20.201  0.00  0.00    +0.000 C 
ATOM     17  C   UNK A   0       1.098   3.326  20.074  0.00  0.00    +0.000 C 
ATOM     18  C   UNK A   0       0.918   2.591  18.751  0.00  0.00    +0.000 C 
ATOM     19  C   UNK A   0       2.192   2.116  18.051  0.00  0.00    +0.000 C 
ENDBRANCH  13  14
ENDBRANCH   7  13
BRANCH   8  20
ATOM     20  CB  PHE A   2       5.988   3.743  15.109  0.00  0.00    +0.000 C 
BRANCH  20  21
ATOM     21  CG  PHE A   2       5.750   4.412  13.714  0.00  0.00    +0.000 C 
ATOM     22  CD1 PHE A   2       7.015   4.908  12.985  0.00  0.00    +0.000 C 
ATOM     23  CE1 PHE A   2       7.795   3.809  12.273  0.00  0.00    +0.000 C 
ATOM     24  CZ  PHE A   2       6.903   3.042  11.307  0.00  0.00    +0.000 C 
ATOM     25  CE2 PHE A   2       5.674   2.473  12.005  0.00  0.00    +0.000 C 
ATOM     26  CD2 PHE A   2       4.897   3.538  12.774  0.00  0.00    +0.000 C 
ENDBRANCH  20  21
ENDBRANCH   8  20
TORSDOF 6
ENDMDL
MODEL 6
REMARK VINA RESULT:      -6.0      2.615      5.436
REMARK  Name = 
REMARK  6 active torsions:
REMARK  status: ('A' for Active; 'I' for Inactive)
REMARK    1  A    between atoms: CA_4  and  CB_5
REMARK    2  A    between atoms: CB_5  and  SG_6
REMARK    3  A    between atoms: N_9  and  C_10
REMARK    4  A    between atoms: C_10  and  C_11
REMARK    5  A    between atoms: CA_17  and  CB_18
REMARK    6  A    between atoms: CB_18  and  CG_19
REMARK                            x       y       z     vdW  Elec       q    Type
REMARK                         _______ _______ _______ _____ _____    ______ ____
ROOT
ATOM      1  O   PHE A   2       2.520   6.066  17.633  0.00  0.00    +0.000 OA
ATOM      2  C   PHE A   2       3.668   5.639  17.610  0.00  0.00    +0.000 C 
ATOM      3  N   CYS A   1       4.750   6.430  17.970  0.00  0.00    +0.000 N 
ATOM      4  CA  CYS A   1       6.122   5.902  18.071  0.00  0.00    +0.000 C 
ATOM      5  C   CYS A   1       6.393   4.797  17.013  0.00  0.00    +0.000 C 
ATOM      6  O   CYS A   1       7.520   4.354  16.817  0.00  0.00    +0.000 OA
ATOM      7  N   PHE A   2       5.242   4.312  16.377  0.00  0.00    +0.000 N 
ATOM      8  CA  PHE A   2       4.077   4.190  17.295  0.00  0.00    +0.000 C 
ATOM      9  H   CYS A   1       4.538   7.369  18.286  0.00  0.00    +0.000 HD
ENDROOT
BRANCH   4  10
ATOM     10  CB  CYS A   1       6.532   5.374  19.453  0.00  0.00    +0.000 C 
BRANCH  10  11
ATOM     11  SG  CYS A   1       8.268   5.750  19.855  0.00  0.00    +0.000 S 
ATOM     12  HG  CYS A   1       8.815   5.045  18.853  0.00  0.00    +0.000 HD
ENDBRANCH  10  11
ENDBRANCH   4  10
BRANCH   7  13
ATOM     13  C   UNK A   0       5.387   3.517  15.164  0.00  0.00    +0.000 C 
BRANCH  13  14
ATOM     14  C   UNK A   0       5.358   4.249  13.784  0.00  0.00    +0.000 C 
ATOM     15  C   UNK A   0       6.709   4.830  13.362  0.00  0.00    +0.000 C 
ATOM     16  C   UNK A   0       7.630   3.829  12.699  0.00  0.00    +0.000 C 
ATOM     17  C   UNK A   0       6.987   3.114  11.517  0.00  0.00    +0.000 C 
ATOM     18  C   UNK A   0       5.541   2.671  11.715  0.00  0.00    +0.000 C 
ATOM     19  C   UNK A   0       4.669   3.554  12.609  0.00  0.00    +0.000 C 
ENDBRANCH  13  14
ENDBRANCH   7  13
BRANCH   8  20
ATOM     20  CB  PHE A   2       2.933   3.209  16.989  0.00  0.00    +0.000 C 
BRANCH  20  21
ATOM     21  CG  PHE A   2       2.690   2.159  18.124  0.00  0.00    +0.000 C 
ATOM     22  CD1 PHE A   2       3.672   2.218  19.312  0.00  0.00    +0.000 C 
ATOM     23  CE1 PHE A   2       3.361   3.314  20.323  0.00  0.00    +0.000 C 
ATOM     24  CZ  PHE A   2       1.932   3.200  20.834  0.00  0.00    +0.000 C 
ATOM     25  CE2 PHE A   2       0.923   3.210  19.692  0.00  0.00    +0.000 C 
ATOM     26  CD2 PHE A   2       1.234   2.159  18.632  0.00  0.00    +0.000 C 
ENDBRANCH  20  21
ENDBRANCH   8  20
TORSDOF 6
ENDMDL
MODEL 7
REMARK VINA RESULT:      -6.0      2.459      5.457
REMARK  Name = 
REMARK  6 active torsions:
REMARK  status: ('A' for Active; 'I' for Inactive)
REMARK    1  A    between atoms: CA_4  and  CB_5
REMARK    2  A    between atoms: CB_5  and  SG_6
REMARK    3  A    between atoms: N_9  and  C_10
REMARK    4  A    between atoms: C_10  and  C_11
REMARK    5  A    between atoms: CA_17  and  CB_18
REMARK    6  A    between atoms: CB_18  and  CG_19
REMARK                            x       y       z     vdW  Elec       q    Type
REMARK                         _______ _______ _______ _____ _____    ______ ____
ROOT
ATOM      1  O   PHE A   2       3.438   6.984  17.140  0.00  0.00    +0.000 OA
ATOM      2  C   PHE A   2       4.526   6.442  16.982  0.00  0.00    +0.000 C 
ATOM      3  N   CYS A   1       5.707   7.170  16.947  0.00  0.00    +0.000 N 
ATOM      4  CA  CYS A   1       7.033   6.530  16.886  0.00  0.00    +0.000 C 
ATOM      5  C   CYS A   1       7.002   5.219  16.054  0.00  0.00    +0.000 C 
ATOM      6  O   CYS A   1       8.031   4.631  15.738  0.00  0.00    +0.000 OA
ATOM      7  N   PHE A   2       5.713   4.744  15.772  0.00  0.00    +0.000 N 
ATOM      8  CA  PHE A   2       4.767   4.925  16.906  0.00  0.00    +0.000 C 
ATOM      9  H   CYS A   1       5.627   8.169  17.094  0.00  0.00    +0.000 HD
ENDROOT
BRANCH   4  10
ATOM     10  CB  CYS A   1       7.695   6.239  18.241  0.00  0.00    +0.000 C 
BRANCH  10  11
ATOM     11  SG  CYS A   1       6.569   5.399  19.400  0.00  0.00    +0.000 S 
ATOM     12  HG  CYS A   1       5.459   6.064  19.045  0.00  0.00    +0.000 HD
ENDBRANCH  10  11
ENDBRANCH   4  10
BRANCH   7  13
ATOM     13  C   UNK A   0       5.547   3.719  14.750  0.00  0.00    +0.000 C 
BRANCH  13  14
ATOM     14  C   UNK A   0       5.458   4.163  13.255  0.00  0.00    +0.000 C 
ATOM     15  C   UNK A   0       6.815   4.477  12.620  0.00  0.00    +0.000 C 
ATOM     16  C   UNK A   0       7.553   3.259  12.111  0.00  0.00    +0.000 C 
ATOM     17  C   UNK A   0       6.723   2.411  11.155  0.00  0.00    +0.000 C 
ATOM     18  C   UNK A   0       5.265   2.199  11.549  0.00  0.00    +0.000 C 
ATOM     19  C   UNK A   0       4.586   3.342  12.304  0.00  0.00    +0.000 C 
ENDBRANCH  13  14
ENDBRANCH   7  13
BRANCH   8  20
ATOM     20  CB  PHE A   2       3.524   4.028  17.044  0.00  0.00    +0.000 C 
BRANCH  20  21
ATOM     21  CG  PHE A   2       3.445   3.278  18.416  0.00  0.00    +0.000 C 
ATOM     22  CD1 PHE A   2       3.208   4.167  19.653  0.00  0.00    +0.000 C 
ATOM     23  CE1 PHE A   2       1.757   4.586  19.851  0.00  0.00    +0.000 C 
ATOM     24  CZ  PHE A   2       0.838   3.372  19.898  0.00  0.00    +0.000 C 
ATOM     25  CE2 PHE A   2       0.990   2.503  18.656  0.00  0.00    +0.000 C 
ATOM     26  CD2 PHE A   2       2.441   2.109  18.396  0.00  0.00    +0.000 C 
ENDBRANCH  20  21
ENDBRANCH   8  20
TORSDOF 6
ENDMDL
MODEL 8
REMARK VINA RESULT:      -6.0      2.541      5.603
REMARK  Name = 
REMARK  6 active torsions:
REMARK  status: ('A' for Active; 'I' for Inactive)
REMARK    1  A    between atoms: CA_4  and  CB_5
REMARK    2  A    between atoms: CB_5  and  SG_6
REMARK    3  A    between atoms: N_9  and  C_10
REMARK    4  A    between atoms: C_10  and  C_11
REMARK    5  A    between atoms: CA_17  and  CB_18
REMARK    6  A    between atoms: CB_18  and  CG_19
REMARK                            x       y       z     vdW  Elec       q    Type
REMARK                         _______ _______ _______ _____ _____    ______ ____
ROOT
ATOM      1  O   PHE A   2       6.883   4.893  17.831  0.00  0.00    +0.000 OA
ATOM      2  C   PHE A   2       5.686   5.141  17.739  0.00  0.00    +0.000 C 
ATOM      3  N   CYS A   1       5.034   5.947  18.662  0.00  0.00    +0.000 N 
ATOM      4  CA  CYS A   1       3.629   6.361  18.502  0.00  0.00    +0.000 C 
ATOM      5  C   CYS A   1       2.776   5.254  17.824  0.00  0.00    +0.000 C 
ATOM      6  O   CYS A   1       1.553   5.330  17.758  0.00  0.00    +0.000 OA
ATOM      7  N   PHE A   2       3.526   4.223  17.241  0.00  0.00    +0.000 N 
ATOM      8  CA  PHE A   2       4.769   4.708  16.583  0.00  0.00    +0.000 C 
ATOM      9  H   CYS A   1       5.605   6.349  19.395  0.00  0.00    +0.000 HD
ENDROOT
BRANCH   4  10
ATOM     10  CB  CYS A   1       3.404   7.683  17.754  0.00  0.00    +0.000 C 
BRANCH  10  11
ATOM     11  SG  CYS A   1       2.025   8.650  18.447  0.00  0.00    +0.000 S 
ATOM     12  HG  CYS A   1       1.162   8.427  17.444  0.00  0.00    +0.000 HD
ENDBRANCH  10  11
ENDBRANCH   4  10
BRANCH   7  13
ATOM     13  C   UNK A   0       2.852   2.988  16.860  0.00  0.00    +0.000 C 
BRANCH  13  14
ATOM     14  C   UNK A   0       2.597   1.907  17.959  0.00  0.00    +0.000 C 
ATOM     15  C   UNK A   0       3.820   1.606  18.828  0.00  0.00    +0.000 C 
ATOM     16  C   UNK A   0       4.016   2.578  19.971  0.00  0.00    +0.000 C 
ATOM     17  C   UNK A   0       2.782   2.723  20.853  0.00  0.00    +0.000 C 
ATOM     18  C   UNK A   0       1.447   2.807  20.120  0.00  0.00    +0.000 C 
ATOM     19  C   UNK A   0       1.333   2.023  18.812  0.00  0.00    +0.000 C 
ENDBRANCH  13  14
ENDBRANCH   7  13
BRANCH   8  20
ATOM     20  CB  PHE A   2       5.429   3.899  15.454  0.00  0.00    +0.000 C 
BRANCH  20  21
ATOM     21  CG  PHE A   2       5.434   4.640  14.075  0.00  0.00    +0.000 C 
ATOM     22  CD1 PHE A   2       6.790   5.231  13.637  0.00  0.00    +0.000 C 
ATOM     23  CE1 PHE A   2       7.751   4.212  13.041  0.00  0.00    +0.000 C 
ATOM     24  CZ  PHE A   2       7.109   3.467  11.879  0.00  0.00    +0.000 C 
ATOM     25  CE2 PHE A   2       5.799   2.806  12.289  0.00  0.00    +0.000 C 
ATOM     26  CD2 PHE A   2       4.830   3.788  12.940  0.00  0.00    +0.000 C 
ENDBRANCH  20  21
ENDBRANCH   8  20
TORSDOF 6
ENDMDL
MODEL 9
REMARK VINA RESULT:      -5.9      2.903      4.920
REMARK  Name = 
REMARK  6 active torsions:
REMARK  status: ('A' for Active; 'I' for Inactive)
REMARK    1  A    between atoms: CA_4  and  CB_5
REMARK    2  A    between atoms: CB_5  and  SG_6
REMARK    3  A    between atoms: N_9  and  C_10
REMARK    4  A    between atoms: C_10  and  C_11
REMARK    5  A    between atoms: CA_17  and  CB_18
REMARK    6  A    between atoms: CB_18  and  CG_19
REMARK                            x       y       z     vdW  Elec       q    Type
REMARK                         _______ _______ _______ _____ _____    ______ ____
ROOT
ATOM      1  O   PHE A   2       4.274   3.250  16.361  0.00  0.00    +0.000 OA
ATOM      2  C   PHE A   2       3.676   3.573  17.381  0.00  0.00    +0.000 C 
ATOM      3  N   CYS A   1       2.941   2.655  18.119  0.00  0.00    +0.000 N 
ATOM      4  CA  CYS A   1       2.320   2.991  19.412  0.00  0.00    +0.000 C 
ATOM      5  C   CYS A   1       1.828   4.464  19.450  0.00  0.00    +0.000 C 
ATOM      6  O   CYS A   1       1.132   4.889  20.366  0.00  0.00    +0.000 OA
ATOM      7  N   PHE A   2       2.310   5.261  18.401  0.00  0.00    +0.000 N 
ATOM      8  CA  PHE A   2       3.722   4.960  18.044  0.00  0.00    +0.000 C 
ATOM      9  H   CYS A   1       2.953   1.697  17.790  0.00  0.00    +0.000 HD
ENDROOT
BRANCH   4  10
ATOM     10  CB  CYS A   1       3.184   2.728  20.654  0.00  0.00    +0.000 C 
BRANCH  10  11
ATOM     11  SG  CYS A   1       4.707   1.808  20.261  0.00  0.00    +0.000 S 
ATOM     12  HG  CYS A   1       5.441   2.284  21.278  0.00  0.00    +0.000 HD
ENDBRANCH  10  11
ENDBRANCH   4  10
BRANCH   7  13
ATOM     13  C   UNK A   0       1.681   6.550  18.148  0.00  0.00    +0.000 C 
BRANCH  13  14
ATOM     14  C   UNK A   0       2.248   7.813  18.874  0.00  0.00    +0.000 C 
ATOM     15  C   UNK A   0       2.162   9.095  18.044  0.00  0.00    +0.000 C 
ATOM     16  C   UNK A   0       0.816   9.784  18.112  0.00  0.00    +0.000 C 
ATOM     17  C   UNK A   0       0.358  10.063  19.538  0.00  0.00    +0.000 C 
ATOM     18  C   UNK A   0       0.591   8.941  20.543  0.00  0.00    +0.000 C 
ATOM     19  C   UNK A   0       1.827   8.068  20.322  0.00  0.00    +0.000 C 
ENDBRANCH  13  14
ENDBRANCH   7  13
BRANCH   8  20
ATOM     20  CB  PHE A   2       4.602   6.017  17.354  0.00  0.00    +0.000 C 
BRANCH  20  21
ATOM     21  CG  PHE A   2       6.071   5.540  17.104  0.00  0.00    +0.000 C 
ATOM     22  CD1 PHE A   2       7.043   6.613  16.574  0.00  0.00    +0.000 C 
ATOM     23  CE1 PHE A   2       7.580   7.552  17.648  0.00  0.00    +0.000 C 
ATOM     24  CZ  PHE A   2       8.232   6.772  18.781  0.00  0.00    +0.000 C 
ATOM     25  CE2 PHE A   2       7.279   5.747  19.381  0.00  0.00    +0.000 C 
ATOM     26  CD2 PHE A   2       6.679   4.822  18.326  0.00  0.00    +0.000 C 
ENDBRANCH  20  21
ENDBRANCH   8  20
TORSDOF 6
ENDMDL
