MODEL 1
REMARK VINA RESULT:      -7.7      0.000      0.000
REMARK  Name = 
REMARK  7 active torsions:
REMARK  status: ('A' for Active; 'I' for Inactive)
REMARK    1  A    between atoms: C_1  and  C_2
REMARK    2  A    between atoms: C_4  and  C_5
REMARK    3  A    between atoms: N_6  and  O_7
REMARK    4  A    between atoms: O_7  and  C_8
REMARK    5  A    between atoms: C_8  and  C_9
REMARK    6  A    between atoms: C_16  and  C_17
REMARK    7  A    between atoms: N_18  and  C_19
REMARK                            x       y       z     vdW  Elec       q    Type
REMARK                         _______ _______ _______ _____ _____    ______ ____
ROOT
ATOM      1  C   UNL     1       2.218   7.702  18.166  0.00  0.00    +0.000 C 
ATOM      2  C   UNL     1       3.422   6.883  17.841  0.00  0.00    +0.000 A 
ATOM      3  C   UNL     1       4.456   7.291  17.031  0.00  0.00    +0.000 A 
ATOM      4  C   UNL     1       5.514   6.360  17.120  0.00  0.00    +0.000 A 
ATOM      5  C   UNL     1       5.044   5.313  17.917  0.00  0.00    +0.000 A 
ATOM      6  C   UNL     1       5.732   4.014  18.198  0.00  0.00    +0.000 C 
ATOM      7  N   UNL     1       3.754   5.638  18.380  0.00  0.00    +0.000 N 
ENDROOT
BRANCH   7   8
ATOM      8  C   UNL     1       2.913   4.843  19.237  0.00  0.00    +0.000 A 
ATOM      9  C   UNL     1       3.033   4.901  20.633  0.00  0.00    +0.000 A 
ATOM     10  C   UNL     1       2.216   4.111  21.452  0.00  0.00    +0.000 A 
ATOM     11  C   UNL     1       1.259   3.285  20.880  0.00  0.00    +0.000 A 
ATOM     12  F   UNL     1       0.470   2.540  21.665  0.00  0.00    +0.000 F 
ATOM     13  C   UNL     1       1.110   3.224  19.503  0.00  0.00    +0.000 A 
ATOM     14  C   UNL     1       1.946   3.989  18.683  0.00  0.00    +0.000 A 
ENDBRANCH   7   8
BRANCH   4  15
ATOM     15  C   UNL     1       6.819   6.425  16.468  0.00  0.00    +0.000 C 
ATOM     16  N   UNL     1       7.776   7.273  16.725  0.00  0.00    +0.000 NA
BRANCH  16  17
ATOM     17  O   UNL     1       7.457   8.117  17.796  0.00  0.00    +0.000 OA
BRANCH  17  18
ATOM     18  C   UNL     1       8.591   8.324  18.635  0.00  0.00    +0.000 C 
BRANCH  18  19
ATOM     19  C   UNL     1       8.855   9.810  18.751  0.00  0.00    +0.000 A 
ATOM     20  C   UNL     1       8.497  10.700  17.723  0.00  0.00    +0.000 A 
ATOM     21  C   UNL     1       8.737  12.073  17.843  0.00  0.00    +0.000 A 
ATOM     22  C   UNL     1       9.324  12.576  18.998  0.00  0.00    +0.000 A 
ATOM     23  C   UNL     1       9.665  11.702  20.026  0.00  0.00    +0.000 A 
ATOM     24  F   UNL     1      10.220  12.192  21.143  0.00  0.00    +0.000 F 
ATOM     25  C   UNL     1       9.430  10.334  19.914  0.00  0.00    +0.000 A 
ENDBRANCH  18  19
ENDBRANCH  17  18
ENDBRANCH  16  17
ENDBRANCH   4  15
TORSDOF 5
ENDMDL
MODEL 2
REMARK VINA RESULT:      -7.6      0.930      1.338
REMARK  Name = 
REMARK  7 active torsions:
REMARK  status: ('A' for Active; 'I' for Inactive)
REMARK    1  A    between atoms: C_1  and  C_2
REMARK    2  A    between atoms: C_4  and  C_5
REMARK    3  A    between atoms: N_6  and  O_7
REMARK    4  A    between atoms: O_7  and  C_8
REMARK    5  A    between atoms: C_8  and  C_9
REMARK    6  A    between atoms: C_16  and  C_17
REMARK    7  A    between atoms: N_18  and  C_19
REMARK                            x       y       z     vdW  Elec       q    Type
REMARK                         _______ _______ _______ _____ _____    ______ ____
ROOT
ATOM      1  C   UNL     1       2.320   7.773  18.027  0.00  0.00    +0.000 C 
ATOM      2  C   UNL     1       3.529   6.947  17.738  0.00  0.00    +0.000 A 
ATOM      3  C   UNL     1       4.590   7.351  16.960  0.00  0.00    +0.000 A 
ATOM      4  C   UNL     1       5.638   6.414  17.081  0.00  0.00    +0.000 A 
ATOM      5  C   UNL     1       5.139   5.369  17.862  0.00  0.00    +0.000 A 
ATOM      6  C   UNL     1       5.811   4.065  18.163  0.00  0.00    +0.000 C 
ATOM      7  N   UNL     1       3.837   5.700  18.285  0.00  0.00    +0.000 N 
ENDROOT
BRANCH   7   8
ATOM      8  C   UNL     1       2.966   4.910  19.115  0.00  0.00    +0.000 A 
ATOM      9  C   UNL     1       3.030   4.979  20.515  0.00  0.00    +0.000 A 
ATOM     10  C   UNL     1       2.184   4.193  21.307  0.00  0.00    +0.000 A 
ATOM     11  C   UNL     1       1.253   3.359  20.704  0.00  0.00    +0.000 A 
ATOM     12  F   UNL     1       0.437   2.617  21.464  0.00  0.00    +0.000 F 
ATOM     13  C   UNL     1       1.159   3.286  19.323  0.00  0.00    +0.000 A 
ATOM     14  C   UNL     1       2.024   4.047  18.530  0.00  0.00    +0.000 A 
ENDBRANCH   7   8
BRANCH   4  15
ATOM     15  C   UNL     1       6.964   6.472  16.469  0.00  0.00    +0.000 C 
ATOM     16  N   UNL     1       7.906   7.334  16.733  0.00  0.00    +0.000 NA
BRANCH  16  17
ATOM     17  O   UNL     1       7.547   8.204  17.770  0.00  0.00    +0.000 OA
BRANCH  17  18
ATOM     18  C   UNL     1       8.633   8.395  18.673  0.00  0.00    +0.000 C 
BRANCH  18  19
ATOM     19  C   UNL     1       8.878   9.879  18.844  0.00  0.00    +0.000 A 
ATOM     20  C   UNL     1       9.422  10.400  20.031  0.00  0.00    +0.000 A 
ATOM     21  C   UNL     1       9.653  11.772  20.176  0.00  0.00    +0.000 A 
ATOM     22  C   UNL     1       9.359  12.639  19.131  0.00  0.00    +0.000 A 
ATOM     23  C   UNL     1       8.836  12.127  17.946  0.00  0.00    +0.000 A 
ATOM     24  F   UNL     1       8.564  12.965  16.936  0.00  0.00    +0.000 F 
ATOM     25  C   UNL     1       8.602  10.763  17.794  0.00  0.00    +0.000 A 
ENDBRANCH  18  19
ENDBRANCH  17  18
ENDBRANCH  16  17
ENDBRANCH   4  15
TORSDOF 5
ENDMDL
MODEL 3
REMARK VINA RESULT:      -7.5      4.092      6.640
REMARK  Name = 
REMARK  7 active torsions:
REMARK  status: ('A' for Active; 'I' for Inactive)
REMARK    1  A    between atoms: C_1  and  C_2
REMARK    2  A    between atoms: C_4  and  C_5
REMARK    3  A    between atoms: N_6  and  O_7
REMARK    4  A    between atoms: O_7  and  C_8
REMARK    5  A    between atoms: C_8  and  C_9
REMARK    6  A    between atoms: C_16  and  C_17
REMARK    7  A    between atoms: N_18  and  C_19
REMARK                            x       y       z     vdW  Elec       q    Type
REMARK                         _______ _______ _______ _____ _____    ______ ____
ROOT
ATOM      1  C   UNL     1       2.278   7.670  17.908  0.00  0.00    +0.000 C 
ATOM      2  C   UNL     1       3.529   6.883  17.704  0.00  0.00    +0.000 A 
ATOM      3  C   UNL     1       4.615   7.308  16.974  0.00  0.00    +0.000 A 
ATOM      4  C   UNL     1       5.689   6.413  17.173  0.00  0.00    +0.000 A 
ATOM      5  C   UNL     1       5.186   5.368  17.953  0.00  0.00    +0.000 A 
ATOM      6  C   UNL     1       5.886   4.097  18.321  0.00  0.00    +0.000 C 
ATOM      7  N   UNL     1       3.851   5.661  18.298  0.00  0.00    +0.000 N 
ENDROOT
BRANCH   7   8
ATOM      8  C   UNL     1       2.966   4.858  19.099  0.00  0.00    +0.000 A 
ATOM      9  C   UNL     1       2.074   3.948  18.513  0.00  0.00    +0.000 A 
ATOM     10  C   UNL     1       1.209   3.185  19.307  0.00  0.00    +0.000 A 
ATOM     11  C   UNL     1       1.255   3.305  20.689  0.00  0.00    +0.000 A 
ATOM     12  F   UNL     1       0.437   2.565  21.447  0.00  0.00    +0.000 F 
ATOM     13  C   UNL     1       2.141   4.184  21.292  0.00  0.00    +0.000 A 
ATOM     14  C   UNL     1       2.982   4.971  20.499  0.00  0.00    +0.000 A 
ENDBRANCH   7   8
BRANCH   4  15
ATOM     15  C   UNL     1       7.043   6.506  16.631  0.00  0.00    +0.000 C 
ATOM     16  N   UNL     1       7.465   6.008  15.502  0.00  0.00    +0.000 NA
BRANCH  16  17
ATOM     17  O   UNL     1       6.431   5.409  14.773  0.00  0.00    +0.000 OA
BRANCH  17  18
ATOM     18  C   UNL     1       6.670   4.014  14.604  0.00  0.00    +0.000 C 
BRANCH  18  19
ATOM     19  C   UNL     1       5.974   3.542  13.346  0.00  0.00    +0.000 A 
ATOM     20  C   UNL     1       4.757   4.107  12.925  0.00  0.00    +0.000 A 
ATOM     21  C   UNL     1       4.126   3.670  11.756  0.00  0.00    +0.000 A 
ATOM     22  C   UNL     1       4.710   2.675  10.983  0.00  0.00    +0.000 A 
ATOM     23  C   UNL     1       5.924   2.123  11.384  0.00  0.00    +0.000 A 
ATOM     24  F   UNL     1       6.490   1.171  10.630  0.00  0.00    +0.000 F 
ATOM     25  C   UNL     1       6.558   2.551  12.547  0.00  0.00    +0.000 A 
ENDBRANCH  18  19
ENDBRANCH  17  18
ENDBRANCH  16  17
ENDBRANCH   4  15
TORSDOF 5
ENDMDL
MODEL 4
REMARK VINA RESULT:      -7.5      3.245      7.098
REMARK  Name = 
REMARK  7 active torsions:
REMARK  status: ('A' for Active; 'I' for Inactive)
REMARK    1  A    between atoms: C_1  and  C_2
REMARK    2  A    between atoms: C_4  and  C_5
REMARK    3  A    between atoms: N_6  and  O_7
REMARK    4  A    between atoms: O_7  and  C_8
REMARK    5  A    between atoms: C_8  and  C_9
REMARK    6  A    between atoms: C_16  and  C_17
REMARK    7  A    between atoms: N_18  and  C_19
REMARK                            x       y       z     vdW  Elec       q    Type
REMARK                         _______ _______ _______ _____ _____    ______ ____
ROOT
ATOM      1  C   UNL     1       5.482   4.750  14.911  0.00  0.00    +0.000 C 
ATOM      2  C   UNL     1       4.968   4.232  16.213  0.00  0.00    +0.000 A 
ATOM      3  C   UNL     1       4.053   3.213  16.348  0.00  0.00    +0.000 A 
ATOM      4  C   UNL     1       3.964   2.845  17.709  0.00  0.00    +0.000 A 
ATOM      5  C   UNL     1       4.764   3.751  18.410  0.00  0.00    +0.000 A 
ATOM      6  C   UNL     1       4.893   3.878  19.896  0.00  0.00    +0.000 C 
ATOM      7  N   UNL     1       5.401   4.604  17.487  0.00  0.00    +0.000 N 
ENDROOT
BRANCH   7   8
ATOM      8  C   UNL     1       6.318   5.672  17.784  0.00  0.00    +0.000 A 
ATOM      9  C   UNL     1       6.172   6.942  17.204  0.00  0.00    +0.000 A 
ATOM     10  C   UNL     1       7.082   7.966  17.493  0.00  0.00    +0.000 A 
ATOM     11  C   UNL     1       8.121   7.735  18.384  0.00  0.00    +0.000 A 
ATOM     12  F   UNL     1       8.983   8.720  18.668  0.00  0.00    +0.000 F 
ATOM     13  C   UNL     1       8.276   6.494  18.982  0.00  0.00    +0.000 A 
ATOM     14  C   UNL     1       7.387   5.461  18.670  0.00  0.00    +0.000 A 
ENDBRANCH   7   8
BRANCH   4  15
ATOM     15  C   UNL     1       3.155   1.779  18.295  0.00  0.00    +0.000 C 
ATOM     16  N   UNL     1       1.951   1.894  18.783  0.00  0.00    +0.000 NA
BRANCH  16  17
ATOM     17  O   UNL     1       1.439   3.186  18.618  0.00  0.00    +0.000 OA
BRANCH  17  18
ATOM     18  C   UNL     1       1.222   3.813  19.880  0.00  0.00    +0.000 C 
BRANCH  18  19
ATOM     19  C   UNL     1       1.539   5.288  19.761  0.00  0.00    +0.000 A 
ATOM     20  C   UNL     1       1.354   6.167  20.842  0.00  0.00    +0.000 A 
ATOM     21  C   UNL     1       1.659   7.527  20.725  0.00  0.00    +0.000 A 
ATOM     22  C   UNL     1       2.166   8.024  19.531  0.00  0.00    +0.000 A 
ATOM     23  C   UNL     1       2.368   7.156  18.461  0.00  0.00    +0.000 A 
ATOM     24  F   UNL     1       2.868   7.636  17.315  0.00  0.00    +0.000 F 
ATOM     25  C   UNL     1       2.066   5.801  18.569  0.00  0.00    +0.000 A 
ENDBRANCH  18  19
ENDBRANCH  17  18
ENDBRANCH  16  17
ENDBRANCH   4  15
TORSDOF 5
ENDMDL
MODEL 5
REMARK VINA RESULT:      -7.4      4.561      6.969
REMARK  Name = 
REMARK  7 active torsions:
REMARK  status: ('A' for Active; 'I' for Inactive)
REMARK    1  A    between atoms: C_1  and  C_2
REMARK    2  A    between atoms: C_4  and  C_5
REMARK    3  A    between atoms: N_6  and  O_7
REMARK    4  A    between atoms: O_7  and  C_8
REMARK    5  A    between atoms: C_8  and  C_9
REMARK    6  A    between atoms: C_16  and  C_17
REMARK    7  A    between atoms: N_18  and  C_19
REMARK                            x       y       z     vdW  Elec       q    Type
REMARK                         _______ _______ _______ _____ _____    ______ ____
ROOT
ATOM      1  C   UNL     1       2.976   2.601  16.458  0.00  0.00    +0.000 C 
ATOM      2  C   UNL     1       4.113   3.403  16.998  0.00  0.00    +0.000 A 
ATOM      3  C   UNL     1       5.160   3.888  16.249  0.00  0.00    +0.000 A 
ATOM      4  C   UNL     1       5.926   4.773  17.038  0.00  0.00    +0.000 A 
ATOM      5  C   UNL     1       5.382   4.720  18.324  0.00  0.00    +0.000 A 
ATOM      6  C   UNL     1       5.923   5.366  19.561  0.00  0.00    +0.000 C 
ATOM      7  N   UNL     1       4.248   3.884  18.303  0.00  0.00    +0.000 N 
ENDROOT
BRANCH   7   8
ATOM      8  C   UNL     1       3.386   3.562  19.409  0.00  0.00    +0.000 A 
ATOM      9  C   UNL     1       3.725   2.561  20.332  0.00  0.00    +0.000 A 
ATOM     10  C   UNL     1       2.867   2.252  21.395  0.00  0.00    +0.000 A 
ATOM     11  C   UNL     1       1.686   2.962  21.558  0.00  0.00    +0.000 A 
ATOM     12  F   UNL     1       0.874   2.673  22.583  0.00  0.00    +0.000 F 
ATOM     13  C   UNL     1       1.339   3.968  20.670  0.00  0.00    +0.000 A 
ATOM     14  C   UNL     1       2.178   4.256  19.589  0.00  0.00    +0.000 A 
ENDBRANCH   7   8
BRANCH   4  15
ATOM     15  C   UNL     1       7.096   5.549  16.631  0.00  0.00    +0.000 C 
ATOM     16  N   UNL     1       7.487   5.783  15.409  0.00  0.00    +0.000 NA
BRANCH  16  17
ATOM     17  O   UNL     1       6.597   5.263  14.463  0.00  0.00    +0.000 OA
BRANCH  17  18
ATOM     18  C   UNL     1       7.297   4.760  13.328  0.00  0.00    +0.000 C 
BRANCH  18  19
ATOM     19  C   UNL     1       6.386   3.828  12.559  0.00  0.00    +0.000 A 
ATOM     20  C   UNL     1       5.027   4.130  12.360  0.00  0.00    +0.000 A 
ATOM     21  C   UNL     1       4.195   3.266  11.640  0.00  0.00    +0.000 A 
ATOM     22  C   UNL     1       4.713   2.098  11.096  0.00  0.00    +0.000 A 
ATOM     23  C   UNL     1       6.061   1.800  11.274  0.00  0.00    +0.000 A 
ATOM     24  F   UNL     1       6.560   0.678  10.739  0.00  0.00    +0.000 F 
ATOM     25  C   UNL     1       6.896   2.654  11.991  0.00  0.00    +0.000 A 
ENDBRANCH  18  19
ENDBRANCH  17  18
ENDBRANCH  16  17
ENDBRANCH   4  15
TORSDOF 5
ENDMDL
MODEL 6
REMARK VINA RESULT:      -7.3      4.512      6.919
REMARK  Name = 
REMARK  7 active torsions:
REMARK  status: ('A' for Active; 'I' for Inactive)
REMARK    1  A    between atoms: C_1  and  C_2
REMARK    2  A    between atoms: C_4  and  C_5
REMARK    3  A    between atoms: N_6  and  O_7
REMARK    4  A    between atoms: O_7  and  C_8
REMARK    5  A    between atoms: C_8  and  C_9
REMARK    6  A    between atoms: C_16  and  C_17
REMARK    7  A    between atoms: N_18  and  C_19
REMARK                            x       y       z     vdW  Elec       q    Type
REMARK                         _______ _______ _______ _____ _____    ______ ____
ROOT
ATOM      1  C   UNL     1       2.654   3.236  16.349  0.00  0.00    +0.000 C 
ATOM      2  C   UNL     1       3.914   3.834  16.881  0.00  0.00    +0.000 A 
ATOM      3  C   UNL     1       4.956   4.290  16.107  0.00  0.00    +0.000 A 
ATOM      4  C   UNL     1       5.876   4.980  16.925  0.00  0.00    +0.000 A 
ATOM      5  C   UNL     1       5.422   4.826  18.238  0.00  0.00    +0.000 A 
ATOM      6  C   UNL     1       6.123   5.249  19.491  0.00  0.00    +0.000 C 
ATOM      7  N   UNL     1       4.198   4.129  18.216  0.00  0.00    +0.000 N 
ENDROOT
BRANCH   7   8
ATOM      8  C   UNL     1       3.384   3.768  19.347  0.00  0.00    +0.000 A 
ATOM      9  C   UNL     1       3.715   2.678  20.166  0.00  0.00    +0.000 A 
ATOM     10  C   UNL     1       2.904   2.333  21.254  0.00  0.00    +0.000 A 
ATOM     11  C   UNL     1       1.780   3.093  21.546  0.00  0.00    +0.000 A 
ATOM     12  F   UNL     1       1.013   2.769  22.595  0.00  0.00    +0.000 F 
ATOM     13  C   UNL     1       1.443   4.186  20.762  0.00  0.00    +0.000 A 
ATOM     14  C   UNL     1       2.234   4.513  19.655  0.00  0.00    +0.000 A 
ENDBRANCH   7   8
BRANCH   4  15
ATOM     15  C   UNL     1       7.098   5.667  16.514  0.00  0.00    +0.000 C 
ATOM     16  N   UNL     1       7.582   5.738  15.304  0.00  0.00    +0.000 NA
BRANCH  16  17
ATOM     17  O   UNL     1       6.740   5.129  14.366  0.00  0.00    +0.000 OA
BRANCH  17  18
ATOM     18  C   UNL     1       7.421   4.923  13.131  0.00  0.00    +0.000 C 
BRANCH  18  19
ATOM     19  C   UNL     1       6.737   3.809  12.369  0.00  0.00    +0.000 A 
ATOM     20  C   UNL     1       7.468   2.741  11.818  0.00  0.00    +0.000 A 
ATOM     21  C   UNL     1       6.825   1.711  11.123  0.00  0.00    +0.000 A 
ATOM     22  C   UNL     1       5.443   1.726  10.983  0.00  0.00    +0.000 A 
ATOM     23  C   UNL     1       4.712   2.771  11.541  0.00  0.00    +0.000 A 
ATOM     24  F   UNL     1       3.378   2.776  11.414  0.00  0.00    +0.000 F 
ATOM     25  C   UNL     1       5.343   3.801  12.233  0.00  0.00    +0.000 A 
ENDBRANCH  18  19
ENDBRANCH  17  18
ENDBRANCH  16  17
ENDBRANCH   4  15
TORSDOF 5
ENDMDL
MODEL 7
REMARK VINA RESULT:      -7.3      4.976      8.394
REMARK  Name = 
REMARK  7 active torsions:
REMARK  status: ('A' for Active; 'I' for Inactive)
REMARK    1  A    between atoms: C_1  and  C_2
REMARK    2  A    between atoms: C_4  and  C_5
REMARK    3  A    between atoms: N_6  and  O_7
REMARK    4  A    between atoms: O_7  and  C_8
REMARK    5  A    between atoms: C_8  and  C_9
REMARK    6  A    between atoms: C_16  and  C_17
REMARK    7  A    between atoms: N_18  and  C_19
REMARK                            x       y       z     vdW  Elec       q    Type
REMARK                         _______ _______ _______ _____ _____    ______ ____
ROOT
ATOM      1  C   UNL     1      -0.124   8.263  22.095  0.00  0.00    +0.000 C 
ATOM      2  C   UNL     1       0.790   8.373  20.920  0.00  0.00    +0.000 A 
ATOM      3  C   UNL     1       1.737   7.438  20.571  0.00  0.00    +0.000 A 
ATOM      4  C   UNL     1       2.262   7.760  19.300  0.00  0.00    +0.000 A 
ATOM      5  C   UNL     1       1.690   8.983  18.941  0.00  0.00    +0.000 A 
ATOM      6  C   UNL     1       2.029   9.823  17.749  0.00  0.00    +0.000 C 
ATOM      7  N   UNL     1       0.766   9.362  19.934  0.00  0.00    +0.000 N 
ENDROOT
BRANCH   7   8
ATOM      8  C   UNL     1      -0.051  10.547  19.954  0.00  0.00    +0.000 A 
ATOM      9  C   UNL     1      -1.211  10.647  19.173  0.00  0.00    +0.000 A 
ATOM     10  C   UNL     1      -1.987  11.813  19.193  0.00  0.00    +0.000 A 
ATOM     11  C   UNL     1      -1.623  12.869  20.017  0.00  0.00    +0.000 A 
ATOM     12  F   UNL     1      -2.373  13.978  20.045  0.00  0.00    +0.000 F 
ATOM     13  C   UNL     1      -0.490  12.786  20.812  0.00  0.00    +0.000 A 
ATOM     14  C   UNL     1       0.303  11.635  20.768  0.00  0.00    +0.000 A 
ENDBRANCH   7   8
BRANCH   4  15
ATOM     15  C   UNL     1       3.252   7.014  18.526  0.00  0.00    +0.000 C 
ATOM     16  N   UNL     1       3.035   5.946  17.809  0.00  0.00    +0.000 NA
BRANCH  16  17
ATOM     17  O   UNL     1       1.679   5.601  17.778  0.00  0.00    +0.000 OA
BRANCH  17  18
ATOM     18  C   UNL     1       1.515   4.185  17.754  0.00  0.00    +0.000 C 
BRANCH  18  19
ATOM     19  C   UNL     1       1.883   3.622  19.109  0.00  0.00    +0.000 A 
ATOM     20  C   UNL     1       0.983   3.661  20.188  0.00  0.00    +0.000 A 
ATOM     21  C   UNL     1       1.330   3.130  21.436  0.00  0.00    +0.000 A 
ATOM     22  C   UNL     1       2.574   2.539  21.616  0.00  0.00    +0.000 A 
ATOM     23  C   UNL     1       3.464   2.481  20.547  0.00  0.00    +0.000 A 
ATOM     24  F   UNL     1       4.659   1.900  20.721  0.00  0.00    +0.000 F 
ATOM     25  C   UNL     1       3.127   3.009  19.303  0.00  0.00    +0.000 A 
ENDBRANCH  18  19
ENDBRANCH  17  18
ENDBRANCH  16  17
ENDBRANCH   4  15
TORSDOF 5
ENDMDL
MODEL 8
REMARK VINA RESULT:      -7.3      2.955      6.996
REMARK  Name = 
REMARK  7 active torsions:
REMARK  status: ('A' for Active; 'I' for Inactive)
REMARK    1  A    between atoms: C_1  and  C_2
REMARK    2  A    between atoms: C_4  and  C_5
REMARK    3  A    between atoms: N_6  and  O_7
REMARK    4  A    between atoms: O_7  and  C_8
REMARK    5  A    between atoms: C_8  and  C_9
REMARK    6  A    between atoms: C_16  and  C_17
REMARK    7  A    between atoms: N_18  and  C_19
REMARK                            x       y       z     vdW  Elec       q    Type
REMARK                         _______ _______ _______ _____ _____    ______ ____
ROOT
ATOM      1  C   UNL     1       6.286   4.967  14.744  0.00  0.00    +0.000 C 
ATOM      2  C   UNL     1       5.613   4.460  15.977  0.00  0.00    +0.000 A 
ATOM      3  C   UNL     1       4.731   3.405  16.015  0.00  0.00    +0.000 A 
ATOM      4  C   UNL     1       4.463   3.071  17.360  0.00  0.00    +0.000 A 
ATOM      5  C   UNL     1       5.117   4.030  18.137  0.00  0.00    +0.000 A 
ATOM      6  C   UNL     1       5.027   4.203  19.622  0.00  0.00    +0.000 C 
ATOM      7  N   UNL     1       5.844   4.886  17.287  0.00  0.00    +0.000 N 
ENDROOT
BRANCH   7   8
ATOM      8  C   UNL     1       6.665   6.003  17.674  0.00  0.00    +0.000 A 
ATOM      9  C   UNL     1       6.475   7.276  17.118  0.00  0.00    +0.000 A 
ATOM     10  C   UNL     1       7.292   8.349  17.497  0.00  0.00    +0.000 A 
ATOM     11  C   UNL     1       8.280   8.159  18.453  0.00  0.00    +0.000 A 
ATOM     12  F   UNL     1       9.052   9.189  18.823  0.00  0.00    +0.000 F 
ATOM     13  C   UNL     1       8.475   6.914  19.030  0.00  0.00    +0.000 A 
ATOM     14  C   UNL     1       7.681   5.834  18.629  0.00  0.00    +0.000 A 
ENDBRANCH   7   8
BRANCH   4  15
ATOM     15  C   UNL     1       3.623   1.985  17.861  0.00  0.00    +0.000 C 
ATOM     16  N   UNL     1       2.386   2.080  18.263  0.00  0.00    +0.000 NA
BRANCH  16  17
ATOM     17  O   UNL     1       1.876   3.372  18.091  0.00  0.00    +0.000 OA
BRANCH  17  18
ATOM     18  C   UNL     1       1.549   3.961  19.347  0.00  0.00    +0.000 C 
BRANCH  18  19
ATOM     19  C   UNL     1       1.800   5.452  19.274  0.00  0.00    +0.000 A 
ATOM     20  C   UNL     1       2.201   6.070  18.076  0.00  0.00    +0.000 A 
ATOM     21  C   UNL     1       2.422   7.450  18.016  0.00  0.00    +0.000 A 
ATOM     22  C   UNL     1       2.231   8.232  19.148  0.00  0.00    +0.000 A 
ATOM     23  C   UNL     1       1.817   7.630  20.333  0.00  0.00    +0.000 A 
ATOM     24  F   UNL     1       1.622   8.389  21.420  0.00  0.00    +0.000 F 
ATOM     25  C   UNL     1       1.596   6.257  20.401  0.00  0.00    +0.000 A 
ENDBRANCH  18  19
ENDBRANCH  17  18
ENDBRANCH  16  17
ENDBRANCH   4  15
TORSDOF 5
ENDMDL
MODEL 9
REMARK VINA RESULT:      -7.2      0.674      1.167
REMARK  Name = 
REMARK  7 active torsions:
REMARK  status: ('A' for Active; 'I' for Inactive)
REMARK    1  A    between atoms: C_1  and  C_2
REMARK    2  A    between atoms: C_4  and  C_5
REMARK    3  A    between atoms: N_6  and  O_7
REMARK    4  A    between atoms: O_7  and  C_8
REMARK    5  A    between atoms: C_8  and  C_9
REMARK    6  A    between atoms: C_16  and  C_17
REMARK    7  A    between atoms: N_18  and  C_19
REMARK                            x       y       z     vdW  Elec       q    Type
REMARK                         _______ _______ _______ _____ _____    ______ ____
ROOT
ATOM      1  C   UNL     1       1.923   7.774  19.253  0.00  0.00    +0.000 C 
ATOM      2  C   UNL     1       2.932   6.971  18.501  0.00  0.00    +0.000 A 
ATOM      3  C   UNL     1       3.791   7.477  17.553  0.00  0.00    +0.000 A 
ATOM      4  C   UNL     1       4.741   6.489  17.212  0.00  0.00    +0.000 A 
ATOM      5  C   UNL     1       4.361   5.331  17.894  0.00  0.00    +0.000 A 
ATOM      6  C   UNL     1       4.958   3.965  17.758  0.00  0.00    +0.000 C 
ATOM      7  N   UNL     1       3.249   5.627  18.707  0.00  0.00    +0.000 N 
ENDROOT
BRANCH   7   8
ATOM      8  C   UNL     1       2.549   4.724  19.582  0.00  0.00    +0.000 A 
ATOM      9  C   UNL     1       1.432   3.999  19.141  0.00  0.00    +0.000 A 
ATOM     10  C   UNL     1       0.754   3.135  20.010  0.00  0.00    +0.000 A 
ATOM     11  C   UNL     1       1.208   2.969  21.311  0.00  0.00    +0.000 A 
ATOM     12  F   UNL     1       0.565   2.133  22.137  0.00  0.00    +0.000 F 
ATOM     13  C   UNL     1       2.320   3.662  21.765  0.00  0.00    +0.000 A 
ATOM     14  C   UNL     1       2.979   4.549  20.908  0.00  0.00    +0.000 A 
ENDBRANCH   7   8
BRANCH   4  15
ATOM     15  C   UNL     1       5.864   6.611  16.285  0.00  0.00    +0.000 C 
ATOM     16  N   UNL     1       6.936   7.335  16.453  0.00  0.00    +0.000 NA
BRANCH  16  17
ATOM     17  O   UNL     1       6.956   7.962  17.704  0.00  0.00    +0.000 OA
BRANCH  17  18
ATOM     18  C   UNL     1       8.284   8.026  18.219  0.00  0.00    +0.000 C 
BRANCH  18  19
ATOM     19  C   UNL     1       8.651   9.474  18.458  0.00  0.00    +0.000 A 
ATOM     20  C   UNL     1       8.236  10.490  17.579  0.00  0.00    +0.000 A 
ATOM     21  C   UNL     1       8.574  11.828  17.814  0.00  0.00    +0.000 A 
ATOM     22  C   UNL     1       9.317  12.169  18.937  0.00  0.00    +0.000 A 
ATOM     23  C   UNL     1       9.716  11.170  19.820  0.00  0.00    +0.000 A 
ATOM     24  F   UNL     1      10.423  11.504  20.909  0.00  0.00    +0.000 F 
ATOM     25  C   UNL     1       9.386   9.837  19.594  0.00  0.00    +0.000 A 
ENDBRANCH  18  19
ENDBRANCH  17  18
ENDBRANCH  16  17
ENDBRANCH   4  15
TORSDOF 5
ENDMDL
