MODEL 1
REMARK VINA RESULT:      -7.5      0.000      0.000
REMARK  Name = 
REMARK  5 active torsions:
REMARK  status: ('A' for Active; 'I' for Inactive)
REMARK    1  A    between atoms: N_6  and  C_7
REMARK    2  A    between atoms: C_7  and  C_8
REMARK    3  A    between atoms: N_10  and  N_11
REMARK    4  A    between atoms: C_12  and  C_13
REMARK    5  A    between atoms: C_14  and  C_15
REMARK                            x       y       z     vdW  Elec       q    Type
REMARK                         _______ _______ _______ _____ _____    ______ ____
ROOT
ATOM      1  C   UNL     1       5.416   5.097  17.426  0.00  0.00    +0.000 C 
ATOM      2  O   UNL     1       4.611   4.400  16.805  0.00  0.00    +0.000 OA
ATOM      3  N   UNL     1       6.499   5.686  16.798  0.00  0.00    +0.000 N 
ATOM      4  H   UNL     1       6.639   5.536  15.801  0.00  0.00    +0.000 HD
ENDROOT
BRANCH   3   5
ATOM      5  N   UNL     1       7.288   6.497  17.518  0.00  0.00    +0.000 NA
ATOM      6  C   UNL     1       7.342   7.754  17.235  0.00  0.00    +0.000 C 
BRANCH   6   7
ATOM      7  C   UNL     1       8.233   8.569  18.078  0.00  0.00    +0.000 C 
ATOM      8  C   UNL     1       8.451   9.872  17.875  0.00  0.00    +0.000 C 
BRANCH   8   9
ATOM      9  C   UNL     1       9.394  10.638  18.707  0.00  0.00    +0.000 A 
ATOM     10  C   UNL     1      10.488  11.249  18.086  0.00  0.00    +0.000 A 
ATOM     11  C   UNL     1      11.429  11.957  18.840  0.00  0.00    +0.000 A 
ATOM     12  C   UNL     1      11.278  12.077  20.219  0.00  0.00    +0.000 A 
ATOM     13  C   UNL     1      10.180  11.496  20.848  0.00  0.00    +0.000 A 
ATOM     14  C   UNL     1       9.235  10.790  20.092  0.00  0.00    +0.000 A 
ENDBRANCH   8   9
ENDBRANCH   6   7
ENDBRANCH   3   5
BRANCH   1  15
ATOM     15  C   UNL     1       5.278   5.353  18.910  0.00  0.00    +0.000 C 
BRANCH  15  21
ATOM     16  N   UNL     1       4.951   2.362  19.655  0.00  0.00    +0.000 N 
ATOM     17  C   UNL     1       4.047   3.330  19.894  0.00  0.00    +0.000 A 
ATOM     18  N   UNL     1       2.901   3.206  20.524  0.00  0.00    +0.000 NA
ATOM     19  N   UNL     1       2.340   4.454  20.565  0.00  0.00    +0.000 NA
ATOM     20  N   UNL     1       3.118   5.345  19.971  0.00  0.00    +0.000 NA
ATOM     21  N   UNL     1       4.183   4.644  19.524  0.00  0.00    +0.000 N 
ATOM     22  H   UNL     1       4.822   1.480  20.143  0.00  0.00    +0.000 HD
ATOM     23  H   UNL     1       5.916   2.552  19.393  0.00  0.00    +0.000 HD
ENDBRANCH  15  21
ENDBRANCH   1  15
TORSDOF 5
ENDMDL
MODEL 2
REMARK VINA RESULT:      -7.4      0.697      1.245
REMARK  Name = 
REMARK  5 active torsions:
REMARK  status: ('A' for Active; 'I' for Inactive)
REMARK    1  A    between atoms: N_6  and  C_7
REMARK    2  A    between atoms: C_7  and  C_8
REMARK    3  A    between atoms: N_10  and  N_11
REMARK    4  A    between atoms: C_12  and  C_13
REMARK    5  A    between atoms: C_14  and  C_15
REMARK                            x       y       z     vdW  Elec       q    Type
REMARK                         _______ _______ _______ _____ _____    ______ ____
ROOT
ATOM      1  C   UNL     1       6.309   4.926  17.536  0.00  0.00    +0.000 C 
ATOM      2  O   UNL     1       5.700   4.072  16.888  0.00  0.00    +0.000 OA
ATOM      3  N   UNL     1       7.349   5.651  16.981  0.00  0.00    +0.000 N 
ATOM      4  H   UNL     1       7.622   5.471  16.017  0.00  0.00    +0.000 HD
ENDROOT
BRANCH   3   5
ATOM      5  N   UNL     1       7.912   6.620  17.717  0.00  0.00    +0.000 NA
ATOM      6  C   UNL     1       7.698   7.857  17.419  0.00  0.00    +0.000 C 
BRANCH   6   7
ATOM      7  C   UNL     1       8.356   8.852  18.281  0.00  0.00    +0.000 C 
ATOM      8  C   UNL     1       8.700  10.075  17.864  0.00  0.00    +0.000 C 
BRANCH   8   9
ATOM      9  C   UNL     1       9.408  11.021  18.743  0.00  0.00    +0.000 A 
ATOM     10  C   UNL     1       9.381  10.799  20.124  0.00  0.00    +0.000 A 
ATOM     11  C   UNL     1      10.009  11.690  20.999  0.00  0.00    +0.000 A 
ATOM     12  C   UNL     1      10.684  12.803  20.505  0.00  0.00    +0.000 A 
ATOM     13  C   UNL     1      10.741  13.024  19.131  0.00  0.00    +0.000 A 
ATOM     14  C   UNL     1      10.115  12.129  18.253  0.00  0.00    +0.000 A 
ENDBRANCH   8   9
ENDBRANCH   6   7
ENDBRANCH   3   5
BRANCH   1  15
ATOM     15  C   UNL     1       5.965   5.238  18.975  0.00  0.00    +0.000 C 
BRANCH  15  21
ATOM     16  N   UNL     1       4.982   2.375  19.644  0.00  0.00    +0.000 N 
ATOM     17  C   UNL     1       4.238   3.494  19.720  0.00  0.00    +0.000 A 
ATOM     18  N   UNL     1       2.995   3.593  20.135  0.00  0.00    +0.000 NA
ATOM     19  N   UNL     1       2.669   4.922  20.078  0.00  0.00    +0.000 NA
ATOM     20  N   UNL     1       3.687   5.643  19.634  0.00  0.00    +0.000 NA
ATOM     21  N   UNL     1       4.670   4.752  19.382  0.00  0.00    +0.000 N 
ATOM     22  H   UNL     1       4.613   1.544  20.099  0.00  0.00    +0.000 HD
ATOM     23  H   UNL     1       5.996   2.383  19.558  0.00  0.00    +0.000 HD
ENDBRANCH  15  21
ENDBRANCH   1  15
TORSDOF 5
ENDMDL
MODEL 3
REMARK VINA RESULT:      -7.3      5.116      6.491
REMARK  Name = 
REMARK  5 active torsions:
REMARK  status: ('A' for Active; 'I' for Inactive)
REMARK    1  A    between atoms: N_6  and  C_7
REMARK    2  A    between atoms: C_7  and  C_8
REMARK    3  A    between atoms: N_10  and  N_11
REMARK    4  A    between atoms: C_12  and  C_13
REMARK    5  A    between atoms: C_14  and  C_15
REMARK                            x       y       z     vdW  Elec       q    Type
REMARK                         _______ _______ _______ _____ _____    ______ ____
ROOT
ATOM      1  C   UNL     1       2.226   5.597  19.768  0.00  0.00    +0.000 C 
ATOM      2  O   UNL     1       1.821   5.843  20.906  0.00  0.00    +0.000 OA
ATOM      3  N   UNL     1       2.662   6.600  18.921  0.00  0.00    +0.000 N 
ATOM      4  H   UNL     1       2.642   7.566  19.242  0.00  0.00    +0.000 HD
ENDROOT
BRANCH   3   5
ATOM      5  N   UNL     1       3.166   6.252  17.728  0.00  0.00    +0.000 NA
ATOM      6  C   UNL     1       4.418   6.439  17.483  0.00  0.00    +0.000 C 
BRANCH   6   7
ATOM      7  C   UNL     1       4.884   6.027  16.148  0.00  0.00    +0.000 C 
ATOM      8  C   UNL     1       5.567   4.901  15.922  0.00  0.00    +0.000 C 
BRANCH   8   9
ATOM      9  C   UNL     1       6.064   4.553  14.580  0.00  0.00    +0.000 A 
ATOM     10  C   UNL     1       7.264   5.125  14.143  0.00  0.00    +0.000 A 
ATOM     11  C   UNL     1       7.756   4.852  12.863  0.00  0.00    +0.000 A 
ATOM     12  C   UNL     1       7.065   3.992  12.013  0.00  0.00    +0.000 A 
ATOM     13  C   UNL     1       5.884   3.395  12.443  0.00  0.00    +0.000 A 
ATOM     14  C   UNL     1       5.392   3.666  13.727  0.00  0.00    +0.000 A 
ENDBRANCH   8   9
ENDBRANCH   6   7
ENDBRANCH   3   5
BRANCH   1  15
ATOM     15  C   UNL     1       2.274   4.188  19.221  0.00  0.00    +0.000 C 
BRANCH  15  21
ATOM     16  N   UNL     1       1.910   2.757  21.947  0.00  0.00    +0.000 N 
ATOM     17  C   UNL     1       2.980   2.639  21.139  0.00  0.00    +0.000 A 
ATOM     18  N   UNL     1       4.029   1.869  21.320  0.00  0.00    +0.000 NA
ATOM     19  N   UNL     1       4.837   2.045  20.229  0.00  0.00    +0.000 NA
ATOM     20  N   UNL     1       4.306   2.909  19.379  0.00  0.00    +0.000 NA
ATOM     21  N   UNL     1       3.151   3.308  19.953  0.00  0.00    +0.000 N 
ATOM     22  H   UNL     1       1.817   2.072  22.692  0.00  0.00    +0.000 HD
ATOM     23  H   UNL     1       1.027   3.165  21.648  0.00  0.00    +0.000 HD
ENDBRANCH  15  21
ENDBRANCH   1  15
TORSDOF 5
ENDMDL
MODEL 4
REMARK VINA RESULT:      -7.3      1.804      2.523
REMARK  Name = 
REMARK  5 active torsions:
REMARK  status: ('A' for Active; 'I' for Inactive)
REMARK    1  A    between atoms: N_6  and  C_7
REMARK    2  A    between atoms: C_7  and  C_8
REMARK    3  A    between atoms: N_10  and  N_11
REMARK    4  A    between atoms: C_12  and  C_13
REMARK    5  A    between atoms: C_14  and  C_15
REMARK                            x       y       z     vdW  Elec       q    Type
REMARK                         _______ _______ _______ _____ _____    ______ ____
ROOT
ATOM      1  C   UNL     1       5.749   5.695  15.928  0.00  0.00    +0.000 C 
ATOM      2  O   UNL     1       5.289   4.728  15.315  0.00  0.00    +0.000 OA
ATOM      3  N   UNL     1       7.108   5.831  16.152  0.00  0.00    +0.000 N 
ATOM      4  H   UNL     1       7.743   5.113  15.809  0.00  0.00    +0.000 HD
ENDROOT
BRANCH   3   5
ATOM      5  N   UNL     1       7.545   6.946  16.754  0.00  0.00    +0.000 NA
ATOM      6  C   UNL     1       7.880   6.912  17.999  0.00  0.00    +0.000 C 
BRANCH   6   7
ATOM      7  C   UNL     1       8.349   8.183  18.577  0.00  0.00    +0.000 C 
ATOM      8  C   UNL     1       8.389   9.332  17.896  0.00  0.00    +0.000 C 
BRANCH   8   9
ATOM      9  C   UNL     1       8.918  10.568  18.495  0.00  0.00    +0.000 A 
ATOM     10  C   UNL     1       9.556  10.489  19.738  0.00  0.00    +0.000 A 
ATOM     11  C   UNL     1      10.043  11.642  20.362  0.00  0.00    +0.000 A 
ATOM     12  C   UNL     1       9.914  12.883  19.744  0.00  0.00    +0.000 A 
ATOM     13  C   UNL     1       9.305  12.974  18.495  0.00  0.00    +0.000 A 
ATOM     14  C   UNL     1       8.820  11.819  17.868  0.00  0.00    +0.000 A 
ENDBRANCH   8   9
ENDBRANCH   6   7
ENDBRANCH   3   5
BRANCH   1  15
ATOM     15  C   UNL     1       4.865   6.793  16.476  0.00  0.00    +0.000 C 
BRANCH  15  21
ATOM     16  N   UNL     1       2.329   7.924  17.854  0.00  0.00    +0.000 N 
ATOM     17  C   UNL     1       3.101   6.933  18.334  0.00  0.00    +0.000 A 
ATOM     18  N   UNL     1       2.904   6.232  19.427  0.00  0.00    +0.000 NA
ATOM     19  N   UNL     1       3.916   5.312  19.491  0.00  0.00    +0.000 NA
ATOM     20  N   UNL     1       4.735   5.434  18.458  0.00  0.00    +0.000 NA
ATOM     21  N   UNL     1       4.246   6.466  17.737  0.00  0.00    +0.000 N 
ATOM     22  H   UNL     1       1.415   8.046  18.282  0.00  0.00    +0.000 HD
ATOM     23  H   UNL     1       2.382   8.260  16.894  0.00  0.00    +0.000 HD
ENDBRANCH  15  21
ENDBRANCH   1  15
TORSDOF 5
ENDMDL
MODEL 5
REMARK VINA RESULT:      -7.3      0.697      1.266
REMARK  Name = 
REMARK  5 active torsions:
REMARK  status: ('A' for Active; 'I' for Inactive)
REMARK    1  A    between atoms: N_6  and  C_7
REMARK    2  A    between atoms: C_7  and  C_8
REMARK    3  A    between atoms: N_10  and  N_11
REMARK    4  A    between atoms: C_12  and  C_13
REMARK    5  A    between atoms: C_14  and  C_15
REMARK                            x       y       z     vdW  Elec       q    Type
REMARK                         _______ _______ _______ _____ _____    ______ ____
ROOT
ATOM      1  C   UNL     1       4.684   5.223  17.476  0.00  0.00    +0.000 C 
ATOM      2  O   UNL     1       3.925   4.419  16.929  0.00  0.00    +0.000 OA
ATOM      3  N   UNL     1       5.388   6.165  16.747  0.00  0.00    +0.000 N 
ATOM      4  H   UNL     1       5.283   6.192  15.735  0.00  0.00    +0.000 HD
ENDROOT
BRANCH   3   5
ATOM      5  N   UNL     1       6.132   7.059  17.415  0.00  0.00    +0.000 NA
ATOM      6  C   UNL     1       7.418   6.969  17.386  0.00  0.00    +0.000 C 
BRANCH   6   7
ATOM      7  C   UNL     1       8.155   7.993  18.146  0.00  0.00    +0.000 C 
ATOM      8  C   UNL     1       8.269   9.265  17.750  0.00  0.00    +0.000 C 
BRANCH   8   9
ATOM      9  C   UNL     1       9.061  10.245  18.511  0.00  0.00    +0.000 A 
ATOM     10  C   UNL     1       9.009  10.205  19.909  0.00  0.00    +0.000 A 
ATOM     11  C   UNL     1       9.718  11.138  20.673  0.00  0.00    +0.000 A 
ATOM     12  C   UNL     1      10.499  12.108  20.051  0.00  0.00    +0.000 A 
ATOM     13  C   UNL     1      10.581  12.144  18.661  0.00  0.00    +0.000 A 
ATOM     14  C   UNL     1       9.874  11.207  17.895  0.00  0.00    +0.000 A 
ENDBRANCH   8   9
ENDBRANCH   6   7
ENDBRANCH   3   5
BRANCH   1  15
ATOM     15  C   UNL     1       4.898   5.233  18.973  0.00  0.00    +0.000 C 
BRANCH  15  21
ATOM     16  N   UNL     1       4.902   2.207  19.643  0.00  0.00    +0.000 N 
ATOM     17  C   UNL     1       3.969   3.092  20.037  0.00  0.00    +0.000 A 
ATOM     18  N   UNL     1       2.933   2.860  20.811  0.00  0.00    +0.000 NA
ATOM     19  N   UNL     1       2.290   4.059  20.973  0.00  0.00    +0.000 NA
ATOM     20  N   UNL     1       2.911   5.024  20.314  0.00  0.00    +0.000 NA
ATOM     21  N   UNL     1       3.953   4.423  19.702  0.00  0.00    +0.000 N 
ATOM     22  H   UNL     1       4.909   1.304  20.110  0.00  0.00    +0.000 HD
ATOM     23  H   UNL     1       5.806   2.479  19.260  0.00  0.00    +0.000 HD
ENDBRANCH  15  21
ENDBRANCH   1  15
TORSDOF 5
ENDMDL
MODEL 6
REMARK VINA RESULT:      -7.3      6.579      8.515
REMARK  Name = 
REMARK  5 active torsions:
REMARK  status: ('A' for Active; 'I' for Inactive)
REMARK    1  A    between atoms: N_6  and  C_7
REMARK    2  A    between atoms: C_7  and  C_8
REMARK    3  A    between atoms: N_10  and  N_11
REMARK    4  A    between atoms: C_12  and  C_13
REMARK    5  A    between atoms: C_14  and  C_15
REMARK                            x       y       z     vdW  Elec       q    Type
REMARK                         _______ _______ _______ _____ _____    ______ ____
ROOT
ATOM      1  C   UNL     1       0.538  10.833  19.138  0.00  0.00    +0.000 C 
ATOM      2  O   UNL     1       0.398  12.052  19.022  0.00  0.00    +0.000 OA
ATOM      3  N   UNL     1       1.612  10.170  18.571  0.00  0.00    +0.000 N 
ATOM      4  H   UNL     1       2.300  10.700  18.040  0.00  0.00    +0.000 HD
ENDROOT
BRANCH   3   5
ATOM      5  N   UNL     1       1.744   8.856  18.805  0.00  0.00    +0.000 NA
ATOM      6  C   UNL     1       2.379   8.116  17.961  0.00  0.00    +0.000 C 
BRANCH   6   7
ATOM      7  C   UNL     1       2.476   6.687  18.299  0.00  0.00    +0.000 C 
ATOM      8  C   UNL     1       3.339   5.849  17.716  0.00  0.00    +0.000 C 
BRANCH   8   9
ATOM      9  C   UNL     1       3.365   4.414  18.043  0.00  0.00    +0.000 A 
ATOM     10  C   UNL     1       4.136   3.991  19.131  0.00  0.00    +0.000 A 
ATOM     11  C   UNL     1       4.220   2.634  19.459  0.00  0.00    +0.000 A 
ATOM     12  C   UNL     1       3.522   1.687  18.714  0.00  0.00    +0.000 A 
ATOM     13  C   UNL     1       2.730   2.095  17.644  0.00  0.00    +0.000 A 
ATOM     14  C   UNL     1       2.643   3.455  17.318  0.00  0.00    +0.000 A 
ENDBRANCH   8   9
ENDBRANCH   6   7
ENDBRANCH   3   5
BRANCH   1  15
ATOM     15  C   UNL     1      -0.451   9.980  19.902  0.00  0.00    +0.000 C 
BRANCH  15  21
ATOM     16  N   UNL     1       1.415   8.377  21.789  0.00  0.00    +0.000 N 
ATOM     17  C   UNL     1       0.573   9.355  22.169  0.00  0.00    +0.000 A 
ATOM     18  N   UNL     1       0.423   9.847  23.379  0.00  0.00    +0.000 NA
ATOM     19  N   UNL     1      -0.507  10.847  23.282  0.00  0.00    +0.000 NA
ATOM     20  N   UNL     1      -0.933  10.981  22.036  0.00  0.00    +0.000 NA
ATOM     21  N   UNL     1      -0.280  10.032  21.333  0.00  0.00    +0.000 N 
ATOM     22  H   UNL     1       2.123   8.091  22.459  0.00  0.00    +0.000 HD
ATOM     23  H   UNL     1       1.672   8.208  20.818  0.00  0.00    +0.000 HD
ENDBRANCH  15  21
ENDBRANCH   1  15
TORSDOF 5
ENDMDL
MODEL 7
REMARK VINA RESULT:      -7.2      0.870      1.493
REMARK  Name = 
REMARK  5 active torsions:
REMARK  status: ('A' for Active; 'I' for Inactive)
REMARK    1  A    between atoms: N_6  and  C_7
REMARK    2  A    between atoms: C_7  and  C_8
REMARK    3  A    between atoms: N_10  and  N_11
REMARK    4  A    between atoms: C_12  and  C_13
REMARK    5  A    between atoms: C_14  and  C_15
REMARK                            x       y       z     vdW  Elec       q    Type
REMARK                         _______ _______ _______ _____ _____    ______ ____
ROOT
ATOM      1  C   UNL     1       4.988   5.647  17.078  0.00  0.00    +0.000 C 
ATOM      2  O   UNL     1       4.321   4.805  16.471  0.00  0.00    +0.000 OA
ATOM      3  N   UNL     1       5.841   6.511  16.414  0.00  0.00    +0.000 N 
ATOM      4  H   UNL     1       5.925   6.447  15.401  0.00  0.00    +0.000 HD
ENDROOT
BRANCH   3   5
ATOM      5  N   UNL     1       6.473   7.454  17.127  0.00  0.00    +0.000 NA
ATOM      6  C   UNL     1       7.703   7.278  17.473  0.00  0.00    +0.000 C 
BRANCH   6   7
ATOM      7  C   UNL     1       8.318   8.364  18.253  0.00  0.00    +0.000 C 
ATOM      8  C   UNL     1       8.434   9.618  17.806  0.00  0.00    +0.000 C 
BRANCH   8   9
ATOM      9  C   UNL     1       9.106  10.663  18.597  0.00  0.00    +0.000 A 
ATOM     10  C   UNL     1       9.494  11.842  17.952  0.00  0.00    +0.000 A 
ATOM     11  C   UNL     1      10.167  12.848  18.654  0.00  0.00    +0.000 A 
ATOM     12  C   UNL     1      10.443  12.693  20.010  0.00  0.00    +0.000 A 
ATOM     13  C   UNL     1      10.040  11.536  20.671  0.00  0.00    +0.000 A 
ATOM     14  C   UNL     1       9.363  10.531  19.969  0.00  0.00    +0.000 A 
ENDBRANCH   8   9
ENDBRANCH   6   7
ENDBRANCH   3   5
BRANCH   1  15
ATOM     15  C   UNL     1       4.922   5.791  18.582  0.00  0.00    +0.000 C 
BRANCH  15  21
ATOM     16  N   UNL     1       2.178   4.804  19.634  0.00  0.00    +0.000 N 
ATOM     17  C   UNL     1       3.333   4.116  19.699  0.00  0.00    +0.000 A 
ATOM     18  N   UNL     1       3.505   2.898  20.160  0.00  0.00    +0.000 NA
ATOM     19  N   UNL     1       4.831   2.598  19.988  0.00  0.00    +0.000 NA
ATOM     20  N   UNL     1       5.478   3.609  19.430  0.00  0.00    +0.000 NA
ATOM     21  N   UNL     1       4.551   4.578  19.267  0.00  0.00    +0.000 N 
ATOM     22  H   UNL     1       1.322   4.285  19.807  0.00  0.00    +0.000 HD
ATOM     23  H   UNL     1       2.051   5.628  19.050  0.00  0.00    +0.000 HD
ENDBRANCH  15  21
ENDBRANCH   1  15
TORSDOF 5
ENDMDL
MODEL 8
REMARK VINA RESULT:      -7.1      5.107      6.396
REMARK  Name = 
REMARK  5 active torsions:
REMARK  status: ('A' for Active; 'I' for Inactive)
REMARK    1  A    between atoms: N_6  and  C_7
REMARK    2  A    between atoms: C_7  and  C_8
REMARK    3  A    between atoms: N_10  and  N_11
REMARK    4  A    between atoms: C_12  and  C_13
REMARK    5  A    between atoms: C_14  and  C_15
REMARK                            x       y       z     vdW  Elec       q    Type
REMARK                         _______ _______ _______ _____ _____    ______ ____
ROOT
ATOM      1  C   UNL     1       2.328   5.479  19.924  0.00  0.00    +0.000 C 
ATOM      2  O   UNL     1       1.971   5.771  21.068  0.00  0.00    +0.000 OA
ATOM      3  N   UNL     1       2.829   6.432  19.056  0.00  0.00    +0.000 N 
ATOM      4  H   UNL     1       2.899   7.400  19.365  0.00  0.00    +0.000 HD
ENDROOT
BRANCH   3   5
ATOM      5  N   UNL     1       3.274   6.030  17.856  0.00  0.00    +0.000 NA
ATOM      6  C   UNL     1       4.436   6.408  17.444  0.00  0.00    +0.000 C 
BRANCH   6   7
ATOM      7  C   UNL     1       4.843   5.918  16.117  0.00  0.00    +0.000 C 
ATOM      8  C   UNL     1       6.004   5.299  15.885  0.00  0.00    +0.000 C 
BRANCH   8   9
ATOM      9  C   UNL     1       6.398   4.874  14.531  0.00  0.00    +0.000 A 
ATOM     10  C   UNL     1       5.639   3.886  13.895  0.00  0.00    +0.000 A 
ATOM     11  C   UNL     1       5.995   3.425  12.623  0.00  0.00    +0.000 A 
ATOM     12  C   UNL     1       7.102   3.959  11.967  0.00  0.00    +0.000 A 
ATOM     13  C   UNL     1       7.851   4.961  12.577  0.00  0.00    +0.000 A 
ATOM     14  C   UNL     1       7.492   5.425  13.850  0.00  0.00    +0.000 A 
ENDBRANCH   8   9
ENDBRANCH   6   7
ENDBRANCH   3   5
BRANCH   1  15
ATOM     15  C   UNL     1       2.242   4.065  19.393  0.00  0.00    +0.000 C 
BRANCH  15  21
ATOM     16  N   UNL     1       5.166   3.265  18.749  0.00  0.00    +0.000 N 
ATOM     17  C   UNL     1       4.446   2.815  19.792  0.00  0.00    +0.000 A 
ATOM     18  N   UNL     1       4.852   2.010  20.748  0.00  0.00    +0.000 NA
ATOM     19  N   UNL     1       3.797   1.862  21.609  0.00  0.00    +0.000 NA
ATOM     20  N   UNL     1       2.749   2.560  21.201  0.00  0.00    +0.000 NA
ATOM     21  N   UNL     1       3.138   3.143  20.047  0.00  0.00    +0.000 N 
ATOM     22  H   UNL     1       6.170   3.103  18.777  0.00  0.00    +0.000 HD
ATOM     23  H   UNL     1       4.893   4.068  18.185  0.00  0.00    +0.000 HD
ENDBRANCH  15  21
ENDBRANCH   1  15
TORSDOF 5
ENDMDL
MODEL 9
REMARK VINA RESULT:      -7.1      4.889      6.591
REMARK  Name = 
REMARK  5 active torsions:
REMARK  status: ('A' for Active; 'I' for Inactive)
REMARK    1  A    between atoms: N_6  and  C_7
REMARK    2  A    between atoms: C_7  and  C_8
REMARK    3  A    between atoms: N_10  and  N_11
REMARK    4  A    between atoms: C_12  and  C_13
REMARK    5  A    between atoms: C_14  and  C_15
REMARK                            x       y       z     vdW  Elec       q    Type
REMARK                         _______ _______ _______ _____ _____    ______ ____
ROOT
ATOM      1  C   UNL     1       2.363   6.053  19.325  0.00  0.00    +0.000 C 
ATOM      2  O   UNL     1       1.838   6.177  20.434  0.00  0.00    +0.000 OA
ATOM      3  N   UNL     1       3.503   6.757  18.980  0.00  0.00    +0.000 N 
ATOM      4  H   UNL     1       3.915   7.398  19.655  0.00  0.00    +0.000 HD
ENDROOT
BRANCH   3   5
ATOM      5  N   UNL     1       4.066   6.512  17.788  0.00  0.00    +0.000 NA
ATOM      6  C   UNL     1       5.267   6.046  17.731  0.00  0.00    +0.000 C 
BRANCH   6   7
ATOM      7  C   UNL     1       5.804   5.807  16.381  0.00  0.00    +0.000 C 
ATOM      8  C   UNL     1       5.460   4.759  15.626  0.00  0.00    +0.000 C 
BRANCH   8   9
ATOM      9  C   UNL     1       6.064   4.526  14.304  0.00  0.00    +0.000 A 
ATOM     10  C   UNL     1       5.440   3.625  13.434  0.00  0.00    +0.000 A 
ATOM     11  C   UNL     1       5.996   3.345  12.181  0.00  0.00    +0.000 A 
ATOM     12  C   UNL     1       7.170   3.975  11.777  0.00  0.00    +0.000 A 
ATOM     13  C   UNL     1       7.788   4.894  12.622  0.00  0.00    +0.000 A 
ATOM     14  C   UNL     1       7.230   5.177  13.875  0.00  0.00    +0.000 A 
ENDBRANCH   8   9
ENDBRANCH   6   7
ENDBRANCH   3   5
BRANCH   1  15
ATOM     15  C   UNL     1       1.799   5.128  18.269  0.00  0.00    +0.000 C 
BRANCH  15  21
ATOM     16  N   UNL     1       0.534   3.183  20.324  0.00  0.00    +0.000 N 
ATOM     17  C   UNL     1       1.462   2.854  19.407  0.00  0.00    +0.000 A 
ATOM     18  N   UNL     1       1.958   1.660  19.173  0.00  0.00    +0.000 NA
ATOM     19  N   UNL     1       2.833   1.797  18.129  0.00  0.00    +0.000 NA
ATOM     20  N   UNL     1       2.886   3.054  17.715  0.00  0.00    +0.000 NA
ATOM     21  N   UNL     1       2.046   3.731  18.527  0.00  0.00    +0.000 N 
ATOM     22  H   UNL     1       0.045   2.417  20.780  0.00  0.00    +0.000 HD
ATOM     23  H   UNL     1       0.007   4.053  20.299  0.00  0.00    +0.000 HD
ENDBRANCH  15  21
ENDBRANCH   1  15
TORSDOF 5
ENDMDL
