MODEL 1
REMARK VINA RESULT:      -8.3      0.000      0.000
REMARK  Name = 
REMARK  9 active torsions:
REMARK  status: ('A' for Active; 'I' for Inactive)
REMARK    1  A    between atoms: C_1  and  C_2
REMARK    2  A    between atoms: C_2  and  C_3
REMARK    3  A    between atoms: C_3  and  N_4
REMARK    4  A    between atoms: C_3  and  C_13
REMARK    5  A    between atoms: N_4  and  C_5
REMARK    6  A    between atoms: C_9  and  O_10
REMARK    7  A    between atoms: O_10  and  C_11
REMARK    8  A    between atoms: N_15  and  C_16
REMARK    9  A    between atoms: C_16  and  C_17
REMARK                            x       y       z     vdW  Elec       q    Type
REMARK                         _______ _______ _______ _____ _____    ______ ____
ROOT
ATOM      1  C   UNL     1       5.486   6.544  16.535  0.00  0.00    +0.000 C 
ATOM      2  O   UNL     1       5.000   7.001  15.503  0.00  0.00    +0.000 OA
ATOM      3  N   UNL     1       4.794   6.482  17.726  0.00  0.00    +0.000 N 
ATOM      4  H   UNL     1       5.189   5.847  18.415  0.00  0.00    +0.000 HD
ENDROOT
BRANCH   1   5
ATOM      5  C   UNL     1       6.956   6.064  16.600  0.00  0.00    +0.000 C 
BRANCH   5   7
ATOM      6  C   UNL     1       8.165   7.218  18.509  0.00  0.00    +0.000 C 
ATOM      7  C   UNL     1       7.388   5.981  18.068  0.00  0.00    +0.000 C 
ENDBRANCH   5   7
BRANCH   5   8
ATOM      8  N   UNL     1       7.131   4.734  15.955  0.00  0.00    +0.000 N 
ATOM      9  H   UNL     1       7.989   4.266  16.246  0.00  0.00    +0.000 HD
BRANCH   8  10
ATOM     10  C   UNL     1       6.972   4.609  14.563  0.00  0.00    +0.000 A 
ATOM     11  C   UNL     1       7.825   5.340  13.725  0.00  0.00    +0.000 A 
ATOM     12  C   UNL     1       7.808   5.152  12.339  0.00  0.00    +0.000 A 
ATOM     13  C   UNL     1       6.942   4.217  11.772  0.00  0.00    +0.000 A 
ATOM     14  C   UNL     1       6.076   3.488  12.580  0.00  0.00    +0.000 A 
ATOM     15  C   UNL     1       6.087   3.705  13.961  0.00  0.00    +0.000 A 
BRANCH  14  16
ATOM     16  O   UNL     1       5.278   2.586  11.929  0.00  0.00    +0.000 OA
ATOM     17  C   UNL     1       4.201   3.124  11.165  0.00  0.00    +0.000 C 
ENDBRANCH  14  16
ENDBRANCH   8  10
ENDBRANCH   5   8
ENDBRANCH   1   5
BRANCH   3  18
ATOM     18  C   UNL     1       3.394   6.843  17.825  0.00  0.00    +0.000 C 
BRANCH  18  19
ATOM     19  C   UNL     1       2.620   5.730  18.484  0.00  0.00    +0.000 A 
ATOM     20  C   UNL     1       2.035   4.701  17.707  0.00  0.00    +0.000 A 
ATOM     21  C   UNL     1       1.512   3.552  18.311  0.00  0.00    +0.000 A 
ATOM     22  C   UNL     1       1.633   3.449  19.676  0.00  0.00    +0.000 A 
ATOM     23  C   UNL     1       2.152   4.470  20.442  0.00  0.00    +0.000 A 
ATOM     24  C   UNL     1       2.618   5.636  19.884  0.00  0.00    +0.000 A 
ATOM     25  O   UNL     1       2.250   4.130  21.757  0.00  0.00    +0.000 OA
ATOM     26  C   UNL     1       2.062   2.706  21.636  0.00  0.00    +0.000 C 
ATOM     27  O   UNL     1       1.361   2.344  20.428  0.00  0.00    +0.000 OA
ENDBRANCH  18  19
ENDBRANCH   3  18
TORSDOF 7
ENDMDL
MODEL 2
REMARK VINA RESULT:      -8.1      2.899      7.502
REMARK  Name = 
REMARK  9 active torsions:
REMARK  status: ('A' for Active; 'I' for Inactive)
REMARK    1  A    between atoms: C_1  and  C_2
REMARK    2  A    between atoms: C_2  and  C_3
REMARK    3  A    between atoms: C_3  and  N_4
REMARK    4  A    between atoms: C_3  and  C_13
REMARK    5  A    between atoms: N_4  and  C_5
REMARK    6  A    between atoms: C_9  and  O_10
REMARK    7  A    between atoms: O_10  and  C_11
REMARK    8  A    between atoms: N_15  and  C_16
REMARK    9  A    between atoms: C_16  and  C_17
REMARK                            x       y       z     vdW  Elec       q    Type
REMARK                         _______ _______ _______ _____ _____    ______ ____
ROOT
ATOM      1  C   UNL     1       1.867   4.036  18.413  0.00  0.00    +0.000 C 
ATOM      2  O   UNL     1       1.198   4.041  17.383  0.00  0.00    +0.000 OA
ATOM      3  N   UNL     1       3.133   3.495  18.482  0.00  0.00    +0.000 N 
ATOM      4  H   UNL     1       3.680   3.793  19.286  0.00  0.00    +0.000 HD
ENDROOT
BRANCH   1   5
ATOM      5  C   UNL     1       1.306   4.578  19.750  0.00  0.00    +0.000 C 
BRANCH   5   7
ATOM      6  C   UNL     1       2.267   3.475  21.824  0.00  0.00    +0.000 C 
ATOM      7  C   UNL     1       1.188   3.419  20.747  0.00  0.00    +0.000 C 
ENDBRANCH   5   7
BRANCH   5   8
ATOM      8  N   UNL     1       2.177   5.639  20.325  0.00  0.00    +0.000 N 
ATOM      9  H   UNL     1       2.172   5.643  21.345  0.00  0.00    +0.000 HD
BRANCH   8  10
ATOM     10  C   UNL     1       2.075   6.958  19.847  0.00  0.00    +0.000 A 
ATOM     11  C   UNL     1       2.535   7.237  18.553  0.00  0.00    +0.000 A 
ATOM     12  C   UNL     1       2.335   8.493  17.972  0.00  0.00    +0.000 A 
ATOM     13  C   UNL     1       1.656   9.487  18.676  0.00  0.00    +0.000 A 
ATOM     14  C   UNL     1       1.200   9.241  19.967  0.00  0.00    +0.000 A 
ATOM     15  C   UNL     1       1.431   7.988  20.544  0.00  0.00    +0.000 A 
BRANCH  14  16
ATOM     16  O   UNL     1       0.534  10.275  20.567  0.00  0.00    +0.000 OA
ATOM     17  C   UNL     1       0.637  11.550  19.936  0.00  0.00    +0.000 C 
ENDBRANCH  14  16
ENDBRANCH   8  10
ENDBRANCH   5   8
ENDBRANCH   1   5
BRANCH   3  18
ATOM     18  C   UNL     1       3.824   2.995  17.310  0.00  0.00    +0.000 C 
BRANCH  18  19
ATOM     19  C   UNL     1       5.020   3.860  17.007  0.00  0.00    +0.000 A 
ATOM     20  C   UNL     1       5.299   4.264  15.680  0.00  0.00    +0.000 A 
ATOM     21  C   UNL     1       6.264   5.242  15.413  0.00  0.00    +0.000 A 
ATOM     22  C   UNL     1       6.890   5.819  16.493  0.00  0.00    +0.000 A 
ATOM     23  C   UNL     1       6.661   5.391  17.783  0.00  0.00    +0.000 A 
ATOM     24  C   UNL     1       5.764   4.391  18.072  0.00  0.00    +0.000 A 
ATOM     25  O   UNL     1       7.325   6.147  18.701  0.00  0.00    +0.000 OA
ATOM     26  C   UNL     1       7.686   7.259  17.859  0.00  0.00    +0.000 C 
ATOM     27  O   UNL     1       7.713   6.905  16.461  0.00  0.00    +0.000 OA
ENDBRANCH  18  19
ENDBRANCH   3  18
TORSDOF 7
ENDMDL
MODEL 3
REMARK VINA RESULT:      -7.8      2.932      7.881
REMARK  Name = 
REMARK  9 active torsions:
REMARK  status: ('A' for Active; 'I' for Inactive)
REMARK    1  A    between atoms: C_1  and  C_2
REMARK    2  A    between atoms: C_2  and  C_3
REMARK    3  A    between atoms: C_3  and  N_4
REMARK    4  A    between atoms: C_3  and  C_13
REMARK    5  A    between atoms: N_4  and  C_5
REMARK    6  A    between atoms: C_9  and  O_10
REMARK    7  A    between atoms: O_10  and  C_11
REMARK    8  A    between atoms: N_15  and  C_16
REMARK    9  A    between atoms: C_16  and  C_17
REMARK                            x       y       z     vdW  Elec       q    Type
REMARK                         _______ _______ _______ _____ _____    ______ ____
ROOT
ATOM      1  C   UNL     1       2.268   4.238  18.886  0.00  0.00    +0.000 C 
ATOM      2  O   UNL     1       1.475   4.166  17.951  0.00  0.00    +0.000 OA
ATOM      3  N   UNL     1       3.502   3.623  18.874  0.00  0.00    +0.000 N 
ATOM      4  H   UNL     1       4.161   3.977  19.562  0.00  0.00    +0.000 HD
ENDROOT
BRANCH   1   5
ATOM      5  C   UNL     1       1.911   4.974  20.201  0.00  0.00    +0.000 C 
BRANCH   5   7
ATOM      6  C   UNL     1       1.253   2.834  21.395  0.00  0.00    +0.000 C 
ATOM      7  C   UNL     1       2.187   4.041  21.385  0.00  0.00    +0.000 C 
ENDBRANCH   5   7
BRANCH   5   8
ATOM      8  N   UNL     1       2.697   6.227  20.364  0.00  0.00    +0.000 N 
ATOM      9  H   UNL     1       2.975   6.395  21.330  0.00  0.00    +0.000 HD
BRANCH   8  10
ATOM     10  C   UNL     1       2.225   7.424  19.793  0.00  0.00    +0.000 A 
ATOM     11  C   UNL     1       2.492   7.669  18.439  0.00  0.00    +0.000 A 
ATOM     12  C   UNL     1       1.933   8.770  17.782  0.00  0.00    +0.000 A 
ATOM     13  C   UNL     1       1.084   9.636  18.471  0.00  0.00    +0.000 A 
ATOM     14  C   UNL     1       0.814   9.423  19.819  0.00  0.00    +0.000 A 
ATOM     15  C   UNL     1       1.400   8.332  20.468  0.00  0.00    +0.000 A 
BRANCH  14  16
ATOM     16  O   UNL     1      -0.042  10.321  20.400  0.00  0.00    +0.000 OA
ATOM     17  C   UNL     1       0.118  11.687  20.025  0.00  0.00    +0.000 C 
ENDBRANCH  14  16
ENDBRANCH   8  10
ENDBRANCH   5   8
ENDBRANCH   1   5
BRANCH   3  18
ATOM     18  C   UNL     1       4.010   2.939  17.702  0.00  0.00    +0.000 C 
BRANCH  18  19
ATOM     19  C   UNL     1       4.921   3.854  16.925  0.00  0.00    +0.000 A 
ATOM     20  C   UNL     1       5.935   4.590  17.582  0.00  0.00    +0.000 A 
ATOM     21  C   UNL     1       6.923   5.263  16.855  0.00  0.00    +0.000 A 
ATOM     22  C   UNL     1       6.889   5.139  15.485  0.00  0.00    +0.000 A 
ATOM     23  C   UNL     1       5.874   4.469  14.838  0.00  0.00    +0.000 A 
ATOM     24  C   UNL     1       4.856   3.850  15.522  0.00  0.00    +0.000 A 
ATOM     25  O   UNL     1       6.077   4.402  13.493  0.00  0.00    +0.000 OA
ATOM     26  C   UNL     1       7.464   4.793  13.454  0.00  0.00    +0.000 C 
ATOM     27  O   UNL     1       7.853   5.554  14.616  0.00  0.00    +0.000 OA
ENDBRANCH  18  19
ENDBRANCH   3  18
TORSDOF 7
ENDMDL
MODEL 4
REMARK VINA RESULT:      -7.7      3.120      7.843
REMARK  Name = 
REMARK  9 active torsions:
REMARK  status: ('A' for Active; 'I' for Inactive)
REMARK    1  A    between atoms: C_1  and  C_2
REMARK    2  A    between atoms: C_2  and  C_3
REMARK    3  A    between atoms: C_3  and  N_4
REMARK    4  A    between atoms: C_3  and  C_13
REMARK    5  A    between atoms: N_4  and  C_5
REMARK    6  A    between atoms: C_9  and  O_10
REMARK    7  A    between atoms: O_10  and  C_11
REMARK    8  A    between atoms: N_15  and  C_16
REMARK    9  A    between atoms: C_16  and  C_17
REMARK                            x       y       z     vdW  Elec       q    Type
REMARK                         _______ _______ _______ _____ _____    ______ ____
ROOT
ATOM      1  C   UNL     1       2.292   4.527  18.850  0.00  0.00    +0.000 C 
ATOM      2  O   UNL     1       1.761   4.935  17.821  0.00  0.00    +0.000 OA
ATOM      3  N   UNL     1       3.299   3.585  18.853  0.00  0.00    +0.000 N 
ATOM      4  H   UNL     1       3.836   3.538  19.715  0.00  0.00    +0.000 HD
ENDROOT
BRANCH   1   5
ATOM      5  C   UNL     1       1.818   4.990  20.249  0.00  0.00    +0.000 C 
BRANCH   5   7
ATOM      6  C   UNL     1       1.196   2.835  21.436  0.00  0.00    +0.000 C 
ATOM      7  C   UNL     1       2.235   3.943  21.288  0.00  0.00    +0.000 C 
ENDBRANCH   5   7
BRANCH   5   8
ATOM      8  N   UNL     1       2.395   6.312  20.619  0.00  0.00    +0.000 N 
ATOM      9  H   UNL     1       2.813   6.313  21.548  0.00  0.00    +0.000 HD
BRANCH   8  10
ATOM     10  C   UNL     1       1.628   7.479  20.443  0.00  0.00    +0.000 A 
ATOM     11  C   UNL     1       0.724   7.841  21.450  0.00  0.00    +0.000 A 
ATOM     12  C   UNL     1       0.037   9.059  21.397  0.00  0.00    +0.000 A 
ATOM     13  C   UNL     1       0.258   9.939  20.339  0.00  0.00    +0.000 A 
ATOM     14  C   UNL     1       1.141   9.598  19.319  0.00  0.00    +0.000 A 
ATOM     15  C   UNL     1       1.800   8.366  19.373  0.00  0.00    +0.000 A 
BRANCH  14  16
ATOM     16  O   UNL     1       1.299  10.535  18.334  0.00  0.00    +0.000 OA
ATOM     17  C   UNL     1       1.204  11.901  18.734  0.00  0.00    +0.000 C 
ENDBRANCH  14  16
ENDBRANCH   8  10
ENDBRANCH   5   8
ENDBRANCH   1   5
BRANCH   3  18
ATOM     18  C   UNL     1       3.893   3.087  17.628  0.00  0.00    +0.000 C 
BRANCH  18  19
ATOM     19  C   UNL     1       5.066   3.948  17.237  0.00  0.00    +0.000 A 
ATOM     20  C   UNL     1       5.248   4.351  15.893  0.00  0.00    +0.000 A 
ATOM     21  C   UNL     1       6.193   5.325  15.555  0.00  0.00    +0.000 A 
ATOM     22  C   UNL     1       6.899   5.900  16.585  0.00  0.00    +0.000 A 
ATOM     23  C   UNL     1       6.765   5.474  17.888  0.00  0.00    +0.000 A 
ATOM     24  C   UNL     1       5.889   4.477  18.243  0.00  0.00    +0.000 A 
ATOM     25  O   UNL     1       7.498   6.228  18.755  0.00  0.00    +0.000 OA
ATOM     26  C   UNL     1       7.800   7.339  17.887  0.00  0.00    +0.000 C 
ATOM     27  O   UNL     1       7.722   6.984  16.491  0.00  0.00    +0.000 OA
ENDBRANCH  18  19
ENDBRANCH   3  18
TORSDOF 7
ENDMDL
MODEL 5
REMARK VINA RESULT:      -7.7      0.996      1.598
REMARK  Name = 
REMARK  9 active torsions:
REMARK  status: ('A' for Active; 'I' for Inactive)
REMARK    1  A    between atoms: C_1  and  C_2
REMARK    2  A    between atoms: C_2  and  C_3
REMARK    3  A    between atoms: C_3  and  N_4
REMARK    4  A    between atoms: C_3  and  C_13
REMARK    5  A    between atoms: N_4  and  C_5
REMARK    6  A    between atoms: C_9  and  O_10
REMARK    7  A    between atoms: O_10  and  C_11
REMARK    8  A    between atoms: N_15  and  C_16
REMARK    9  A    between atoms: C_16  and  C_17
REMARK                            x       y       z     vdW  Elec       q    Type
REMARK                         _______ _______ _______ _____ _____    ______ ____
ROOT
ATOM      1  C   UNL     1       5.531   6.709  16.440  0.00  0.00    +0.000 C 
ATOM      2  O   UNL     1       4.907   6.936  15.407  0.00  0.00    +0.000 OA
ATOM      3  N   UNL     1       4.961   6.784  17.693  0.00  0.00    +0.000 N 
ATOM      4  H   UNL     1       5.484   6.315  18.428  0.00  0.00    +0.000 HD
ENDROOT
BRANCH   1   5
ATOM      5  C   UNL     1       7.046   6.391  16.422  0.00  0.00    +0.000 C 
BRANCH   5   7
ATOM      6  C   UNL     1       7.819   5.085  18.457  0.00  0.00    +0.000 C 
ATOM      7  C   UNL     1       7.588   6.468  17.854  0.00  0.00    +0.000 C 
ENDBRANCH   5   7
BRANCH   5   8
ATOM      8  N   UNL     1       7.320   5.040  15.861  0.00  0.00    +0.000 N 
ATOM      9  H   UNL     1       8.232   4.677  16.136  0.00  0.00    +0.000 HD
BRANCH   8  10
ATOM     10  C   UNL     1       7.108   4.800  14.491  0.00  0.00    +0.000 A 
ATOM     11  C   UNL     1       7.894   5.493  13.562  0.00  0.00    +0.000 A 
ATOM     12  C   UNL     1       7.826   5.196  12.196  0.00  0.00    +0.000 A 
ATOM     13  C   UNL     1       6.977   4.188  11.743  0.00  0.00    +0.000 A 
ATOM     14  C   UNL     1       6.176   3.493  12.643  0.00  0.00    +0.000 A 
ATOM     15  C   UNL     1       6.236   3.818  14.001  0.00  0.00    +0.000 A 
BRANCH  14  16
ATOM     16  O   UNL     1       5.389   2.513  12.100  0.00  0.00    +0.000 OA
ATOM     17  C   UNL     1       6.048   1.542  11.291  0.00  0.00    +0.000 C 
ENDBRANCH  14  16
ENDBRANCH   8  10
ENDBRANCH   5   8
ENDBRANCH   1   5
BRANCH   3  18
ATOM     18  C   UNL     1       3.543   7.019  17.883  0.00  0.00    +0.000 C 
BRANCH  18  19
ATOM     19  C   UNL     1       2.922   5.862  18.622  0.00  0.00    +0.000 A 
ATOM     20  C   UNL     1       2.301   6.058  19.878  0.00  0.00    +0.000 A 
ATOM     21  C   UNL     1       1.530   5.049  20.466  0.00  0.00    +0.000 A 
ATOM     22  C   UNL     1       1.368   3.885  19.752  0.00  0.00    +0.000 A 
ATOM     23  C   UNL     1       2.014   3.668  18.555  0.00  0.00    +0.000 A 
ATOM     24  C   UNL     1       2.827   4.616  17.981  0.00  0.00    +0.000 A 
ATOM     25  O   UNL     1       1.654   2.486  17.982  0.00  0.00    +0.000 OA
ATOM     26  C   UNL     1       0.490   2.194  18.781  0.00  0.00    +0.000 C 
ATOM     27  O   UNL     1       0.516   2.866  20.057  0.00  0.00    +0.000 OA
ENDBRANCH  18  19
ENDBRANCH   3  18
TORSDOF 7
ENDMDL
MODEL 6
REMARK VINA RESULT:      -7.6      3.327      7.735
REMARK  Name = 
REMARK  9 active torsions:
REMARK  status: ('A' for Active; 'I' for Inactive)
REMARK    1  A    between atoms: C_1  and  C_2
REMARK    2  A    between atoms: C_2  and  C_3
REMARK    3  A    between atoms: C_3  and  N_4
REMARK    4  A    between atoms: C_3  and  C_13
REMARK    5  A    between atoms: N_4  and  C_5
REMARK    6  A    between atoms: C_9  and  O_10
REMARK    7  A    between atoms: O_10  and  C_11
REMARK    8  A    between atoms: N_15  and  C_16
REMARK    9  A    between atoms: C_16  and  C_17
REMARK                            x       y       z     vdW  Elec       q    Type
REMARK                         _______ _______ _______ _____ _____    ______ ____
ROOT
ATOM      1  C   UNL     1       2.779   3.947  18.908  0.00  0.00    +0.000 C 
ATOM      2  O   UNL     1       2.535   3.294  17.897  0.00  0.00    +0.000 OA
ATOM      3  N   UNL     1       4.056   4.125  19.397  0.00  0.00    +0.000 N 
ATOM      4  H   UNL     1       4.156   4.892  20.057  0.00  0.00    +0.000 HD
ENDROOT
BRANCH   1   5
ATOM      5  C   UNL     1       1.651   4.567  19.768  0.00  0.00    +0.000 C 
BRANCH   5   7
ATOM      6  C   UNL     1       2.074   3.189  21.857  0.00  0.00    +0.000 C 
ATOM      7  C   UNL     1       1.104   3.497  20.720  0.00  0.00    +0.000 C 
ENDBRANCH   5   7
BRANCH   5   8
ATOM      8  N   UNL     1       2.135   5.732  20.558  0.00  0.00    +0.000 N 
ATOM      9  H   UNL     1       1.820   5.708  21.527  0.00  0.00    +0.000 HD
BRANCH   8  10
ATOM     10  C   UNL     1       1.983   7.033  20.043  0.00  0.00    +0.000 A 
ATOM     11  C   UNL     1       2.425   7.290  18.738  0.00  0.00    +0.000 A 
ATOM     12  C   UNL     1       2.177   8.522  18.124  0.00  0.00    +0.000 A 
ATOM     13  C   UNL     1       1.468   9.511  18.804  0.00  0.00    +0.000 A 
ATOM     14  C   UNL     1       1.029   9.286  20.105  0.00  0.00    +0.000 A 
ATOM     15  C   UNL     1       1.307   8.059  20.715  0.00  0.00    +0.000 A 
BRANCH  14  16
ATOM     16  O   UNL     1       0.331  10.313  20.681  0.00  0.00    +0.000 OA
ATOM     17  C   UNL     1      -0.504  11.079  19.815  0.00  0.00    +0.000 C 
ENDBRANCH  14  16
ENDBRANCH   8  10
ENDBRANCH   5   8
ENDBRANCH   1   5
BRANCH   3  18
ATOM     18  C   UNL     1       5.227   3.654  18.685  0.00  0.00    +0.000 C 
BRANCH  18  19
ATOM     19  C   UNL     1       5.948   4.816  18.052  0.00  0.00    +0.000 A 
ATOM     20  C   UNL     1       5.391   5.489  16.938  0.00  0.00    +0.000 A 
ATOM     21  C   UNL     1       5.930   6.698  16.485  0.00  0.00    +0.000 A 
ATOM     22  C   UNL     1       6.988   7.219  17.192  0.00  0.00    +0.000 A 
ATOM     23  C   UNL     1       7.567   6.543  18.243  0.00  0.00    +0.000 A 
ATOM     24  C   UNL     1       7.099   5.325  18.673  0.00  0.00    +0.000 A 
ATOM     25  O   UNL     1       8.546   7.271  18.848  0.00  0.00    +0.000 OA
ATOM     26  C   UNL     1       8.253   8.561  18.276  0.00  0.00    +0.000 C 
ATOM     27  O   UNL     1       7.530   8.460  17.032  0.00  0.00    +0.000 OA
ENDBRANCH  18  19
ENDBRANCH   3  18
TORSDOF 7
ENDMDL
MODEL 7
REMARK VINA RESULT:      -7.6      3.341      8.291
REMARK  Name = 
REMARK  9 active torsions:
REMARK  status: ('A' for Active; 'I' for Inactive)
REMARK    1  A    between atoms: C_1  and  C_2
REMARK    2  A    between atoms: C_2  and  C_3
REMARK    3  A    between atoms: C_3  and  N_4
REMARK    4  A    between atoms: C_3  and  C_13
REMARK    5  A    between atoms: N_4  and  C_5
REMARK    6  A    between atoms: C_9  and  O_10
REMARK    7  A    between atoms: O_10  and  C_11
REMARK    8  A    between atoms: N_15  and  C_16
REMARK    9  A    between atoms: C_16  and  C_17
REMARK                            x       y       z     vdW  Elec       q    Type
REMARK                         _______ _______ _______ _____ _____    ______ ____
ROOT
ATOM      1  C   UNL     1       2.413   4.780  18.782  0.00  0.00    +0.000 C 
ATOM      2  O   UNL     1       2.047   5.285  17.724  0.00  0.00    +0.000 OA
ATOM      3  N   UNL     1       3.257   3.691  18.841  0.00  0.00    +0.000 N 
ATOM      4  H   UNL     1       3.700   3.544  19.745  0.00  0.00    +0.000 HD
ENDROOT
BRANCH   1   5
ATOM      5  C   UNL     1       1.891   5.285  20.148  0.00  0.00    +0.000 C 
BRANCH   5   7
ATOM      6  C   UNL     1       1.130   3.167  21.320  0.00  0.00    +0.000 C 
ATOM      7  C   UNL     1       2.212   4.239  21.222  0.00  0.00    +0.000 C 
ENDBRANCH   5   7
BRANCH   5   8
ATOM      8  N   UNL     1       2.505   6.587  20.527  0.00  0.00    +0.000 N 
ATOM      9  H   UNL     1       3.100   6.517  21.352  0.00  0.00    +0.000 HD
BRANCH   8  10
ATOM     10  C   UNL     1       1.697   7.735  20.623  0.00  0.00    +0.000 A 
ATOM     11  C   UNL     1       1.534   8.534  19.484  0.00  0.00    +0.000 A 
ATOM     12  C   UNL     1       0.635   9.607  19.479  0.00  0.00    +0.000 A 
ATOM     13  C   UNL     1      -0.125   9.886  20.614  0.00  0.00    +0.000 A 
ATOM     14  C   UNL     1       0.027   9.115  21.763  0.00  0.00    +0.000 A 
ATOM     15  C   UNL     1       0.947   8.063  21.761  0.00  0.00    +0.000 A 
BRANCH  14  16
ATOM     16  O   UNL     1      -0.775   9.461  22.818  0.00  0.00    +0.000 OA
ATOM     17  C   UNL     1      -1.130  10.837  22.923  0.00  0.00    +0.000 C 
ENDBRANCH  14  16
ENDBRANCH   8  10
ENDBRANCH   5   8
ENDBRANCH   1   5
BRANCH   3  18
ATOM     18  C   UNL     1       3.876   3.129  17.657  0.00  0.00    +0.000 C 
BRANCH  18  19
ATOM     19  C   UNL     1       5.062   3.965  17.249  0.00  0.00    +0.000 A 
ATOM     20  C   UNL     1       5.238   4.358  15.901  0.00  0.00    +0.000 A 
ATOM     21  C   UNL     1       6.199   5.311  15.548  0.00  0.00    +0.000 A 
ATOM     22  C   UNL     1       6.928   5.876  16.568  0.00  0.00    +0.000 A 
ATOM     23  C   UNL     1       6.799   5.458  17.875  0.00  0.00    +0.000 A 
ATOM     24  C   UNL     1       5.907   4.481  18.244  0.00  0.00    +0.000 A 
ATOM     25  O   UNL     1       7.556   6.201  18.730  0.00  0.00    +0.000 OA
ATOM     26  C   UNL     1       7.871   7.301  17.854  0.00  0.00    +0.000 C 
ATOM     27  O   UNL     1       7.771   6.942  16.461  0.00  0.00    +0.000 OA
ENDBRANCH  18  19
ENDBRANCH   3  18
TORSDOF 7
ENDMDL
MODEL 8
REMARK VINA RESULT:      -7.5      3.992      5.982
REMARK  Name = 
REMARK  9 active torsions:
REMARK  status: ('A' for Active; 'I' for Inactive)
REMARK    1  A    between atoms: C_1  and  C_2
REMARK    2  A    between atoms: C_2  and  C_3
REMARK    3  A    between atoms: C_3  and  N_4
REMARK    4  A    between atoms: C_3  and  C_13
REMARK    5  A    between atoms: N_4  and  C_5
REMARK    6  A    between atoms: C_9  and  O_10
REMARK    7  A    between atoms: O_10  and  C_11
REMARK    8  A    between atoms: N_15  and  C_16
REMARK    9  A    between atoms: C_16  and  C_17
REMARK                            x       y       z     vdW  Elec       q    Type
REMARK                         _______ _______ _______ _____ _____    ______ ____
ROOT
ATOM      1  C   UNL     1       2.327   5.634  18.872  0.00  0.00    +0.000 C 
ATOM      2  O   UNL     1       1.809   5.567  17.761  0.00  0.00    +0.000 OA
ATOM      3  N   UNL     1       2.538   6.827  19.531  0.00  0.00    +0.000 N 
ATOM      4  H   UNL     1       2.709   6.738  20.529  0.00  0.00    +0.000 HD
ENDROOT
BRANCH   1   5
ATOM      5  C   UNL     1       2.858   4.376  19.600  0.00  0.00    +0.000 C 
BRANCH   5   7
ATOM      6  C   UNL     1       1.461   3.186  21.354  0.00  0.00    +0.000 C 
ATOM      7  C   UNL     1       1.687   3.421  19.863  0.00  0.00    +0.000 C 
ENDBRANCH   5   7
BRANCH   5   8
ATOM      8  N   UNL     1       3.900   3.674  18.802  0.00  0.00    +0.000 N 
ATOM      9  H   UNL     1       4.145   2.763  19.189  0.00  0.00    +0.000 HD
BRANCH   8  10
ATOM     10  C   UNL     1       5.070   4.361  18.429  0.00  0.00    +0.000 A 
ATOM     11  C   UNL     1       5.766   5.078  19.411  0.00  0.00    +0.000 A 
ATOM     12  C   UNL     1       7.005   5.664  19.133  0.00  0.00    +0.000 A 
ATOM     13  C   UNL     1       7.573   5.527  17.867  0.00  0.00    +0.000 A 
ATOM     14  C   UNL     1       6.897   4.831  16.870  0.00  0.00    +0.000 A 
ATOM     15  C   UNL     1       5.648   4.273  17.156  0.00  0.00    +0.000 A 
BRANCH  14  16
ATOM     16  O   UNL     1       7.546   4.741  15.667  0.00  0.00    +0.000 OA
ATOM     17  C   UNL     1       6.726   4.740  14.501  0.00  0.00    +0.000 C 
ENDBRANCH  14  16
ENDBRANCH   8  10
ENDBRANCH   5   8
ENDBRANCH   1   5
BRANCH   3  18
ATOM     18  C   UNL     1       2.054   8.091  19.012  0.00  0.00    +0.000 C 
BRANCH  18  19
ATOM     19  C   UNL     1       1.209   8.785  20.049  0.00  0.00    +0.000 A 
ATOM     20  C   UNL     1       1.194   8.330  21.389  0.00  0.00    +0.000 A 
ATOM     21  C   UNL     1       0.598   9.090  22.401  0.00  0.00    +0.000 A 
ATOM     22  C   UNL     1       0.073  10.310  22.044  0.00  0.00    +0.000 A 
ATOM     23  C   UNL     1       0.036  10.733  20.733  0.00  0.00    +0.000 A 
ATOM     24  C   UNL     1       0.558   9.981  19.709  0.00  0.00    +0.000 A 
ATOM     25  O   UNL     1      -0.456  11.998  20.614  0.00  0.00    +0.000 OA
ATOM     26  C   UNL     1      -0.383  12.399  21.996  0.00  0.00    +0.000 C 
ATOM     27  O   UNL     1      -0.379  11.273  22.897  0.00  0.00    +0.000 OA
ENDBRANCH  18  19
ENDBRANCH   3  18
TORSDOF 7
ENDMDL
MODEL 9
REMARK VINA RESULT:      -7.5      2.690      5.731
REMARK  Name = 
REMARK  9 active torsions:
REMARK  status: ('A' for Active; 'I' for Inactive)
REMARK    1  A    between atoms: C_1  and  C_2
REMARK    2  A    between atoms: C_2  and  C_3
REMARK    3  A    between atoms: C_3  and  N_4
REMARK    4  A    between atoms: C_3  and  C_13
REMARK    5  A    between atoms: N_4  and  C_5
REMARK    6  A    between atoms: C_9  and  O_10
REMARK    7  A    between atoms: O_10  and  C_11
REMARK    8  A    between atoms: N_15  and  C_16
REMARK    9  A    between atoms: C_16  and  C_17
REMARK                            x       y       z     vdW  Elec       q    Type
REMARK                         _______ _______ _______ _____ _____    ______ ____
ROOT
ATOM      1  C   UNL     1       5.230   6.209  16.622  0.00  0.00    +0.000 C 
ATOM      2  O   UNL     1       6.098   7.070  16.505  0.00  0.00    +0.000 OA
ATOM      3  N   UNL     1       3.940   6.493  17.018  0.00  0.00    +0.000 N 
ATOM      4  H   UNL     1       3.261   5.764  16.812  0.00  0.00    +0.000 HD
ENDROOT
BRANCH   1   5
ATOM      5  C   UNL     1       5.538   4.708  16.403  0.00  0.00    +0.000 C 
BRANCH   5   7
ATOM      6  C   UNL     1       6.695   4.432  14.161  0.00  0.00    +0.000 C 
ATOM      7  C   UNL     1       6.878   4.577  15.669  0.00  0.00    +0.000 C 
ENDBRANCH   5   7
BRANCH   5   8
ATOM      8  N   UNL     1       5.603   3.964  17.690  0.00  0.00    +0.000 N 
ATOM      9  H   UNL     1       6.344   3.264  17.703  0.00  0.00    +0.000 HD
BRANCH   8  10
ATOM     10  C   UNL     1       4.427   3.418  18.238  0.00  0.00    +0.000 A 
ATOM     11  C   UNL     1       3.495   2.833  17.371  0.00  0.00    +0.000 A 
ATOM     12  C   UNL     1       2.378   2.153  17.867  0.00  0.00    +0.000 A 
ATOM     13  C   UNL     1       2.185   2.038  19.243  0.00  0.00    +0.000 A 
ATOM     14  C   UNL     1       3.089   2.621  20.126  0.00  0.00    +0.000 A 
ATOM     15  C   UNL     1       4.187   3.319  19.615  0.00  0.00    +0.000 A 
BRANCH  14  16
ATOM     16  O   UNL     1       2.818   2.439  21.456  0.00  0.00    +0.000 OA
ATOM     17  C   UNL     1       1.555   2.909  21.919  0.00  0.00    +0.000 C 
ENDBRANCH  14  16
ENDBRANCH   8  10
ENDBRANCH   5   8
ENDBRANCH   1   5
BRANCH   3  18
ATOM     18  C   UNL     1       3.474   7.851  17.212  0.00  0.00    +0.000 C 
BRANCH  18  19
ATOM     19  C   UNL     1       2.526   7.909  18.382  0.00  0.00    +0.000 A 
ATOM     20  C   UNL     1       2.530   6.890  19.364  0.00  0.00    +0.000 A 
ATOM     21  C   UNL     1       1.822   7.041  20.562  0.00  0.00    +0.000 A 
ATOM     22  C   UNL     1       1.166   8.234  20.758  0.00  0.00    +0.000 A 
ATOM     23  C   UNL     1       1.114   9.206  19.784  0.00  0.00    +0.000 A 
ATOM     24  C   UNL     1       1.747   9.062  18.573  0.00  0.00    +0.000 A 
ATOM     25  O   UNL     1       0.479  10.332  20.213  0.00  0.00    +0.000 OA
ATOM     26  C   UNL     1       0.468  10.059  21.628  0.00  0.00    +0.000 C 
ATOM     27  O   UNL     1       0.582   8.650  21.917  0.00  0.00    +0.000 OA
ENDBRANCH  18  19
ENDBRANCH   3  18
TORSDOF 7
ENDMDL
