MODEL 1
REMARK VINA RESULT:      -8.1      0.000      0.000
REMARK  Name = 
REMARK  10 active torsions:
REMARK  status: ('A' for Active; 'I' for Inactive)
REMARK    1  A    between atoms: C_1  and  O_2
REMARK    2  A    between atoms: O_2  and  C_3
REMARK    3  A    between atoms: C_3  and  C_4
REMARK    4  A    between atoms: C_4  and  N_5
REMARK    5  A    between atoms: C_6  and  C_8
REMARK    6  A    between atoms: C_8  and  S_9
REMARK    7  A    between atoms: S_9  and  C_10
REMARK    8  A    between atoms: C_12  and  C_13
REMARK    9  A    between atoms: C_22  and  O_23
REMARK   10  A    between atoms: O_23  and  C_24
REMARK                            x       y       z     vdW  Elec       q    Type
REMARK                         _______ _______ _______ _____ _____    ______ ____
ROOT
ATOM      1  C   UNL     1       2.741   8.130  17.893  0.00  0.00    +0.000 A 
ATOM      2  C   UNL     1       2.236   7.098  18.669  0.00  0.00    +0.000 A 
ATOM      3  C   UNL     1       2.802   5.811  18.599  0.00  0.00    +0.000 A 
ATOM      4  C   UNL     1       3.893   5.629  17.692  0.00  0.00    +0.000 A 
ATOM      5  C   UNL     1       4.515   4.388  17.410  0.00  0.00    +0.000 A 
ATOM      6  C   UNL     1       5.648   4.286  16.600  0.00  0.00    +0.000 A 
ATOM      7  C   UNL     1       6.163   5.423  16.004  0.00  0.00    +0.000 A 
ATOM      8  C   UNL     1       5.508   6.643  16.200  0.00  0.00    +0.000 A 
ATOM      9  C   UNL     1       4.383   6.772  17.008  0.00  0.00    +0.000 A 
ATOM     10  N   UNL     1       3.812   7.980  17.095  0.00  0.00    +0.000 NA
ENDROOT
BRANCH   3  11
ATOM     11  C   UNL     1       2.250   4.732  19.478  0.00  0.00    +0.000 A 
ATOM     12  C   UNL     1       2.670   4.586  20.814  0.00  0.00    +0.000 A 
ATOM     13  C   UNL     1       2.161   3.576  21.642  0.00  0.00    +0.000 A 
ATOM     14  C   UNL     1       1.187   2.706  21.167  0.00  0.00    +0.000 A 
ATOM     15  C   UNL     1       0.759   2.815  19.848  0.00  0.00    +0.000 A 
ATOM     16  C   UNL     1       1.314   3.788  19.009  0.00  0.00    +0.000 A 
ENDBRANCH   3  11
BRANCH   7  17
ATOM     17  O   UNL     1       7.267   5.472  15.199  0.00  0.00    +0.000 OA
ATOM     18  C   UNL     1       7.165   4.824  13.935  0.00  0.00    +0.000 C 
ENDBRANCH   7  17
BRANCH   1  19
ATOM     19  S   UNL     1       1.903   9.712  17.917  0.00  0.00    +0.000 S 
BRANCH  19  20
ATOM     20  C   UNL     1       0.792   9.479  19.342  0.00  0.00    +0.000 C 
BRANCH  20  22
ATOM     21  N   UNL     1      -0.784  10.818  18.019  0.00  0.00    +0.000 N 
ATOM     22  C   UNL     1      -0.361  10.467  19.291  0.00  0.00    +0.000 C 
ATOM     23  O   UNL     1      -0.836  10.975  20.308  0.00  0.00    +0.000 OA
ATOM     24  H   UNL     1      -0.618  10.136  17.286  0.00  0.00    +0.000 HD
BRANCH  21  25
ATOM     25  C   UNL     1      -1.941  11.682  17.854  0.00  0.00    +0.000 C 
BRANCH  25  26
ATOM     26  C   UNL     1      -3.018  11.054  16.970  0.00  0.00    +0.000 C 
BRANCH  26  28
ATOM     27  C   UNL     1      -3.046  10.078  14.821  0.00  0.00    +0.000 C 
ATOM     28  O   UNL     1      -2.634  11.194  15.599  0.00  0.00    +0.000 OA
ENDBRANCH  26  28
ENDBRANCH  25  26
ENDBRANCH  21  25
ENDBRANCH  20  22
ENDBRANCH  19  20
ENDBRANCH   1  19
TORSDOF 8
ENDMDL
MODEL 2
REMARK VINA RESULT:      -8.0      0.574      1.088
REMARK  Name = 
REMARK  10 active torsions:
REMARK  status: ('A' for Active; 'I' for Inactive)
REMARK    1  A    between atoms: C_1  and  O_2
REMARK    2  A    between atoms: O_2  and  C_3
REMARK    3  A    between atoms: C_3  and  C_4
REMARK    4  A    between atoms: C_4  and  N_5
REMARK    5  A    between atoms: C_6  and  C_8
REMARK    6  A    between atoms: C_8  and  S_9
REMARK    7  A    between atoms: S_9  and  C_10
REMARK    8  A    between atoms: C_12  and  C_13
REMARK    9  A    between atoms: C_22  and  O_23
REMARK   10  A    between atoms: O_23  and  C_24
REMARK                            x       y       z     vdW  Elec       q    Type
REMARK                         _______ _______ _______ _____ _____    ______ ____
ROOT
ATOM      1  C   UNL     1       2.760   8.201  17.912  0.00  0.00    +0.000 A 
ATOM      2  C   UNL     1       2.287   7.178  18.720  0.00  0.00    +0.000 A 
ATOM      3  C   UNL     1       2.728   5.856  18.527  0.00  0.00    +0.000 A 
ATOM      4  C   UNL     1       3.661   5.629  17.465  0.00  0.00    +0.000 A 
ATOM      5  C   UNL     1       4.131   4.358  17.056  0.00  0.00    +0.000 A 
ATOM      6  C   UNL     1       5.124   4.204  16.087  0.00  0.00    +0.000 A 
ATOM      7  C   UNL     1       5.642   5.322  15.459  0.00  0.00    +0.000 A 
ATOM      8  C   UNL     1       5.125   6.580  15.788  0.00  0.00    +0.000 A 
ATOM      9  C   UNL     1       4.141   6.760  16.755  0.00  0.00    +0.000 A 
ATOM     10  N   UNL     1       3.690   8.003  16.962  0.00  0.00    +0.000 NA
ENDROOT
BRANCH   3  11
ATOM     11  C   UNL     1       2.220   4.785  19.441  0.00  0.00    +0.000 A 
ATOM     12  C   UNL     1       1.279   3.832  19.005  0.00  0.00    +0.000 A 
ATOM     13  C   UNL     1       0.796   2.829  19.856  0.00  0.00    +0.000 A 
ATOM     14  C   UNL     1       1.270   2.727  21.159  0.00  0.00    +0.000 A 
ATOM     15  C   UNL     1       2.191   3.658  21.625  0.00  0.00    +0.000 A 
ATOM     16  C   UNL     1       2.626   4.694  20.788  0.00  0.00    +0.000 A 
ENDBRANCH   3  11
BRANCH   7  17
ATOM     17  O   UNL     1       6.620   5.321  14.504  0.00  0.00    +0.000 OA
ATOM     18  C   UNL     1       6.752   4.135  13.727  0.00  0.00    +0.000 C 
ENDBRANCH   7  17
BRANCH   1  19
ATOM     19  S   UNL     1       2.068   9.841  18.109  0.00  0.00    +0.000 S 
BRANCH  19  20
ATOM     20  C   UNL     1       0.720   9.495  19.285  0.00  0.00    +0.000 C 
BRANCH  20  22
ATOM     21  N   UNL     1      -0.924  10.276  17.639  0.00  0.00    +0.000 N 
ATOM     22  C   UNL     1      -0.505  10.331  18.959  0.00  0.00    +0.000 C 
ATOM     23  O   UNL     1      -1.043  11.060  19.792  0.00  0.00    +0.000 OA
ATOM     24  H   UNL     1      -0.687   9.433  17.127  0.00  0.00    +0.000 HD
BRANCH  21  25
ATOM     25  C   UNL     1      -2.141  10.962  17.237  0.00  0.00    +0.000 C 
BRANCH  25  26
ATOM     26  C   UNL     1      -2.963  10.152  16.235  0.00  0.00    +0.000 C 
BRANCH  26  28
ATOM     27  C   UNL     1      -3.440  10.052  13.926  0.00  0.00    +0.000 C 
ATOM     28  O   UNL     1      -2.491  10.430  14.913  0.00  0.00    +0.000 OA
ENDBRANCH  26  28
ENDBRANCH  25  26
ENDBRANCH  21  25
ENDBRANCH  20  22
ENDBRANCH  19  20
ENDBRANCH   1  19
TORSDOF 8
ENDMDL
MODEL 3
REMARK VINA RESULT:      -7.8      0.802      1.246
REMARK  Name = 
REMARK  10 active torsions:
REMARK  status: ('A' for Active; 'I' for Inactive)
REMARK    1  A    between atoms: C_1  and  O_2
REMARK    2  A    between atoms: O_2  and  C_3
REMARK    3  A    between atoms: C_3  and  C_4
REMARK    4  A    between atoms: C_4  and  N_5
REMARK    5  A    between atoms: C_6  and  C_8
REMARK    6  A    between atoms: C_8  and  S_9
REMARK    7  A    between atoms: S_9  and  C_10
REMARK    8  A    between atoms: C_12  and  C_13
REMARK    9  A    between atoms: C_22  and  O_23
REMARK   10  A    between atoms: O_23  and  C_24
REMARK                            x       y       z     vdW  Elec       q    Type
REMARK                         _______ _______ _______ _____ _____    ______ ____
ROOT
ATOM      1  C   UNL     1       2.794   8.076  17.967  0.00  0.00    +0.000 A 
ATOM      2  C   UNL     1       2.270   7.050  18.739  0.00  0.00    +0.000 A 
ATOM      3  C   UNL     1       2.814   5.754  18.667  0.00  0.00    +0.000 A 
ATOM      4  C   UNL     1       3.906   5.556  17.763  0.00  0.00    +0.000 A 
ATOM      5  C   UNL     1       4.508   4.307  17.479  0.00  0.00    +0.000 A 
ATOM      6  C   UNL     1       5.642   4.188  16.674  0.00  0.00    +0.000 A 
ATOM      7  C   UNL     1       6.178   5.318  16.082  0.00  0.00    +0.000 A 
ATOM      8  C   UNL     1       5.543   6.548  16.280  0.00  0.00    +0.000 A 
ATOM      9  C   UNL     1       4.417   6.693  17.084  0.00  0.00    +0.000 A 
ATOM     10  N   UNL     1       3.866   7.910  17.172  0.00  0.00    +0.000 NA
ENDROOT
BRANCH   3  11
ATOM     11  C   UNL     1       2.242   4.682  19.540  0.00  0.00    +0.000 A 
ATOM     12  C   UNL     1       1.298   3.759  19.049  0.00  0.00    +0.000 A 
ATOM     13  C   UNL     1       0.755   2.755  19.861  0.00  0.00    +0.000 A 
ATOM     14  C   UNL     1       1.170   2.621  21.181  0.00  0.00    +0.000 A 
ATOM     15  C   UNL     1       2.091   3.523  21.702  0.00  0.00    +0.000 A 
ATOM     16  C   UNL     1       2.586   4.560  20.902  0.00  0.00    +0.000 A 
ENDBRANCH   3  11
BRANCH   7  17
ATOM     17  O   UNL     1       7.286   5.350  15.281  0.00  0.00    +0.000 OA
ATOM     18  C   UNL     1       7.114   4.913  13.937  0.00  0.00    +0.000 C 
ENDBRANCH   7  17
BRANCH   1  19
ATOM     19  S   UNL     1       1.983   9.672  17.993  0.00  0.00    +0.000 S 
BRANCH  19  20
ATOM     20  C   UNL     1       0.819   9.432  19.374  0.00  0.00    +0.000 C 
BRANCH  20  22
ATOM     21  N   UNL     1      -0.699  10.911  18.136  0.00  0.00    +0.000 N 
ATOM     22  C   UNL     1      -0.236  10.524  19.383  0.00  0.00    +0.000 C 
ATOM     23  O   UNL     1      -0.600  11.077  20.422  0.00  0.00    +0.000 OA
ATOM     24  H   UNL     1      -0.642  10.215  17.399  0.00  0.00    +0.000 HD
BRANCH  21  25
ATOM     25  C   UNL     1      -1.776  11.882  18.032  0.00  0.00    +0.000 C 
BRANCH  25  26
ATOM     26  C   UNL     1      -3.157  11.228  18.078  0.00  0.00    +0.000 C 
BRANCH  26  28
ATOM     27  C   UNL     1      -5.307  11.699  17.226  0.00  0.00    +0.000 C 
ATOM     28  O   UNL     1      -3.915  11.661  16.944  0.00  0.00    +0.000 OA
ENDBRANCH  26  28
ENDBRANCH  25  26
ENDBRANCH  21  25
ENDBRANCH  20  22
ENDBRANCH  19  20
ENDBRANCH   1  19
TORSDOF 8
ENDMDL
MODEL 4
REMARK VINA RESULT:      -7.6      1.467      2.670
REMARK  Name = 
REMARK  10 active torsions:
REMARK  status: ('A' for Active; 'I' for Inactive)
REMARK    1  A    between atoms: C_1  and  O_2
REMARK    2  A    between atoms: O_2  and  C_3
REMARK    3  A    between atoms: C_3  and  C_4
REMARK    4  A    between atoms: C_4  and  N_5
REMARK    5  A    between atoms: C_6  and  C_8
REMARK    6  A    between atoms: C_8  and  S_9
REMARK    7  A    between atoms: S_9  and  C_10
REMARK    8  A    between atoms: C_12  and  C_13
REMARK    9  A    between atoms: C_22  and  O_23
REMARK   10  A    between atoms: O_23  and  C_24
REMARK                            x       y       z     vdW  Elec       q    Type
REMARK                         _______ _______ _______ _____ _____    ______ ____
ROOT
ATOM      1  C   UNL     1       2.809   8.165  17.876  0.00  0.00    +0.000 A 
ATOM      2  C   UNL     1       2.279   7.137  18.640  0.00  0.00    +0.000 A 
ATOM      3  C   UNL     1       2.814   5.838  18.557  0.00  0.00    +0.000 A 
ATOM      4  C   UNL     1       3.902   5.640  17.649  0.00  0.00    +0.000 A 
ATOM      5  C   UNL     1       4.494   4.388  17.353  0.00  0.00    +0.000 A 
ATOM      6  C   UNL     1       5.625   4.268  16.544  0.00  0.00    +0.000 A 
ATOM      7  C   UNL     1       6.168   5.398  15.960  0.00  0.00    +0.000 A 
ATOM      8  C   UNL     1       5.542   6.632  16.170  0.00  0.00    +0.000 A 
ATOM      9  C   UNL     1       4.419   6.779  16.978  0.00  0.00    +0.000 A 
ATOM     10  N   UNL     1       3.877   7.999  17.077  0.00  0.00    +0.000 NA
ENDROOT
BRANCH   3  11
ATOM     11  C   UNL     1       2.236   4.763  19.423  0.00  0.00    +0.000 A 
ATOM     12  C   UNL     1       2.601   4.634  20.777  0.00  0.00    +0.000 A 
ATOM     13  C   UNL     1       2.067   3.628  21.593  0.00  0.00    +0.000 A 
ATOM     14  C   UNL     1       1.121   2.744  21.087  0.00  0.00    +0.000 A 
ATOM     15  C   UNL     1       0.747   2.836  19.751  0.00  0.00    +0.000 A 
ATOM     16  C   UNL     1       1.328   3.806  18.926  0.00  0.00    +0.000 A 
ENDBRANCH   3  11
BRANCH   7  17
ATOM     17  O   UNL     1       7.274   5.430  15.157  0.00  0.00    +0.000 OA
ATOM     18  C   UNL     1       7.143   4.838  13.868  0.00  0.00    +0.000 C 
ENDBRANCH   7  17
BRANCH   1  19
ATOM     19  S   UNL     1       2.009   9.767  17.917  0.00  0.00    +0.000 S 
BRANCH  19  20
ATOM     20  C   UNL     1       0.265   9.265  18.071  0.00  0.00    +0.000 C 
BRANCH  20  22
ATOM     21  N   UNL     1       0.090  10.782  19.992  0.00  0.00    +0.000 N 
ATOM     22  C   UNL     1      -0.526  10.303  18.847  0.00  0.00    +0.000 C 
ATOM     23  O   UNL     1      -1.665  10.640  18.521  0.00  0.00    +0.000 OA
ATOM     24  H   UNL     1       1.104  10.748  20.004  0.00  0.00    +0.000 HD
BRANCH  21  25
ATOM     25  C   UNL     1      -0.535  11.847  20.759  0.00  0.00    +0.000 C 
BRANCH  25  26
ATOM     26  C   UNL     1      -1.049  11.364  22.115  0.00  0.00    +0.000 C 
BRANCH  26  28
ATOM     27  C   UNL     1      -0.174   9.517  23.296  0.00  0.00    +0.000 C 
ATOM     28  O   UNL     1       0.052  10.856  22.876  0.00  0.00    +0.000 OA
ENDBRANCH  26  28
ENDBRANCH  25  26
ENDBRANCH  21  25
ENDBRANCH  20  22
ENDBRANCH  19  20
ENDBRANCH   1  19
TORSDOF 8
ENDMDL
MODEL 5
REMARK VINA RESULT:      -7.6      1.023      1.089
REMARK  Name = 
REMARK  10 active torsions:
REMARK  status: ('A' for Active; 'I' for Inactive)
REMARK    1  A    between atoms: C_1  and  O_2
REMARK    2  A    between atoms: O_2  and  C_3
REMARK    3  A    between atoms: C_3  and  C_4
REMARK    4  A    between atoms: C_4  and  N_5
REMARK    5  A    between atoms: C_6  and  C_8
REMARK    6  A    between atoms: C_8  and  S_9
REMARK    7  A    between atoms: S_9  and  C_10
REMARK    8  A    between atoms: C_12  and  C_13
REMARK    9  A    between atoms: C_22  and  O_23
REMARK   10  A    between atoms: O_23  and  C_24
REMARK                            x       y       z     vdW  Elec       q    Type
REMARK                         _______ _______ _______ _____ _____    ______ ____
ROOT
ATOM      1  C   UNL     1       2.609   8.172  17.984  0.00  0.00    +0.000 A 
ATOM      2  C   UNL     1       2.158   7.125  18.774  0.00  0.00    +0.000 A 
ATOM      3  C   UNL     1       2.672   5.827  18.598  0.00  0.00    +0.000 A 
ATOM      4  C   UNL     1       3.655   5.650  17.573  0.00  0.00    +0.000 A 
ATOM      5  C   UNL     1       4.204   4.405  17.181  0.00  0.00    +0.000 A 
ATOM      6  C   UNL     1       5.240   4.304  16.252  0.00  0.00    +0.000 A 
ATOM      7  C   UNL     1       5.725   5.448  15.644  0.00  0.00    +0.000 A 
ATOM      8  C   UNL     1       5.133   6.677  15.953  0.00  0.00    +0.000 A 
ATOM      9  C   UNL     1       4.104   6.805  16.881  0.00  0.00    +0.000 A 
ATOM     10  N   UNL     1       3.584   8.024  17.071  0.00  0.00    +0.000 NA
ENDROOT
BRANCH   3  11
ATOM     11  C   UNL     1       2.184   4.731  19.492  0.00  0.00    +0.000 A 
ATOM     12  C   UNL     1       2.631   4.613  20.823  0.00  0.00    +0.000 A 
ATOM     13  C   UNL     1       2.181   3.587  21.664  0.00  0.00    +0.000 A 
ATOM     14  C   UNL     1       1.241   2.670  21.210  0.00  0.00    +0.000 A 
ATOM     15  C   UNL     1       0.787   2.751  19.899  0.00  0.00    +0.000 A 
ATOM     16  C   UNL     1       1.284   3.742  19.044  0.00  0.00    +0.000 A 
ENDBRANCH   3  11
BRANCH   7  17
ATOM     17  O   UNL     1       6.737   5.497  14.727  0.00  0.00    +0.000 OA
ATOM     18  C   UNL     1       6.843   4.395  13.832  0.00  0.00    +0.000 C 
ENDBRANCH   7  17
BRANCH   1  19
ATOM     19  S   UNL     1       1.828   9.775  18.155  0.00  0.00    +0.000 S 
BRANCH  19  20
ATOM     20  C   UNL     1       0.910   9.535  19.710  0.00  0.00    +0.000 C 
BRANCH  20  22
ATOM     21  N   UNL     1      -1.014  10.767  18.813  0.00  0.00    +0.000 N 
ATOM     22  C   UNL     1      -0.146  10.613  19.882  0.00  0.00    +0.000 C 
ATOM     23  O   UNL     1      -0.181  11.346  20.871  0.00  0.00    +0.000 OA
ATOM     24  H   UNL     1      -1.161   9.949  18.232  0.00  0.00    +0.000 HD
BRANCH  21  25
ATOM     25  C   UNL     1      -2.121  11.704  18.909  0.00  0.00    +0.000 C 
BRANCH  25  26
ATOM     26  C   UNL     1      -3.155  11.502  17.802  0.00  0.00    +0.000 C 
BRANCH  26  28
ATOM     27  C   UNL     1      -5.448  11.742  17.297  0.00  0.00    +0.000 C 
ATOM     28  O   UNL     1      -4.443  11.889  18.291  0.00  0.00    +0.000 OA
ENDBRANCH  26  28
ENDBRANCH  25  26
ENDBRANCH  21  25
ENDBRANCH  20  22
ENDBRANCH  19  20
ENDBRANCH   1  19
TORSDOF 8
ENDMDL
MODEL 6
REMARK VINA RESULT:      -7.5      4.063      7.310
REMARK  Name = 
REMARK  10 active torsions:
REMARK  status: ('A' for Active; 'I' for Inactive)
REMARK    1  A    between atoms: C_1  and  O_2
REMARK    2  A    between atoms: O_2  and  C_3
REMARK    3  A    between atoms: C_3  and  C_4
REMARK    4  A    between atoms: C_4  and  N_5
REMARK    5  A    between atoms: C_6  and  C_8
REMARK    6  A    between atoms: C_8  and  S_9
REMARK    7  A    between atoms: S_9  and  C_10
REMARK    8  A    between atoms: C_12  and  C_13
REMARK    9  A    between atoms: C_22  and  O_23
REMARK   10  A    between atoms: O_23  and  C_24
REMARK                            x       y       z     vdW  Elec       q    Type
REMARK                         _______ _______ _______ _____ _____    ______ ____
ROOT
ATOM      1  C   UNL     1       2.266   3.874  18.043  0.00  0.00    +0.000 A 
ATOM      2  C   UNL     1       1.845   5.136  18.434  0.00  0.00    +0.000 A 
ATOM      3  C   UNL     1       2.656   6.262  18.203  0.00  0.00    +0.000 A 
ATOM      4  C   UNL     1       3.919   6.035  17.569  0.00  0.00    +0.000 A 
ATOM      5  C   UNL     1       4.909   7.025  17.354  0.00  0.00    +0.000 A 
ATOM      6  C   UNL     1       6.075   6.771  16.632  0.00  0.00    +0.000 A 
ATOM      7  C   UNL     1       6.313   5.498  16.145  0.00  0.00    +0.000 A 
ATOM      8  C   UNL     1       5.388   4.487  16.425  0.00  0.00    +0.000 A 
ATOM      9  C   UNL     1       4.214   4.716  17.137  0.00  0.00    +0.000 A 
ATOM     10  N   UNL     1       3.418   3.667  17.382  0.00  0.00    +0.000 NA
ENDROOT
BRANCH   3  11
ATOM     11  C   UNL     1       2.151   7.611  18.610  0.00  0.00    +0.000 A 
ATOM     12  C   UNL     1       1.778   7.885  19.940  0.00  0.00    +0.000 A 
ATOM     13  C   UNL     1       1.301   9.145  20.328  0.00  0.00    +0.000 A 
ATOM     14  C   UNL     1       1.219  10.178  19.402  0.00  0.00    +0.000 A 
ATOM     15  C   UNL     1       1.568   9.938  18.078  0.00  0.00    +0.000 A 
ATOM     16  C   UNL     1       1.988   8.662  17.685  0.00  0.00    +0.000 A 
ENDBRANCH   3  11
BRANCH   7  17
ATOM     17  O   UNL     1       7.403   5.112  15.417  0.00  0.00    +0.000 OA
ATOM     18  C   UNL     1       7.177   4.801  14.045  0.00  0.00    +0.000 C 
ENDBRANCH   7  17
BRANCH   1  19
ATOM     19  S   UNL     1       1.260   2.458  18.478  0.00  0.00    +0.000 S 
BRANCH  19  20
ATOM     20  C   UNL     1       1.044   2.739  20.265  0.00  0.00    +0.000 C 
BRANCH  20  22
ATOM     21  N   UNL     1       3.420   2.125  20.231  0.00  0.00    +0.000 N 
ATOM     22  C   UNL     1       2.373   2.623  20.990  0.00  0.00    +0.000 C 
ATOM     23  O   UNL     1       2.493   2.885  22.188  0.00  0.00    +0.000 OA
ATOM     24  H   UNL     1       3.357   2.270  19.229  0.00  0.00    +0.000 HD
BRANCH  21  25
ATOM     25  C   UNL     1       4.758   2.061  20.797  0.00  0.00    +0.000 C 
BRANCH  25  26
ATOM     26  C   UNL     1       5.002   0.766  21.572  0.00  0.00    +0.000 C 
BRANCH  26  28
ATOM     27  C   UNL     1       6.835  -0.466  22.405  0.00  0.00    +0.000 C 
ATOM     28  O   UNL     1       6.292   0.830  22.189  0.00  0.00    +0.000 OA
ENDBRANCH  26  28
ENDBRANCH  25  26
ENDBRANCH  21  25
ENDBRANCH  20  22
ENDBRANCH  19  20
ENDBRANCH   1  19
TORSDOF 8
ENDMDL
MODEL 7
REMARK VINA RESULT:      -7.5      2.047      2.390
REMARK  Name = 
REMARK  10 active torsions:
REMARK  status: ('A' for Active; 'I' for Inactive)
REMARK    1  A    between atoms: C_1  and  O_2
REMARK    2  A    between atoms: O_2  and  C_3
REMARK    3  A    between atoms: C_3  and  C_4
REMARK    4  A    between atoms: C_4  and  N_5
REMARK    5  A    between atoms: C_6  and  C_8
REMARK    6  A    between atoms: C_8  and  S_9
REMARK    7  A    between atoms: S_9  and  C_10
REMARK    8  A    between atoms: C_12  and  C_13
REMARK    9  A    between atoms: C_22  and  O_23
REMARK   10  A    between atoms: O_23  and  C_24
REMARK                            x       y       z     vdW  Elec       q    Type
REMARK                         _______ _______ _______ _____ _____    ______ ____
ROOT
ATOM      1  C   UNL     1       2.701   8.141  17.937  0.00  0.00    +0.000 A 
ATOM      2  C   UNL     1       2.207   7.097  18.704  0.00  0.00    +0.000 A 
ATOM      3  C   UNL     1       2.774   5.812  18.609  0.00  0.00    +0.000 A 
ATOM      4  C   UNL     1       3.856   5.645  17.688  0.00  0.00    +0.000 A 
ATOM      5  C   UNL     1       4.477   4.410  17.381  0.00  0.00    +0.000 A 
ATOM      6  C   UNL     1       5.601   4.322  16.558  0.00  0.00    +0.000 A 
ATOM      7  C   UNL     1       6.108   5.468  15.972  0.00  0.00    +0.000 A 
ATOM      8  C   UNL     1       5.453   6.684  16.194  0.00  0.00    +0.000 A 
ATOM      9  C   UNL     1       4.336   6.799  17.015  0.00  0.00    +0.000 A 
ATOM     10  N   UNL     1       3.764   8.005  17.125  0.00  0.00    +0.000 NA
ENDROOT
BRANCH   3  11
ATOM     11  C   UNL     1       2.234   4.720  19.478  0.00  0.00    +0.000 A 
ATOM     12  C   UNL     1       2.653   4.568  20.814  0.00  0.00    +0.000 A 
ATOM     13  C   UNL     1       2.155   3.546  21.633  0.00  0.00    +0.000 A 
ATOM     14  C   UNL     1       1.193   2.667  21.149  0.00  0.00    +0.000 A 
ATOM     15  C   UNL     1       0.765   2.782  19.831  0.00  0.00    +0.000 A 
ATOM     16  C   UNL     1       1.310   3.768  19.000  0.00  0.00    +0.000 A 
ENDBRANCH   3  11
BRANCH   7  17
ATOM     17  O   UNL     1       7.203   5.530  15.156  0.00  0.00    +0.000 OA
ATOM     18  C   UNL     1       7.142   4.780  13.948  0.00  0.00    +0.000 C 
ENDBRANCH   7  17
BRANCH   1  19
ATOM     19  S   UNL     1       1.860   9.721  17.993  0.00  0.00    +0.000 S 
BRANCH  19  20
ATOM     20  C   UNL     1       0.946   9.557  19.560  0.00  0.00    +0.000 C 
BRANCH  20  22
ATOM     21  N   UNL     1      -0.560  11.494  19.499  0.00  0.00    +0.000 N 
ATOM     22  C   UNL     1       0.551  10.921  20.097  0.00  0.00    +0.000 C 
ATOM     23  O   UNL     1       1.215  11.508  20.952  0.00  0.00    +0.000 OA
ATOM     24  H   UNL     1      -1.234  10.851  19.094  0.00  0.00    +0.000 HD
BRANCH  21  25
ATOM     25  C   UNL     1      -1.083  12.755  19.998  0.00  0.00    +0.000 C 
BRANCH  25  26
ATOM     26  C   UNL     1      -2.260  12.561  20.954  0.00  0.00    +0.000 C 
BRANCH  26  28
ATOM     27  C   UNL     1      -1.698  11.589  23.030  0.00  0.00    +0.000 C 
ATOM     28  O   UNL     1      -1.815  12.798  22.294  0.00  0.00    +0.000 OA
ENDBRANCH  26  28
ENDBRANCH  25  26
ENDBRANCH  21  25
ENDBRANCH  20  22
ENDBRANCH  19  20
ENDBRANCH   1  19
TORSDOF 8
ENDMDL
MODEL 8
REMARK VINA RESULT:      -7.5      2.283      2.825
REMARK  Name = 
REMARK  10 active torsions:
REMARK  status: ('A' for Active; 'I' for Inactive)
REMARK    1  A    between atoms: C_1  and  O_2
REMARK    2  A    between atoms: O_2  and  C_3
REMARK    3  A    between atoms: C_3  and  C_4
REMARK    4  A    between atoms: C_4  and  N_5
REMARK    5  A    between atoms: C_6  and  C_8
REMARK    6  A    between atoms: C_8  and  S_9
REMARK    7  A    between atoms: S_9  and  C_10
REMARK    8  A    between atoms: C_12  and  C_13
REMARK    9  A    between atoms: C_22  and  O_23
REMARK   10  A    between atoms: O_23  and  C_24
REMARK                            x       y       z     vdW  Elec       q    Type
REMARK                         _______ _______ _______ _____ _____    ______ ____
ROOT
ATOM      1  C   UNL     1       2.675   8.117  17.918  0.00  0.00    +0.000 A 
ATOM      2  C   UNL     1       2.183   7.078  18.693  0.00  0.00    +0.000 A 
ATOM      3  C   UNL     1       2.762   5.797  18.617  0.00  0.00    +0.000 A 
ATOM      4  C   UNL     1       3.853   5.629  17.707  0.00  0.00    +0.000 A 
ATOM      5  C   UNL     1       4.488   4.396  17.419  0.00  0.00    +0.000 A 
ATOM      6  C   UNL     1       5.619   4.309  16.607  0.00  0.00    +0.000 A 
ATOM      7  C   UNL     1       6.122   5.452  16.013  0.00  0.00    +0.000 A 
ATOM      8  C   UNL     1       5.454   6.665  16.215  0.00  0.00    +0.000 A 
ATOM      9  C   UNL     1       4.329   6.779  17.026  0.00  0.00    +0.000 A 
ATOM     10  N   UNL     1       3.746   7.981  17.117  0.00  0.00    +0.000 NA
ENDROOT
BRANCH   3  11
ATOM     11  C   UNL     1       2.224   4.709  19.493  0.00  0.00    +0.000 A 
ATOM     12  C   UNL     1       2.639   4.572  20.833  0.00  0.00    +0.000 A 
ATOM     13  C   UNL     1       2.142   3.554  21.658  0.00  0.00    +0.000 A 
ATOM     14  C   UNL     1       1.186   2.666  21.178  0.00  0.00    +0.000 A 
ATOM     15  C   UNL     1       0.763   2.767  19.857  0.00  0.00    +0.000 A 
ATOM     16  C   UNL     1       1.307   3.749  19.020  0.00  0.00    +0.000 A 
ENDBRANCH   3  11
BRANCH   7  17
ATOM     17  O   UNL     1       7.223   5.515  15.205  0.00  0.00    +0.000 OA
ATOM     18  C   UNL     1       7.138   4.836  13.956  0.00  0.00    +0.000 C 
ENDBRANCH   7  17
BRANCH   1  19
ATOM     19  S   UNL     1       1.821   9.691  17.950  0.00  0.00    +0.000 S 
BRANCH  19  20
ATOM     20  C   UNL     1       0.889   9.533  19.508  0.00  0.00    +0.000 C 
BRANCH  20  22
ATOM     21  N   UNL     1       1.226  11.960  19.651  0.00  0.00    +0.000 N 
ATOM     22  C   UNL     1       1.050  10.781  20.358  0.00  0.00    +0.000 C 
ATOM     23  O   UNL     1       1.092  10.737  21.588  0.00  0.00    +0.000 OA
ATOM     24  H   UNL     1       0.837  11.985  18.714  0.00  0.00    +0.000 HD
BRANCH  21  25
ATOM     25  C   UNL     1       1.295  13.226  20.362  0.00  0.00    +0.000 C 
BRANCH  25  26
ATOM     26  C   UNL     1       2.607  13.968  20.106  0.00  0.00    +0.000 C 
BRANCH  26  28
ATOM     27  C   UNL     1       4.063  14.459  18.315  0.00  0.00    +0.000 C 
ATOM     28  O   UNL     1       2.712  14.258  18.709  0.00  0.00    +0.000 OA
ENDBRANCH  26  28
ENDBRANCH  25  26
ENDBRANCH  21  25
ENDBRANCH  20  22
ENDBRANCH  19  20
ENDBRANCH   1  19
TORSDOF 8
ENDMDL
MODEL 9
REMARK VINA RESULT:      -7.5      1.960      2.256
REMARK  Name = 
REMARK  10 active torsions:
REMARK  status: ('A' for Active; 'I' for Inactive)
REMARK    1  A    between atoms: C_1  and  O_2
REMARK    2  A    between atoms: O_2  and  C_3
REMARK    3  A    between atoms: C_3  and  C_4
REMARK    4  A    between atoms: C_4  and  N_5
REMARK    5  A    between atoms: C_6  and  C_8
REMARK    6  A    between atoms: C_8  and  S_9
REMARK    7  A    between atoms: S_9  and  C_10
REMARK    8  A    between atoms: C_12  and  C_13
REMARK    9  A    between atoms: C_22  and  O_23
REMARK   10  A    between atoms: O_23  and  C_24
REMARK                            x       y       z     vdW  Elec       q    Type
REMARK                         _______ _______ _______ _____ _____    ______ ____
ROOT
ATOM      1  C   UNL     1       2.608   8.121  17.953  0.00  0.00    +0.000 A 
ATOM      2  C   UNL     1       2.152   7.081  18.748  0.00  0.00    +0.000 A 
ATOM      3  C   UNL     1       2.688   5.788  18.607  0.00  0.00    +0.000 A 
ATOM      4  C   UNL     1       3.698   5.607  17.609  0.00  0.00    +0.000 A 
ATOM      5  C   UNL     1       4.273   4.364  17.252  0.00  0.00    +0.000 A 
ATOM      6  C   UNL     1       5.333   4.261  16.350  0.00  0.00    +0.000 A 
ATOM      7  C   UNL     1       5.817   5.402  15.734  0.00  0.00    +0.000 A 
ATOM      8  C   UNL     1       5.201   6.627  16.008  0.00  0.00    +0.000 A 
ATOM      9  C   UNL     1       4.148   6.757  16.909  0.00  0.00    +0.000 A 
ATOM     10  N   UNL     1       3.607   7.971  17.066  0.00  0.00    +0.000 NA
ENDROOT
BRANCH   3  11
ATOM     11  C   UNL     1       2.194   4.699  19.508  0.00  0.00    +0.000 A 
ATOM     12  C   UNL     1       1.272   3.734  19.057  0.00  0.00    +0.000 A 
ATOM     13  C   UNL     1       0.802   2.714  19.895  0.00  0.00    +0.000 A 
ATOM     14  C   UNL     1       1.270   2.608  21.199  0.00  0.00    +0.000 A 
ATOM     15  C   UNL     1       2.171   3.551  21.680  0.00  0.00    +0.000 A 
ATOM     16  C   UNL     1       2.592   4.602  20.856  0.00  0.00    +0.000 A 
ENDBRANCH   3  11
BRANCH   7  17
ATOM     17  O   UNL     1       6.850   5.450  14.841  0.00  0.00    +0.000 OA
ATOM     18  C   UNL     1       6.843   4.476  13.802  0.00  0.00    +0.000 C 
ENDBRANCH   7  17
BRANCH   1  19
ATOM     19  S   UNL     1       1.801   9.715  18.077  0.00  0.00    +0.000 S 
BRANCH  19  20
ATOM     20  C   UNL     1       0.983   9.549  19.696  0.00  0.00    +0.000 C 
BRANCH  20  22
ATOM     21  N   UNL     1       0.835  11.993  19.520  0.00  0.00    +0.000 N 
ATOM     22  C   UNL     1       0.856  10.902  20.374  0.00  0.00    +0.000 C 
ATOM     23  O   UNL     1       0.844  11.024  21.600  0.00  0.00    +0.000 OA
ATOM     24  H   UNL     1       0.496  11.820  18.579  0.00  0.00    +0.000 HD
BRANCH  21  25
ATOM     25  C   UNL     1       0.621  13.328  20.054  0.00  0.00    +0.000 C 
BRANCH  25  26
ATOM     26  C   UNL     1      -0.650  13.977  19.509  0.00  0.00    +0.000 C 
BRANCH  26  28
ATOM     27  C   UNL     1      -2.404  13.049  20.786  0.00  0.00    +0.000 C 
ATOM     28  O   UNL     1      -1.714  13.021  19.544  0.00  0.00    +0.000 OA
ENDBRANCH  26  28
ENDBRANCH  25  26
ENDBRANCH  21  25
ENDBRANCH  20  22
ENDBRANCH  19  20
ENDBRANCH   1  19
TORSDOF 8
ENDMDL
