MODEL 1
REMARK VINA RESULT:      -7.5      0.000      0.000
REMARK  Name = 
REMARK  5 active torsions:
REMARK  status: ('A' for Active; 'I' for Inactive)
REMARK    1  A    between atoms: N_2  and  C_4
REMARK    2  A    between atoms: C_7  and  S_8
REMARK    3  A    between atoms: S_8  and  C_9
REMARK    4  A    between atoms: C_11  and  O_12
REMARK    5  A    between atoms: C_15  and  O_16
REMARK                            x       y       z     vdW  Elec       q    Type
REMARK                         _______ _______ _______ _____ _____    ______ ____
ROOT
ATOM      1  S   UNL     1       2.791   6.390  18.785  0.00  0.00    +0.000 S 
ENDROOT
BRANCH   1   5
ATOM      2  C   UNL     1       5.826   5.148  15.586  0.00  0.00    +0.000 A 
ATOM      3  C   UNL     1       5.430   4.226  16.565  0.00  0.00    +0.000 A 
ATOM      4  C   UNL     1       4.536   4.622  17.566  0.00  0.00    +0.000 A 
ATOM      5  C   UNL     1       4.038   5.930  17.599  0.00  0.00    +0.000 A 
ATOM      6  C   UNL     1       4.437   6.841  16.611  0.00  0.00    +0.000 A 
ATOM      7  C   UNL     1       5.332   6.458  15.607  0.00  0.00    +0.000 A 
BRANCH   2   9
ATOM      8  O   UNL     1       6.449   3.736  13.853  0.00  0.00    +0.000 OA
ATOM      9  N   UNL     1       6.751   4.734  14.523  0.00  0.00    +0.000 N 
ATOM     10  O   UNL     1       7.778   5.406  14.359  0.00  0.00    +0.000 OA
ENDBRANCH   2   9
ENDBRANCH   1   5
BRANCH   1  11
ATOM     11  C   UNL     1       2.142   4.815  19.334  0.00  0.00    +0.000 A 
ATOM     12  C   UNL     1       2.513   4.367  20.613  0.00  0.00    +0.000 A 
ATOM     13  C   UNL     1       2.141   3.094  21.041  0.00  0.00    +0.000 A 
ATOM     14  C   UNL     1       1.396   2.254  20.224  0.00  0.00    +0.000 A 
ATOM     15  C   UNL     1       1.018   2.685  18.954  0.00  0.00    +0.000 A 
ATOM     16  C   UNL     1       1.397   3.955  18.510  0.00  0.00    +0.000 A 
BRANCH  13  17
ATOM     17  O   UNL     1       2.514   2.616  22.262  0.00  0.00    +0.000 OA
ATOM     18  H   UNL     1       1.718   2.366  22.760  0.00  0.00    +0.000 HD
ENDBRANCH  13  17
BRANCH  16  19
ATOM     19  O   UNL     1       1.056   4.343  17.241  0.00  0.00    +0.000 OA
ATOM     20  H   UNL     1       0.907   3.551  16.699  0.00  0.00    +0.000 HD
ENDBRANCH  16  19
ENDBRANCH   1  11
TORSDOF 5
ENDMDL
MODEL 2
REMARK VINA RESULT:      -7.4      1.168      1.291
REMARK  Name = 
REMARK  5 active torsions:
REMARK  status: ('A' for Active; 'I' for Inactive)
REMARK    1  A    between atoms: N_2  and  C_4
REMARK    2  A    between atoms: C_7  and  S_8
REMARK    3  A    between atoms: S_8  and  C_9
REMARK    4  A    between atoms: C_11  and  O_12
REMARK    5  A    between atoms: C_15  and  O_16
REMARK                            x       y       z     vdW  Elec       q    Type
REMARK                         _______ _______ _______ _____ _____    ______ ____
ROOT
ATOM      1  S   UNL     1       2.425   6.435  19.311  0.00  0.00    +0.000 S 
ENDROOT
BRANCH   1   5
ATOM      2  C   UNL     1       6.252   5.405  17.014  0.00  0.00    +0.000 A 
ATOM      3  C   UNL     1       6.065   4.911  18.312  0.00  0.00    +0.000 A 
ATOM      4  C   UNL     1       4.915   5.263  19.027  0.00  0.00    +0.000 A 
ATOM      5  C   UNL     1       3.954   6.106  18.458  0.00  0.00    +0.000 A 
ATOM      6  C   UNL     1       4.148   6.589  17.156  0.00  0.00    +0.000 A 
ATOM      7  C   UNL     1       5.295   6.246  16.433  0.00  0.00    +0.000 A 
BRANCH   2   9
ATOM      8  O   UNL     1       8.228   4.213  16.770  0.00  0.00    +0.000 OA
ATOM      9  N   UNL     1       7.448   5.026  16.251  0.00  0.00    +0.000 N 
ATOM     10  O   UNL     1       7.608   5.539  15.135  0.00  0.00    +0.000 OA
ENDBRANCH   2   9
ENDBRANCH   1   5
BRANCH   1  11
ATOM     11  C   UNL     1       1.758   4.801  19.610  0.00  0.00    +0.000 A 
ATOM     12  C   UNL     1       1.829   4.298  20.919  0.00  0.00    +0.000 A 
ATOM     13  C   UNL     1       1.442   2.985  21.183  0.00  0.00    +0.000 A 
ATOM     14  C   UNL     1       0.975   2.159  20.169  0.00  0.00    +0.000 A 
ATOM     15  C   UNL     1       0.896   2.645  18.865  0.00  0.00    +0.000 A 
ATOM     16  C   UNL     1       1.294   3.956  18.587  0.00  0.00    +0.000 A 
BRANCH  13  17
ATOM     17  O   UNL     1       1.531   2.454  22.436  0.00  0.00    +0.000 OA
ATOM     18  H   UNL     1       0.749   1.902  22.601  0.00  0.00    +0.000 HD
ENDBRANCH  13  17
BRANCH  16  19
ATOM     19  O   UNL     1       1.254   4.402  17.292  0.00  0.00    +0.000 OA
ATOM     20  H   UNL     1       0.731   3.779  16.762  0.00  0.00    +0.000 HD
ENDBRANCH  16  19
ENDBRANCH   1  11
TORSDOF 5
ENDMDL
MODEL 3
REMARK VINA RESULT:      -7.4      1.610      2.400
REMARK  Name = 
REMARK  5 active torsions:
REMARK  status: ('A' for Active; 'I' for Inactive)
REMARK    1  A    between atoms: N_2  and  C_4
REMARK    2  A    between atoms: C_7  and  S_8
REMARK    3  A    between atoms: S_8  and  C_9
REMARK    4  A    between atoms: C_11  and  O_12
REMARK    5  A    between atoms: C_15  and  O_16
REMARK                            x       y       z     vdW  Elec       q    Type
REMARK                         _______ _______ _______ _____ _____    ______ ____
ROOT
ATOM      1  S   UNL     1       4.673   5.699  19.388  0.00  0.00    +0.000 S 
ENDROOT
BRANCH   1   5
ATOM      2  C   UNL     1       6.500   5.043  15.238  0.00  0.00    +0.000 A 
ATOM      3  C   UNL     1       5.343   5.822  15.374  0.00  0.00    +0.000 A 
ATOM      4  C   UNL     1       4.763   5.984  16.637  0.00  0.00    +0.000 A 
ATOM      5  C   UNL     1       5.326   5.373  17.763  0.00  0.00    +0.000 A 
ATOM      6  C   UNL     1       6.488   4.602  17.617  0.00  0.00    +0.000 A 
ATOM      7  C   UNL     1       7.075   4.430  16.358  0.00  0.00    +0.000 A 
BRANCH   2   9
ATOM      8  O   UNL     1       8.082   5.618  13.641  0.00  0.00    +0.000 OA
ATOM      9  N   UNL     1       7.124   4.882  13.919  0.00  0.00    +0.000 N 
ATOM     10  O   UNL     1       6.656   4.021  13.161  0.00  0.00    +0.000 OA
ENDBRANCH   2   9
ENDBRANCH   1   5
BRANCH   1  11
ATOM     11  C   UNL     1       3.271   4.592  19.499  0.00  0.00    +0.000 A 
ATOM     12  C   UNL     1       3.278   3.447  18.686  0.00  0.00    +0.000 A 
ATOM     13  C   UNL     1       2.159   2.618  18.638  0.00  0.00    +0.000 A 
ATOM     14  C   UNL     1       1.028   2.899  19.394  0.00  0.00    +0.000 A 
ATOM     15  C   UNL     1       1.007   4.030  20.208  0.00  0.00    +0.000 A 
ATOM     16  C   UNL     1       2.119   4.875  20.254  0.00  0.00    +0.000 A 
BRANCH  13  17
ATOM     17  O   UNL     1       2.120   1.519  17.833  0.00  0.00    +0.000 OA
ATOM     18  H   UNL     1       3.014   1.148  17.762  0.00  0.00    +0.000 HD
ENDBRANCH  13  17
BRANCH  16  19
ATOM     19  O   UNL     1       2.063   6.007  21.024  0.00  0.00    +0.000 OA
ATOM     20  H   UNL     1       1.214   6.025  21.495  0.00  0.00    +0.000 HD
ENDBRANCH  16  19
ENDBRANCH   1  11
TORSDOF 5
ENDMDL
MODEL 4
REMARK VINA RESULT:      -7.3      0.099      1.359
REMARK  Name = 
REMARK  5 active torsions:
REMARK  status: ('A' for Active; 'I' for Inactive)
REMARK    1  A    between atoms: N_2  and  C_4
REMARK    2  A    between atoms: C_7  and  S_8
REMARK    3  A    between atoms: S_8  and  C_9
REMARK    4  A    between atoms: C_11  and  O_12
REMARK    5  A    between atoms: C_15  and  O_16
REMARK                            x       y       z     vdW  Elec       q    Type
REMARK                         _______ _______ _______ _____ _____    ______ ____
ROOT
ATOM      1  S   UNL     1       2.913   6.342  18.846  0.00  0.00    +0.000 S 
ENDROOT
BRANCH   1   5
ATOM      2  C   UNL     1       5.843   5.147  15.533  0.00  0.00    +0.000 A 
ATOM      3  C   UNL     1       5.331   6.450  15.572  0.00  0.00    +0.000 A 
ATOM      4  C   UNL     1       4.402   6.800  16.560  0.00  0.00    +0.000 A 
ATOM      5  C   UNL     1       3.980   5.858  17.504  0.00  0.00    +0.000 A 
ATOM      6  C   UNL     1       4.505   4.558  17.460  0.00  0.00    +0.000 A 
ATOM      7  C   UNL     1       5.431   4.196  16.475  0.00  0.00    +0.000 A 
BRANCH   2   9
ATOM      8  O   UNL     1       7.876   5.442  14.453  0.00  0.00    +0.000 OA
ATOM      9  N   UNL     1       6.830   4.778  14.510  0.00  0.00    +0.000 N 
ATOM     10  O   UNL     1       6.560   3.827  13.764  0.00  0.00    +0.000 OA
ENDBRANCH   2   9
ENDBRANCH   1   5
BRANCH   1  11
ATOM     11  C   UNL     1       2.199   4.792  19.386  0.00  0.00    +0.000 A 
ATOM     12  C   UNL     1       2.571   4.308  20.650  0.00  0.00    +0.000 A 
ATOM     13  C   UNL     1       2.147   3.048  21.068  0.00  0.00    +0.000 A 
ATOM     14  C   UNL     1       1.347   2.257  20.255  0.00  0.00    +0.000 A 
ATOM     15  C   UNL     1       0.966   2.724  18.998  0.00  0.00    +0.000 A 
ATOM     16  C   UNL     1       1.398   3.981  18.564  0.00  0.00    +0.000 A 
BRANCH  13  17
ATOM     17  O   UNL     1       2.519   2.535  22.275  0.00  0.00    +0.000 OA
ATOM     18  H   UNL     1       2.708   3.266  22.885  0.00  0.00    +0.000 HD
ENDBRANCH  13  17
BRANCH  16  19
ATOM     19  O   UNL     1       1.053   4.404  17.307  0.00  0.00    +0.000 OA
ATOM     20  H   UNL     1       1.599   3.934  16.656  0.00  0.00    +0.000 HD
ENDBRANCH  16  19
ENDBRANCH   1  11
TORSDOF 5
ENDMDL
MODEL 5
REMARK VINA RESULT:      -7.2      4.193      6.571
REMARK  Name = 
REMARK  5 active torsions:
REMARK  status: ('A' for Active; 'I' for Inactive)
REMARK    1  A    between atoms: N_2  and  C_4
REMARK    2  A    between atoms: C_7  and  S_8
REMARK    3  A    between atoms: S_8  and  C_9
REMARK    4  A    between atoms: C_11  and  O_12
REMARK    5  A    between atoms: C_15  and  O_16
REMARK                            x       y       z     vdW  Elec       q    Type
REMARK                         _______ _______ _______ _____ _____    ______ ____
ROOT
ATOM      1  S   UNL     1       3.789   4.974  17.666  0.00  0.00    +0.000 S 
ENDROOT
BRANCH   1   5
ATOM      2  C   UNL     1       1.493   7.686  20.558  0.00  0.00    +0.000 A 
ATOM      3  C   UNL     1       1.655   6.327  20.859  0.00  0.00    +0.000 A 
ATOM      4  C   UNL     1       2.319   5.493  19.952  0.00  0.00    +0.000 A 
ATOM      5  C   UNL     1       2.818   6.003  18.749  0.00  0.00    +0.000 A 
ATOM      6  C   UNL     1       2.657   7.367  18.462  0.00  0.00    +0.000 A 
ATOM      7  C   UNL     1       1.992   8.210  19.359  0.00  0.00    +0.000 A 
BRANCH   2   9
ATOM      8  O   UNL     1      -0.416   8.459  21.626  0.00  0.00    +0.000 OA
ATOM      9  N   UNL     1       0.813   8.571  21.512  0.00  0.00    +0.000 N 
ATOM     10  O   UNL     1       1.506   9.378  22.147  0.00  0.00    +0.000 OA
ENDBRANCH   2   9
ENDBRANCH   1   5
BRANCH   1  11
ATOM     11  C   UNL     1       5.458   5.569  17.917  0.00  0.00    +0.000 A 
ATOM     12  C   UNL     1       6.110   5.199  19.104  0.00  0.00    +0.000 A 
ATOM     13  C   UNL     1       7.360   5.735  19.410  0.00  0.00    +0.000 A 
ATOM     14  C   UNL     1       7.984   6.630  18.551  0.00  0.00    +0.000 A 
ATOM     15  C   UNL     1       7.350   7.004  17.367  0.00  0.00    +0.000 A 
ATOM     16  C   UNL     1       6.091   6.482  17.057  0.00  0.00    +0.000 A 
BRANCH  13  17
ATOM     17  O   UNL     1       8.005   5.423  20.570  0.00  0.00    +0.000 OA
ATOM     18  H   UNL     1       8.416   6.227  20.929  0.00  0.00    +0.000 HD
ENDBRANCH  13  17
BRANCH  16  19
ATOM     19  O   UNL     1       5.463   6.898  15.913  0.00  0.00    +0.000 OA
ATOM     20  H   UNL     1       5.981   6.603  15.146  0.00  0.00    +0.000 HD
ENDBRANCH  16  19
ENDBRANCH   1  11
TORSDOF 5
ENDMDL
MODEL 6
REMARK VINA RESULT:      -7.2      1.916      2.189
REMARK  Name = 
REMARK  5 active torsions:
REMARK  status: ('A' for Active; 'I' for Inactive)
REMARK    1  A    between atoms: N_2  and  C_4
REMARK    2  A    between atoms: C_7  and  S_8
REMARK    3  A    between atoms: S_8  and  C_9
REMARK    4  A    between atoms: C_11  and  O_12
REMARK    5  A    between atoms: C_15  and  O_16
REMARK                            x       y       z     vdW  Elec       q    Type
REMARK                         _______ _______ _______ _____ _____    ______ ____
ROOT
ATOM      1  S   UNL     1       4.807   5.598  19.351  0.00  0.00    +0.000 S 
ENDROOT
BRANCH   1   5
ATOM      2  C   UNL     1       6.648   5.121  15.183  0.00  0.00    +0.000 A 
ATOM      3  C   UNL     1       7.363   4.701  16.312  0.00  0.00    +0.000 A 
ATOM      4  C   UNL     1       6.817   4.888  17.587  0.00  0.00    +0.000 A 
ATOM      5  C   UNL     1       5.564   5.493  17.743  0.00  0.00    +0.000 A 
ATOM      6  C   UNL     1       4.854   5.903  16.605  0.00  0.00    +0.000 A 
ATOM      7  C   UNL     1       5.392   5.724  15.326  0.00  0.00    +0.000 A 
BRANCH   2   9
ATOM      8  O   UNL     1       8.168   5.620  13.502  0.00  0.00    +0.000 OA
ATOM      9  N   UNL     1       7.208   4.913  13.842  0.00  0.00    +0.000 N 
ATOM     10  O   UNL     1       6.689   4.043  13.129  0.00  0.00    +0.000 OA
ENDBRANCH   2   9
ENDBRANCH   1   5
BRANCH   1  11
ATOM     11  C   UNL     1       3.711   4.183  19.385  0.00  0.00    +0.000 A 
ATOM     12  C   UNL     1       4.214   2.957  18.919  0.00  0.00    +0.000 A 
ATOM     13  C   UNL     1       3.368   1.855  18.804  0.00  0.00    +0.000 A 
ATOM     14  C   UNL     1       2.027   1.943  19.152  0.00  0.00    +0.000 A 
ATOM     15  C   UNL     1       1.514   3.152  19.619  0.00  0.00    +0.000 A 
ATOM     16  C   UNL     1       2.350   4.266  19.726  0.00  0.00    +0.000 A 
BRANCH  13  17
ATOM     17  O   UNL     1       3.816   0.661  18.322  0.00  0.00    +0.000 OA
ATOM     18  H   UNL     1       4.738   0.534  18.601  0.00  0.00    +0.000 HD
ENDBRANCH  13  17
BRANCH  16  19
ATOM     19  O   UNL     1       1.817   5.458  20.142  0.00  0.00    +0.000 OA
ATOM     20  H   UNL     1       2.376   5.823  20.848  0.00  0.00    +0.000 HD
ENDBRANCH  16  19
ENDBRANCH   1  11
TORSDOF 5
ENDMDL
MODEL 7
REMARK VINA RESULT:      -7.1      3.374      6.126
REMARK  Name = 
REMARK  5 active torsions:
REMARK  status: ('A' for Active; 'I' for Inactive)
REMARK    1  A    between atoms: N_2  and  C_4
REMARK    2  A    between atoms: C_7  and  S_8
REMARK    3  A    between atoms: S_8  and  C_9
REMARK    4  A    between atoms: C_11  and  O_12
REMARK    5  A    between atoms: C_15  and  O_16
REMARK                            x       y       z     vdW  Elec       q    Type
REMARK                         _______ _______ _______ _____ _____    ______ ____
ROOT
ATOM      1  S   UNL     1       5.703   3.799  16.084  0.00  0.00    +0.000 S 
ENDROOT
BRANCH   1   5
ATOM      2  C   UNL     1       2.020   3.349  18.772  0.00  0.00    +0.000 A 
ATOM      3  C   UNL     1       2.798   2.226  18.465  0.00  0.00    +0.000 A 
ATOM      4  C   UNL     1       3.897   2.359  17.608  0.00  0.00    +0.000 A 
ATOM      5  C   UNL     1       4.222   3.603  17.055  0.00  0.00    +0.000 A 
ATOM      6  C   UNL     1       3.439   4.722  17.375  0.00  0.00    +0.000 A 
ATOM      7  C   UNL     1       2.337   4.600  18.227  0.00  0.00    +0.000 A 
BRANCH   2   9
ATOM      8  O   UNL     1      -0.030   2.436  19.363  0.00  0.00    +0.000 OA
ATOM      9  N   UNL     1       0.875   3.220  19.683  0.00  0.00    +0.000 N 
ATOM     10  O   UNL     1       0.882   3.901  20.718  0.00  0.00    +0.000 OA
ENDBRANCH   2   9
ENDBRANCH   1   5
BRANCH   1  11
ATOM     11  C   UNL     1       6.616   5.055  16.975  0.00  0.00    +0.000 A 
ATOM     12  C   UNL     1       7.345   4.652  18.105  0.00  0.00    +0.000 A 
ATOM     13  C   UNL     1       7.970   5.605  18.908  0.00  0.00    +0.000 A 
ATOM     14  C   UNL     1       7.894   6.958  18.603  0.00  0.00    +0.000 A 
ATOM     15  C   UNL     1       7.177   7.373  17.483  0.00  0.00    +0.000 A 
ATOM     16  C   UNL     1       6.535   6.426  16.679  0.00  0.00    +0.000 A 
BRANCH  13  17
ATOM     17  O   UNL     1       8.656   5.251  20.032  0.00  0.00    +0.000 OA
ATOM     18  H   UNL     1       9.198   6.003  20.322  0.00  0.00    +0.000 HD
ENDBRANCH  13  17
BRANCH  16  19
ATOM     19  O   UNL     1       5.796   6.856  15.608  0.00  0.00    +0.000 OA
ATOM     20  H   UNL     1       6.269   6.633  14.789  0.00  0.00    +0.000 HD
ENDBRANCH  16  19
ENDBRANCH   1  11
TORSDOF 5
ENDMDL
MODEL 8
REMARK VINA RESULT:      -7.0      4.450      6.650
REMARK  Name = 
REMARK  5 active torsions:
REMARK  status: ('A' for Active; 'I' for Inactive)
REMARK    1  A    between atoms: N_2  and  C_4
REMARK    2  A    between atoms: C_7  and  S_8
REMARK    3  A    between atoms: S_8  and  C_9
REMARK    4  A    between atoms: C_11  and  O_12
REMARK    5  A    between atoms: C_15  and  O_16
REMARK                            x       y       z     vdW  Elec       q    Type
REMARK                         _______ _______ _______ _____ _____    ______ ____
ROOT
ATOM      1  S   UNL     1       3.492   5.388  17.945  0.00  0.00    +0.000 S 
ENDROOT
BRANCH   1   5
ATOM      2  C   UNL     1       1.333   9.084  19.578  0.00  0.00    +0.000 A 
ATOM      3  C   UNL     1       1.772   9.066  18.248  0.00  0.00    +0.000 A 
ATOM      4  C   UNL     1       2.470   7.953  17.765  0.00  0.00    +0.000 A 
ATOM      5  C   UNL     1       2.734   6.861  18.599  0.00  0.00    +0.000 A 
ATOM      6  C   UNL     1       2.283   6.887  19.927  0.00  0.00    +0.000 A 
ATOM      7  C   UNL     1       1.588   7.995  20.422  0.00  0.00    +0.000 A 
BRANCH   2   9
ATOM      8  O   UNL     1       0.151  11.055  19.259  0.00  0.00    +0.000 OA
ATOM      9  N   UNL     1       0.585  10.241  20.087  0.00  0.00    +0.000 N 
ATOM     10  O   UNL     1       0.433  10.336  21.313  0.00  0.00    +0.000 OA
ENDBRANCH   2   9
ENDBRANCH   1   5
BRANCH   1  11
ATOM     11  C   UNL     1       5.244   5.740  18.055  0.00  0.00    +0.000 A 
ATOM     12  C   UNL     1       5.914   5.352  19.226  0.00  0.00    +0.000 A 
ATOM     13  C   UNL     1       7.246   5.713  19.420  0.00  0.00    +0.000 A 
ATOM     14  C   UNL     1       7.934   6.448  18.464  0.00  0.00    +0.000 A 
ATOM     15  C   UNL     1       7.283   6.839  17.295  0.00  0.00    +0.000 A 
ATOM     16  C   UNL     1       5.943   6.493  17.097  0.00  0.00    +0.000 A 
BRANCH  13  17
ATOM     17  O   UNL     1       7.916   5.382  20.561  0.00  0.00    +0.000 OA
ATOM     18  H   UNL     1       7.271   5.212  21.267  0.00  0.00    +0.000 HD
ENDBRANCH  13  17
BRANCH  16  19
ATOM     19  O   UNL     1       5.307   6.925  15.963  0.00  0.00    +0.000 OA
ATOM     20  H   UNL     1       5.147   7.880  16.037  0.00  0.00    +0.000 HD
ENDBRANCH  16  19
ENDBRANCH   1  11
TORSDOF 5
ENDMDL
MODEL 9
REMARK VINA RESULT:      -7.0      1.865      2.226
REMARK  Name = 
REMARK  5 active torsions:
REMARK  status: ('A' for Active; 'I' for Inactive)
REMARK    1  A    between atoms: N_2  and  C_4
REMARK    2  A    between atoms: C_7  and  S_8
REMARK    3  A    between atoms: S_8  and  C_9
REMARK    4  A    between atoms: C_11  and  O_12
REMARK    5  A    between atoms: C_15  and  O_16
REMARK                            x       y       z     vdW  Elec       q    Type
REMARK                         _______ _______ _______ _____ _____    ______ ____
ROOT
ATOM      1  S   UNL     1       5.366   5.459  19.370  0.00  0.00    +0.000 S 
ENDROOT
BRANCH   1   5
ATOM      2  C   UNL     1       6.578   4.941  14.983  0.00  0.00    +0.000 A 
ATOM      3  C   UNL     1       7.405   4.441  15.997  0.00  0.00    +0.000 A 
ATOM      4  C   UNL     1       7.054   4.640  17.337  0.00  0.00    +0.000 A 
ATOM      5  C   UNL     1       5.886   5.335  17.671  0.00  0.00    +0.000 A 
ATOM      6  C   UNL     1       5.062   5.824  16.648  0.00  0.00    +0.000 A 
ATOM      7  C   UNL     1       5.404   5.634  15.305  0.00  0.00    +0.000 A 
BRANCH   2   9
ATOM      8  O   UNL     1       6.329   3.827  12.962  0.00  0.00    +0.000 OA
ATOM      9  N   UNL     1       6.931   4.721  13.574  0.00  0.00    +0.000 N 
ATOM     10  O   UNL     1       7.810   5.441  13.081  0.00  0.00    +0.000 OA
ENDBRANCH   2   9
ENDBRANCH   1   5
BRANCH   1  11
ATOM     11  C   UNL     1       3.827   4.546  19.399  0.00  0.00    +0.000 A 
ATOM     12  C   UNL     1       3.815   3.270  18.815  0.00  0.00    +0.000 A 
ATOM     13  C   UNL     1       2.616   2.568  18.696  0.00  0.00    +0.000 A 
ATOM     14  C   UNL     1       1.423   3.108  19.157  0.00  0.00    +0.000 A 
ATOM     15  C   UNL     1       1.419   4.373  19.742  0.00  0.00    +0.000 A 
ATOM     16  C   UNL     1       2.613   5.090  19.854  0.00  0.00    +0.000 A 
BRANCH  13  17
ATOM     17  O   UNL     1       2.564   1.342  18.102  0.00  0.00    +0.000 OA
ATOM     18  H   UNL     1       2.096   1.421  17.255  0.00  0.00    +0.000 HD
ENDBRANCH  13  17
BRANCH  16  19
ATOM     19  O   UNL     1       2.583   6.351  20.390  0.00  0.00    +0.000 OA
ATOM     20  H   UNL     1       2.789   6.994  19.692  0.00  0.00    +0.000 HD
ENDBRANCH  16  19
ENDBRANCH   1  11
TORSDOF 5
ENDMDL
