MODEL 1
REMARK VINA RESULT:      -7.6      0.000      0.000
REMARK  Name = 
REMARK  6 active torsions:
REMARK  status: ('A' for Active; 'I' for Inactive)
REMARK    1  A    between atoms: C_1  and  C_2
REMARK    2  A    between atoms: C_3  and  N_4
REMARK    3  A    between atoms: N_6  and  C_7
REMARK    4  A    between atoms: C_14  and  C_15
REMARK    5  A    between atoms: C_15  and  O_17
REMARK    6  A    between atoms: N_19  and  C_20
REMARK                            x       y       z     vdW  Elec       q    Type
REMARK                         _______ _______ _______ _____ _____    ______ ____
ROOT
ATOM      1  C   UNL     1       1.434   9.099  19.255  0.00  0.00    +0.000 A 
ATOM      2  C   UNL     1       2.173   9.417  18.102  0.00  0.00    +0.000 A 
ATOM      3  F   UNL     1       2.120  10.641  17.562  0.00  0.00    +0.000 F 
ATOM      4  C   UNL     1       3.058   8.541  17.512  0.00  0.00    +0.000 A 
ATOM      5  C   UNL     1       3.270   7.293  18.083  0.00  0.00    +0.000 A 
ATOM      6  C   UNL     1       4.251   6.427  17.398  0.00  0.00    +0.000 A 
ATOM      7  O   UNL     1       4.848   6.800  16.388  0.00  0.00    +0.000 OA
ATOM      8  C   UNL     1       4.511   5.094  17.938  0.00  0.00    +0.000 A 
ATOM      9  C   UNL     1       3.826   4.758  19.038  0.00  0.00    +0.000 A 
ATOM     10  N   UNL     1       2.927   5.549  19.748  0.00  0.00    +0.000 N 
ATOM     11  C   UNL     1       2.600   6.874  19.262  0.00  0.00    +0.000 A 
ATOM     12  C   UNL     1       1.677   7.816  19.843  0.00  0.00    +0.000 A 
ATOM     13 CL   UNL     1       0.787   7.428  21.282  0.00  0.00    +0.000 Cl
ENDROOT
BRANCH   1  18
ATOM     14  C   UNL     1      -1.492  10.373  18.341  0.00  0.00    +0.000 C 
ATOM     15  C   UNL     1      -0.857  10.273  19.707  0.00  0.00    +0.000 C 
ATOM     16  C   UNL     1      -0.607  11.630  20.415  0.00  0.00    +0.000 C 
ATOM     17  C   UNL     1       0.651  10.933  20.965  0.00  0.00    +0.000 C 
ATOM     18  N   UNL     1       0.587  10.112  19.781  0.00  0.00    +0.000 N 
BRANCH  16  19
ATOM     19  N   UNL     1      -1.597  11.886  21.465  0.00  0.00    +0.000 NA
ATOM     20  H   UNL     1      -1.213  12.020  22.399  0.00  0.00    +0.000 HD
ATOM     21  H   UNL     1      -2.293  11.145  21.546  0.00  0.00    +0.000 HD
ENDBRANCH  16  19
ENDBRANCH   1  18
BRANCH  10  22
ATOM     22  C   UNL     1       2.226   4.891  20.877  0.00  0.00    +0.000 C 
ATOM     23  C   UNL     1       1.106   3.878  20.755  0.00  0.00    +0.000 C 
ATOM     24  C   UNL     1       2.463   3.425  21.173  0.00  0.00    +0.000 C 
ENDBRANCH  10  22
BRANCH   8  25
ATOM     25  C   UNL     1       5.453   4.137  17.327  0.00  0.00    +0.000 C 
ATOM     26  O   UNL     1       5.213   3.522  16.296  0.00  0.00    +0.000 OA
BRANCH  25  27
ATOM     27  O   UNL     1       6.614   3.978  18.001  0.00  0.00    +0.000 OA
ATOM     28  H   UNL     1       6.813   3.042  18.250  0.00  0.00    +0.000 HD
ENDBRANCH  25  27
ENDBRANCH   8  25
TORSDOF 5
ENDMDL
MODEL 2
REMARK VINA RESULT:      -7.6      2.330      3.471
REMARK  Name = 
REMARK  6 active torsions:
REMARK  status: ('A' for Active; 'I' for Inactive)
REMARK    1  A    between atoms: C_1  and  C_2
REMARK    2  A    between atoms: C_3  and  N_4
REMARK    3  A    between atoms: N_6  and  C_7
REMARK    4  A    between atoms: C_14  and  C_15
REMARK    5  A    between atoms: C_15  and  O_17
REMARK    6  A    between atoms: N_19  and  C_20
REMARK                            x       y       z     vdW  Elec       q    Type
REMARK                         _______ _______ _______ _____ _____    ______ ____
ROOT
ATOM      1  C   UNL     1       1.440   8.417  19.901  0.00  0.00    +0.000 A 
ATOM      2  C   UNL     1       1.027   7.546  20.925  0.00  0.00    +0.000 A 
ATOM      3  F   UNL     1       0.113   7.924  21.826  0.00  0.00    +0.000 F 
ATOM      4  C   UNL     1       1.452   6.239  21.016  0.00  0.00    +0.000 A 
ATOM      5  C   UNL     1       2.302   5.726  20.045  0.00  0.00    +0.000 A 
ATOM      6  C   UNL     1       2.690   4.309  20.209  0.00  0.00    +0.000 A 
ATOM      7  O   UNL     1       2.272   3.630  21.146  0.00  0.00    +0.000 OA
ATOM      8  C   UNL     1       3.596   3.711  19.231  0.00  0.00    +0.000 A 
ATOM      9  C   UNL     1       4.008   4.511  18.240  0.00  0.00    +0.000 A 
ATOM     10  N   UNL     1       3.639   5.833  18.012  0.00  0.00    +0.000 N 
ATOM     11  C   UNL     1       2.763   6.504  18.951  0.00  0.00    +0.000 A 
ATOM     12  C   UNL     1       2.302   7.868  18.897  0.00  0.00    +0.000 A 
ATOM     13 CL   UNL     1       2.795   8.931  17.616  0.00  0.00    +0.000 Cl
ENDROOT
BRANCH   1  18
ATOM     14  C   UNL     1      -0.744  10.016  17.981  0.00  0.00    +0.000 C 
ATOM     15  C   UNL     1      -0.395  10.218  19.436  0.00  0.00    +0.000 C 
ATOM     16  C   UNL     1       0.163  11.621  19.787  0.00  0.00    +0.000 C 
ATOM     17  C   UNL     1       1.030  10.851  20.800  0.00  0.00    +0.000 C 
ATOM     18  N   UNL     1       0.891   9.728  19.905  0.00  0.00    +0.000 N 
BRANCH  16  19
ATOM     19  N   UNL     1      -0.844  12.456  20.449  0.00  0.00    +0.000 NA
ATOM     20  H   UNL     1      -1.747  12.501  19.980  0.00  0.00    +0.000 HD
ATOM     21  H   UNL     1      -0.540  13.422  20.576  0.00  0.00    +0.000 HD
ENDBRANCH  16  19
ENDBRANCH   1  18
BRANCH  10  22
ATOM     22  C   UNL     1       4.329   6.523  16.894  0.00  0.00    +0.000 C 
ATOM     23  C   UNL     1       5.796   6.896  16.854  0.00  0.00    +0.000 C 
ATOM     24  C   UNL     1       5.302   5.766  16.016  0.00  0.00    +0.000 C 
ENDBRANCH  10  22
BRANCH   8  25
ATOM     25  C   UNL     1       4.065   2.314  19.304  0.00  0.00    +0.000 C 
ATOM     26  O   UNL     1       3.617   1.416  18.603  0.00  0.00    +0.000 OA
BRANCH  25  27
ATOM     27  O   UNL     1       5.032   2.090  20.222  0.00  0.00    +0.000 OA
ATOM     28  H   UNL     1       4.817   1.377  20.872  0.00  0.00    +0.000 HD
ENDBRANCH  25  27
ENDBRANCH   8  25
TORSDOF 5
ENDMDL
MODEL 3
REMARK VINA RESULT:      -7.4      1.244      1.831
REMARK  Name = 
REMARK  6 active torsions:
REMARK  status: ('A' for Active; 'I' for Inactive)
REMARK    1  A    between atoms: C_1  and  C_2
REMARK    2  A    between atoms: C_3  and  N_4
REMARK    3  A    between atoms: N_6  and  C_7
REMARK    4  A    between atoms: C_14  and  C_15
REMARK    5  A    between atoms: C_15  and  O_17
REMARK    6  A    between atoms: N_19  and  C_20
REMARK                            x       y       z     vdW  Elec       q    Type
REMARK                         _______ _______ _______ _____ _____    ______ ____
ROOT
ATOM      1  C   UNL     1       1.896   8.159  19.068  0.00  0.00    +0.000 A 
ATOM      2  C   UNL     1       2.562   8.754  17.983  0.00  0.00    +0.000 A 
ATOM      3  F   UNL     1       2.326  10.026  17.639  0.00  0.00    +0.000 F 
ATOM      4  C   UNL     1       3.555   8.117  17.270  0.00  0.00    +0.000 A 
ATOM      5  C   UNL     1       3.953   6.840  17.642  0.00  0.00    +0.000 A 
ATOM      6  C   UNL     1       5.038   6.241  16.837  0.00  0.00    +0.000 A 
ATOM      7  O   UNL     1       5.557   6.848  15.900  0.00  0.00    +0.000 OA
ATOM      8  C   UNL     1       5.495   4.892  17.166  0.00  0.00    +0.000 A 
ATOM      9  C   UNL     1       4.884   4.296  18.196  0.00  0.00    +0.000 A 
ATOM     10  N   UNL     1       3.893   4.829  19.015  0.00  0.00    +0.000 N 
ATOM     11  C   UNL     1       3.371   6.152  18.738  0.00  0.00    +0.000 A 
ATOM     12  C   UNL     1       2.331   6.849  19.452  0.00  0.00    +0.000 A 
ATOM     13 CL   UNL     1       1.530   6.119  20.809  0.00  0.00    +0.000 Cl
ENDROOT
BRANCH   1  18
ATOM     14  C   UNL     1       1.458   9.105  22.219  0.00  0.00    +0.000 C 
ATOM     15  C   UNL     1       1.028   9.770  20.934  0.00  0.00    +0.000 C 
ATOM     16  C   UNL     1      -0.503   9.960  20.776  0.00  0.00    +0.000 C 
ATOM     17  C   UNL     1      -0.224   9.695  19.285  0.00  0.00    +0.000 C 
ATOM     18  N   UNL     1       0.921   8.946  19.740  0.00  0.00    +0.000 N 
BRANCH  16  19
ATOM     19  N   UNL     1      -0.906  11.348  21.021  0.00  0.00    +0.000 NA
ATOM     20  H   UNL     1      -0.139  12.010  21.129  0.00  0.00    +0.000 HD
ATOM     21  H   UNL     1      -1.492  11.452  21.850  0.00  0.00    +0.000 HD
ENDBRANCH  16  19
ENDBRANCH   1  18
BRANCH  10  22
ATOM     22  C   UNL     1       3.312   3.910  20.024  0.00  0.00    +0.000 C 
ATOM     23  C   UNL     1       2.318   2.802  19.745  0.00  0.00    +0.000 C 
ATOM     24  C   UNL     1       3.733   2.456  20.064  0.00  0.00    +0.000 C 
ENDBRANCH  10  22
BRANCH   8  25
ATOM     25  C   UNL     1       6.555   4.188  16.420  0.00  0.00    +0.000 C 
ATOM     26  O   UNL     1       7.746   4.445  16.539  0.00  0.00    +0.000 OA
BRANCH  25  27
ATOM     27  O   UNL     1       6.111   3.232  15.574  0.00  0.00    +0.000 OA
ATOM     28  H   UNL     1       6.173   2.312  15.933  0.00  0.00    +0.000 HD
ENDBRANCH  25  27
ENDBRANCH   8  25
TORSDOF 5
ENDMDL
MODEL 4
REMARK VINA RESULT:      -7.0      1.594      1.898
REMARK  Name = 
REMARK  6 active torsions:
REMARK  status: ('A' for Active; 'I' for Inactive)
REMARK    1  A    between atoms: C_1  and  C_2
REMARK    2  A    between atoms: C_3  and  N_4
REMARK    3  A    between atoms: N_6  and  C_7
REMARK    4  A    between atoms: C_14  and  C_15
REMARK    5  A    between atoms: C_15  and  O_17
REMARK    6  A    between atoms: N_19  and  C_20
REMARK                            x       y       z     vdW  Elec       q    Type
REMARK                         _______ _______ _______ _____ _____    ______ ____
ROOT
ATOM      1  C   UNL     1       2.027   7.958  19.564  0.00  0.00    +0.000 A 
ATOM      2  C   UNL     1       2.553   8.704  18.495  0.00  0.00    +0.000 A 
ATOM      3  F   UNL     1       2.386  10.030  18.429  0.00  0.00    +0.000 F 
ATOM      4  C   UNL     1       3.343   8.151  17.511  0.00  0.00    +0.000 A 
ATOM      5  C   UNL     1       3.673   6.804  17.574  0.00  0.00    +0.000 A 
ATOM      6  C   UNL     1       4.541   6.299  16.490  0.00  0.00    +0.000 A 
ATOM      7  O   UNL     1       4.950   7.038  15.594  0.00  0.00    +0.000 OA
ATOM      8  C   UNL     1       4.914   4.887  16.487  0.00  0.00    +0.000 A 
ATOM      9  C   UNL     1       4.433   4.146  17.493  0.00  0.00    +0.000 A 
ATOM     10  N   UNL     1       3.652   4.577  18.561  0.00  0.00    +0.000 N 
ATOM     11  C   UNL     1       3.221   5.959  18.621  0.00  0.00    +0.000 A 
ATOM     12  C   UNL     1       2.391   6.574  19.626  0.00  0.00    +0.000 A 
ATOM     13 CL   UNL     1       1.766   5.653  20.959  0.00  0.00    +0.000 Cl
ENDROOT
BRANCH   1  18
ATOM     14  C   UNL     1      -0.701   9.844  19.428  0.00  0.00    +0.000 C 
ATOM     15  C   UNL     1      -0.152   9.005  20.557  0.00  0.00    +0.000 C 
ATOM     16  C   UNL     1       0.197   9.791  21.847  0.00  0.00    +0.000 C 
ATOM     17  C   UNL     1       1.347   8.773  21.967  0.00  0.00    +0.000 C 
ATOM     18  N   UNL     1       1.262   8.664  20.532  0.00  0.00    +0.000 N 
BRANCH  16  19
ATOM     19  N   UNL     1      -0.815   9.602  22.890  0.00  0.00    +0.000 NA
ATOM     20  H   UNL     1      -0.627  10.080  23.769  0.00  0.00    +0.000 HD
ATOM     21  H   UNL     1      -0.966   8.621  23.126  0.00  0.00    +0.000 HD
ENDBRANCH  16  19
ENDBRANCH   1  18
BRANCH  10  22
ATOM     22  C   UNL     1       3.165   3.523  19.484  0.00  0.00    +0.000 C 
ATOM     23  C   UNL     1       1.986   2.604  19.237  0.00  0.00    +0.000 C 
ATOM     24  C   UNL     1       3.372   2.061  19.150  0.00  0.00    +0.000 C 
ENDBRANCH  10  22
BRANCH   8  25
ATOM     25  C   UNL     1       5.759   4.270  15.446  0.00  0.00    +0.000 C 
ATOM     26  O   UNL     1       6.847   3.758  15.679  0.00  0.00    +0.000 OA
BRANCH  25  27
ATOM     27  O   UNL     1       5.243   4.319  14.198  0.00  0.00    +0.000 OA
ATOM     28  H   UNL     1       4.941   5.219  13.919  0.00  0.00    +0.000 HD
ENDBRANCH  25  27
ENDBRANCH   8  25
TORSDOF 5
ENDMDL
MODEL 5
REMARK VINA RESULT:      -6.9      0.451      1.122
REMARK  Name = 
REMARK  6 active torsions:
REMARK  status: ('A' for Active; 'I' for Inactive)
REMARK    1  A    between atoms: C_1  and  C_2
REMARK    2  A    between atoms: C_3  and  N_4
REMARK    3  A    between atoms: N_6  and  C_7
REMARK    4  A    between atoms: C_14  and  C_15
REMARK    5  A    between atoms: C_15  and  O_17
REMARK    6  A    between atoms: N_19  and  C_20
REMARK                            x       y       z     vdW  Elec       q    Type
REMARK                         _______ _______ _______ _____ _____    ______ ____
ROOT
ATOM      1  C   UNL     1       1.312   8.904  19.156  0.00  0.00    +0.000 A 
ATOM      2  C   UNL     1       2.068   9.260  18.025  0.00  0.00    +0.000 A 
ATOM      3  F   UNL     1       1.960  10.475  17.475  0.00  0.00    +0.000 F 
ATOM      4  C   UNL     1       3.024   8.436  17.471  0.00  0.00    +0.000 A 
ATOM      5  C   UNL     1       3.292   7.207  18.059  0.00  0.00    +0.000 A 
ATOM      6  C   UNL     1       4.347   6.398  17.412  0.00  0.00    +0.000 A 
ATOM      7  O   UNL     1       4.952   6.801  16.420  0.00  0.00    +0.000 OA
ATOM      8  C   UNL     1       4.668   5.086  17.971  0.00  0.00    +0.000 A 
ATOM      9  C   UNL     1       3.968   4.716  19.051  0.00  0.00    +0.000 A 
ATOM     10  N   UNL     1       3.001   5.454  19.725  0.00  0.00    +0.000 N 
ATOM     11  C   UNL     1       2.610   6.754  19.218  0.00  0.00    +0.000 A 
ATOM     12  C   UNL     1       1.613   7.641  19.761  0.00  0.00    +0.000 A 
ATOM     13 CL   UNL     1       0.701   7.208  21.173  0.00  0.00    +0.000 Cl
ENDROOT
BRANCH   1  18
ATOM     14  C   UNL     1       0.914  10.456  22.062  0.00  0.00    +0.000 C 
ATOM     15  C   UNL     1       0.542  10.893  20.665  0.00  0.00    +0.000 C 
ATOM     16  C   UNL     1      -0.970  11.152  20.441  0.00  0.00    +0.000 C 
ATOM     17  C   UNL     1      -0.697  10.592  19.033  0.00  0.00    +0.000 C 
ATOM     18  N   UNL     1       0.389   9.867  19.646  0.00  0.00    +0.000 N 
BRANCH  16  19
ATOM     19  N   UNL     1      -1.278  12.585  20.412  0.00  0.00    +0.000 NA
ATOM     20  H   UNL     1      -1.856  12.889  19.630  0.00  0.00    +0.000 HD
ATOM     21  H   UNL     1      -0.443  13.172  20.395  0.00  0.00    +0.000 HD
ENDBRANCH  16  19
ENDBRANCH   1  18
BRANCH  10  22
ATOM     22  C   UNL     1       2.303   4.761  20.835  0.00  0.00    +0.000 C 
ATOM     23  C   UNL     1       1.170   3.766  20.686  0.00  0.00    +0.000 C 
ATOM     24  C   UNL     1       2.526   3.282  21.072  0.00  0.00    +0.000 C 
ENDBRANCH  10  22
BRANCH   8  25
ATOM     25  C   UNL     1       5.687   4.185  17.399  0.00  0.00    +0.000 C 
ATOM     26  O   UNL     1       5.550   3.611  16.325  0.00  0.00    +0.000 OA
BRANCH  25  27
ATOM     27  O   UNL     1       6.793   4.027  18.159  0.00  0.00    +0.000 OA
ATOM     28  H   UNL     1       7.621   3.869  17.642  0.00  0.00    +0.000 HD
ENDBRANCH  25  27
ENDBRANCH   8  25
TORSDOF 5
ENDMDL
MODEL 6
REMARK VINA RESULT:      -6.8      3.116      6.638
REMARK  Name = 
REMARK  6 active torsions:
REMARK  status: ('A' for Active; 'I' for Inactive)
REMARK    1  A    between atoms: C_1  and  C_2
REMARK    2  A    between atoms: C_3  and  N_4
REMARK    3  A    between atoms: N_6  and  C_7
REMARK    4  A    between atoms: C_14  and  C_15
REMARK    5  A    between atoms: C_15  and  O_17
REMARK    6  A    between atoms: N_19  and  C_20
REMARK                            x       y       z     vdW  Elec       q    Type
REMARK                         _______ _______ _______ _____ _____    ______ ____
ROOT
ATOM      1  C   UNL     1       2.929   6.019  18.896  0.00  0.00    +0.000 A 
ATOM      2  C   UNL     1       3.382   6.727  17.769  0.00  0.00    +0.000 A 
ATOM      3  F   UNL     1       4.047   6.110  16.786  0.00  0.00    +0.000 F 
ATOM      4  C   UNL     1       3.096   8.058  17.554  0.00  0.00    +0.000 A 
ATOM      5  C   UNL     1       2.301   8.743  18.462  0.00  0.00    +0.000 A 
ATOM      6  C   UNL     1       2.028  10.160  18.142  0.00  0.00    +0.000 A 
ATOM      7  O   UNL     1       2.474  10.689  17.125  0.00  0.00    +0.000 OA
ATOM      8  C   UNL     1       1.209  10.944  19.065  0.00  0.00    +0.000 A 
ATOM      9  C   UNL     1       0.759  10.301  20.149  0.00  0.00    +0.000 A 
ATOM     10  N   UNL     1       0.947   8.961  20.475  0.00  0.00    +0.000 N 
ATOM     11  C   UNL     1       1.766   8.124  19.622  0.00  0.00    +0.000 A 
ATOM     12  C   UNL     1       2.095   6.735  19.815  0.00  0.00    +0.000 A 
ATOM     13 CL   UNL     1       1.512   5.858  21.195  0.00  0.00    +0.000 Cl
ENDROOT
BRANCH   1  18
ATOM     14  C   UNL     1       1.196   3.201  18.630  0.00  0.00    +0.000 C 
ATOM     15  C   UNL     1       2.651   3.481  18.340  0.00  0.00    +0.000 C 
ATOM     16  C   UNL     1       3.657   2.657  19.186  0.00  0.00    +0.000 C 
ATOM     17  C   UNL     1       4.513   3.936  19.126  0.00  0.00    +0.000 C 
ATOM     18  N   UNL     1       3.264   4.640  18.971  0.00  0.00    +0.000 N 
BRANCH  16  19
ATOM     19  N   UNL     1       4.249   1.563  18.411  0.00  0.00    +0.000 NA
ATOM     20  H   UNL     1       3.731   1.291  17.577  0.00  0.00    +0.000 HD
ATOM     21  H   UNL     1       4.376   0.711  18.958  0.00  0.00    +0.000 HD
ENDBRANCH  16  19
ENDBRANCH   1  18
BRANCH  10  22
ATOM     22  C   UNL     1       0.426   8.528  21.795  0.00  0.00    +0.000 C 
ATOM     23  C   UNL     1       0.706   9.203  23.122  0.00  0.00    +0.000 C 
ATOM     24  C   UNL     1      -0.641   9.342  22.498  0.00  0.00    +0.000 C 
ENDBRANCH  10  22
BRANCH   8  25
ATOM     25  C   UNL     1       0.888  12.369  18.858  0.00  0.00    +0.000 C 
ATOM     26  O   UNL     1       1.309  13.265  19.579  0.00  0.00    +0.000 OA
BRANCH  25  27
ATOM     27  O   UNL     1       0.076  12.619  17.807  0.00  0.00    +0.000 OA
ATOM     28  H   UNL     1       0.523  13.064  17.045  0.00  0.00    +0.000 HD
ENDBRANCH  25  27
ENDBRANCH   8  25
TORSDOF 5
ENDMDL
MODEL 7
REMARK VINA RESULT:      -6.8      2.472      3.764
REMARK  Name = 
REMARK  6 active torsions:
REMARK  status: ('A' for Active; 'I' for Inactive)
REMARK    1  A    between atoms: C_1  and  C_2
REMARK    2  A    between atoms: C_3  and  N_4
REMARK    3  A    between atoms: N_6  and  C_7
REMARK    4  A    between atoms: C_14  and  C_15
REMARK    5  A    between atoms: C_15  and  O_17
REMARK    6  A    between atoms: N_19  and  C_20
REMARK                            x       y       z     vdW  Elec       q    Type
REMARK                         _______ _______ _______ _____ _____    ______ ____
ROOT
ATOM      1  C   UNL     1       1.434   8.156  19.648  0.00  0.00    +0.000 A 
ATOM      2  C   UNL     1       1.004   7.343  20.711  0.00  0.00    +0.000 A 
ATOM      3  F   UNL     1       0.017   7.733  21.526  0.00  0.00    +0.000 F 
ATOM      4  C   UNL     1       1.491   6.072  20.928  0.00  0.00    +0.000 A 
ATOM      5  C   UNL     1       2.426   5.538  20.051  0.00  0.00    +0.000 A 
ATOM      6  C   UNL     1       2.877   4.162  20.347  0.00  0.00    +0.000 A 
ATOM      7  O   UNL     1       2.438   3.532  21.308  0.00  0.00    +0.000 OA
ATOM      8  C   UNL     1       3.872   3.546  19.472  0.00  0.00    +0.000 A 
ATOM      9  C   UNL     1       4.302   4.292  18.447  0.00  0.00    +0.000 A 
ATOM     10  N   UNL     1       3.879   5.570  18.097  0.00  0.00    +0.000 N 
ATOM     11  C   UNL     1       2.912   6.257  18.928  0.00  0.00    +0.000 A 
ATOM     12  C   UNL     1       2.384   7.585  18.742  0.00  0.00    +0.000 A 
ATOM     13 CL   UNL     1       2.899   8.576  17.412  0.00  0.00    +0.000 Cl
ENDROOT
BRANCH   1  18
ATOM     14  C   UNL     1       1.013  10.741  21.688  0.00  0.00    +0.000 C 
ATOM     15  C   UNL     1       1.103  10.693  20.182  0.00  0.00    +0.000 C 
ATOM     16  C   UNL     1      -0.151  11.216  19.434  0.00  0.00    +0.000 C 
ATOM     17  C   UNL     1       0.192  10.115  18.414  0.00  0.00    +0.000 C 
ATOM     18  N   UNL     1       0.817   9.431  19.519  0.00  0.00    +0.000 N 
BRANCH  16  19
ATOM     19  N   UNL     1       0.063  12.559  18.887  0.00  0.00    +0.000 NA
ATOM     20  H   UNL     1      -0.785  13.065  18.635  0.00  0.00    +0.000 HD
ATOM     21  H   UNL     1       0.654  12.561  18.055  0.00  0.00    +0.000 HD
ENDBRANCH  16  19
ENDBRANCH   1  18
BRANCH  10  22
ATOM     22  C   UNL     1       4.599   6.213  16.970  0.00  0.00    +0.000 C 
ATOM     23  C   UNL     1       6.006   6.774  17.023  0.00  0.00    +0.000 C 
ATOM     24  C   UNL     1       5.750   5.499  16.293  0.00  0.00    +0.000 C 
ENDBRANCH  10  22
BRANCH   8  25
ATOM     25  C   UNL     1       4.410   2.187  19.681  0.00  0.00    +0.000 C 
ATOM     26  O   UNL     1       5.145   1.891  20.614  0.00  0.00    +0.000 OA
BRANCH  25  27
ATOM     27  O   UNL     1       4.036   1.282  18.750  0.00  0.00    +0.000 OA
ATOM     28  H   UNL     1       3.193   1.505  18.283  0.00  0.00    +0.000 HD
ENDBRANCH  25  27
ENDBRANCH   8  25
TORSDOF 5
ENDMDL
MODEL 8
REMARK VINA RESULT:      -6.6      4.606      6.386
REMARK  Name = 
REMARK  6 active torsions:
REMARK  status: ('A' for Active; 'I' for Inactive)
REMARK    1  A    between atoms: C_1  and  C_2
REMARK    2  A    between atoms: C_3  and  N_4
REMARK    3  A    between atoms: N_6  and  C_7
REMARK    4  A    between atoms: C_14  and  C_15
REMARK    5  A    between atoms: C_15  and  O_17
REMARK    6  A    between atoms: N_19  and  C_20
REMARK                            x       y       z     vdW  Elec       q    Type
REMARK                         _______ _______ _______ _____ _____    ______ ____
ROOT
ATOM      1  C   UNL     1       3.969   3.622  18.722  0.00  0.00    +0.000 A 
ATOM      2  C   UNL     1       3.843   2.674  17.691  0.00  0.00    +0.000 A 
ATOM      3  F   UNL     1       2.978   1.657  17.789  0.00  0.00    +0.000 F 
ATOM      4  C   UNL     1       4.515   2.774  16.492  0.00  0.00    +0.000 A 
ATOM      5  C   UNL     1       5.335   3.869  16.257  0.00  0.00    +0.000 A 
ATOM      6  C   UNL     1       5.999   3.907  14.937  0.00  0.00    +0.000 A 
ATOM      7  O   UNL     1       5.823   3.022  14.100  0.00  0.00    +0.000 OA
ATOM      8  C   UNL     1       6.888   5.025  14.630  0.00  0.00    +0.000 A 
ATOM      9  C   UNL     1       7.030   5.949  15.588  0.00  0.00    +0.000 A 
ATOM     10  N   UNL     1       6.396   5.986  16.826  0.00  0.00    +0.000 N 
ATOM     11  C   UNL     1       5.517   4.902  17.213  0.00  0.00    +0.000 A 
ATOM     12  C   UNL     1       4.804   4.755  18.457  0.00  0.00    +0.000 A 
ATOM     13 CL   UNL     1       4.943   5.943  19.716  0.00  0.00    +0.000 Cl
ENDROOT
BRANCH   1  18
ATOM     14  C   UNL     1       1.416   5.228  20.108  0.00  0.00    +0.000 C 
ATOM     15  C   UNL     1       1.805   3.770  20.180  0.00  0.00    +0.000 C 
ATOM     16  C   UNL     1       2.110   3.243  21.606  0.00  0.00    +0.000 C 
ATOM     17  C   UNL     1       3.164   2.377  20.891  0.00  0.00    +0.000 C 
ATOM     18  N   UNL     1       3.186   3.416  19.890  0.00  0.00    +0.000 N 
BRANCH  16  19
ATOM     19  N   UNL     1       1.005   2.439  22.136  0.00  0.00    +0.000 NA
ATOM     20  H   UNL     1       1.131   2.103  23.090  0.00  0.00    +0.000 HD
ATOM     21  H   UNL     1       0.804   1.615  21.568  0.00  0.00    +0.000 HD
ENDBRANCH  16  19
ENDBRANCH   1  18
BRANCH  10  22
ATOM     22  C   UNL     1       6.815   7.073  17.745  0.00  0.00    +0.000 C 
ATOM     23  C   UNL     1       8.111   7.120  18.527  0.00  0.00    +0.000 C 
ATOM     24  C   UNL     1       7.931   8.017  17.350  0.00  0.00    +0.000 C 
ENDBRANCH  10  22
BRANCH   8  25
ATOM     25  C   UNL     1       7.619   5.157  13.354  0.00  0.00    +0.000 C 
ATOM     26  O   UNL     1       8.598   5.879  13.211  0.00  0.00    +0.000 OA
BRANCH  25  27
ATOM     27  O   UNL     1       7.118   4.422  12.337  0.00  0.00    +0.000 OA
ATOM     28  H   UNL     1       7.781   4.185  11.642  0.00  0.00    +0.000 HD
ENDBRANCH  25  27
ENDBRANCH   8  25
TORSDOF 5
ENDMDL
MODEL 9
REMARK VINA RESULT:      -6.6      3.399      6.877
REMARK  Name = 
REMARK  6 active torsions:
REMARK  status: ('A' for Active; 'I' for Inactive)
REMARK    1  A    between atoms: C_1  and  C_2
REMARK    2  A    between atoms: C_3  and  N_4
REMARK    3  A    between atoms: N_6  and  C_7
REMARK    4  A    between atoms: C_14  and  C_15
REMARK    5  A    between atoms: C_15  and  O_17
REMARK    6  A    between atoms: N_19  and  C_20
REMARK                            x       y       z     vdW  Elec       q    Type
REMARK                         _______ _______ _______ _____ _____    ______ ____
ROOT
ATOM      1  C   UNL     1       2.534   7.271  18.999  0.00  0.00    +0.000 A 
ATOM      2  C   UNL     1       2.883   8.130  17.943  0.00  0.00    +0.000 A 
ATOM      3  F   UNL     1       3.616   7.694  16.911  0.00  0.00    +0.000 F 
ATOM      4  C   UNL     1       2.428   9.427  17.847  0.00  0.00    +0.000 A 
ATOM      5  C   UNL     1       1.558   9.919  18.811  0.00  0.00    +0.000 A 
ATOM      6  C   UNL     1       1.102  11.312  18.619  0.00  0.00    +0.000 A 
ATOM      7  O   UNL     1       1.470  11.984  17.655  0.00  0.00    +0.000 OA
ATOM      8  C   UNL     1       0.197  11.898  19.605  0.00  0.00    +0.000 A 
ATOM      9  C   UNL     1      -0.159  11.107  20.624  0.00  0.00    +0.000 A 
ATOM     10  N   UNL     1       0.201   9.778  20.829  0.00  0.00    +0.000 N 
ATOM     11  C   UNL     1       1.115   9.134  19.907  0.00  0.00    +0.000 A 
ATOM     12  C   UNL     1       1.621   7.787  19.975  0.00  0.00    +0.000 A 
ATOM     13 CL   UNL     1       1.164   6.722  21.268  0.00  0.00    +0.000 Cl
ENDROOT
BRANCH   1  18
ATOM     14  C   UNL     1       1.431   4.416  17.715  0.00  0.00    +0.000 C 
ATOM     15  C   UNL     1       2.842   4.888  17.971  0.00  0.00    +0.000 C 
ATOM     16  C   UNL     1       3.660   4.008  18.951  0.00  0.00    +0.000 C 
ATOM     17  C   UNL     1       4.280   5.347  19.389  0.00  0.00    +0.000 C 
ATOM     18  N   UNL     1       3.043   5.944  18.950  0.00  0.00    +0.000 N 
BRANCH  16  19
ATOM     19  N   UNL     1       4.625   3.160  18.245  0.00  0.00    +0.000 NA
ATOM     20  H   UNL     1       5.042   3.577  17.414  0.00  0.00    +0.000 HD
ATOM     21  H   UNL     1       4.228   2.268  17.947  0.00  0.00    +0.000 HD
ENDBRANCH  16  19
ENDBRANCH   1  18
BRANCH  10  22
ATOM     22  C   UNL     1      -0.251   9.165  22.101  0.00  0.00    +0.000 C 
ATOM     23  C   UNL     1       0.398   9.357  23.457  0.00  0.00    +0.000 C 
ATOM     24  C   UNL     1      -0.907  10.017  23.168  0.00  0.00    +0.000 C 
ENDBRANCH  10  22
BRANCH   8  25
ATOM     25  C   UNL     1      -0.306  13.283  19.526  0.00  0.00    +0.000 C 
ATOM     26  O   UNL     1      -0.265  14.068  20.466  0.00  0.00    +0.000 OA
BRANCH  25  27
ATOM     27  O   UNL     1      -0.833  13.626  18.330  0.00  0.00    +0.000 OA
ATOM     28  H   UNL     1      -0.617  14.547  18.041  0.00  0.00    +0.000 HD
ENDBRANCH  25  27
ENDBRANCH   8  25
TORSDOF 5
ENDMDL
