MODEL 1
REMARK VINA RESULT:      -8.4      0.000      0.000
REMARK  Name = 
REMARK  8 active torsions:
REMARK  status: ('A' for Active; 'I' for Inactive)
REMARK    1  A    between atoms: C_1  and  C_2
REMARK    2  A    between atoms: C_2  and  C_3
REMARK    3  A    between atoms: C_3  and  C_4
REMARK    4  A    between atoms: C_4  and  N_5
REMARK    5  A    between atoms: C_11  and  C_12
REMARK    6  A    between atoms: C_12  and  O_13
REMARK    7  A    between atoms: C_12  and  C_14
REMARK    8  A    between atoms: C_12  and  C_20
REMARK                            x       y       z     vdW  Elec       q    Type
REMARK                         _______ _______ _______ _____ _____    ______ ____
ROOT
ATOM      1  C   UNL     1       3.189   6.050  19.093  0.00  0.00    +0.000 C 
ENDROOT
BRANCH   1   8
ATOM      2  N   UNL     1       6.283   5.846  16.991  0.00  0.00    +0.000 N 
ATOM      3  C   UNL     1       6.572   4.888  18.162  0.00  0.00    +0.000 C 
ATOM      4  C   UNL     1       5.444   3.870  18.286  0.00  0.00    +0.000 C 
ATOM      5  C   UNL     1       4.254   4.276  17.418  0.00  0.00    +0.000 C 
ATOM      6  C   UNL     1       4.724   4.185  15.955  0.00  0.00    +0.000 C 
ATOM      7  C   UNL     1       5.963   5.048  15.720  0.00  0.00    +0.000 C 
ATOM      8  C   UNL     1       3.816   5.743  17.673  0.00  0.00    +0.000 C 
ATOM      9  C   UNL     1       5.029   6.676  17.374  0.00  0.00    +0.000 C 
BRANCH   2  10
ATOM     10  C   UNL     1       7.488   6.813  16.762  0.00  0.00    +0.000 C 
BRANCH  10  11
ATOM     11  C   UNL     1       7.819   7.605  18.030  0.00  0.00    +0.000 C 
BRANCH  11  13
ATOM     12  C   UNL     1       8.965   9.605  18.936  0.00  0.00    +0.000 C 
ATOM     13  C   UNL     1       8.042   9.100  17.830  0.00  0.00    +0.000 C 
ENDBRANCH  11  13
ENDBRANCH  10  11
ENDBRANCH   2  10
ENDBRANCH   1   8
BRANCH   1  14
ATOM     14  C   UNL     1       2.326   7.341  19.056  0.00  0.00    +0.000 A 
ATOM     15  C   UNL     1       2.136   8.080  17.870  0.00  0.00    +0.000 A 
ATOM     16  C   UNL     1       1.482   9.314  17.875  0.00  0.00    +0.000 A 
ATOM     17  C   UNL     1       0.977   9.832  19.061  0.00  0.00    +0.000 A 
ATOM     18  C   UNL     1       1.102   9.102  20.237  0.00  0.00    +0.000 A 
ATOM     19  C   UNL     1       1.749   7.861  20.233  0.00  0.00    +0.000 A 
ENDBRANCH   1  14
BRANCH   1  20
ATOM     20  C   UNL     1       2.414   4.848  19.682  0.00  0.00    +0.000 A 
ATOM     21  C   UNL     1       1.471   4.132  18.915  0.00  0.00    +0.000 A 
ATOM     22  C   UNL     1       0.796   3.011  19.435  0.00  0.00    +0.000 A 
ATOM     23  C   UNL     1       1.060   2.569  20.727  0.00  0.00    +0.000 A 
ATOM     24  C   UNL     1       1.970   3.265  21.511  0.00  0.00    +0.000 A 
ATOM     25  C   UNL     1       2.632   4.398  20.999  0.00  0.00    +0.000 A 
ENDBRANCH   1  20
BRANCH   1  26
ATOM     26  O   UNL     1       4.340   6.302  19.928  0.00  0.00    +0.000 OA
ATOM     27  H   UNL     1       4.489   5.546  20.516  0.00  0.00    +0.000 HD
ENDBRANCH   1  26
TORSDOF 7
ENDMDL
MODEL 2
REMARK VINA RESULT:      -8.3      0.362      1.377
REMARK  Name = 
REMARK  8 active torsions:
REMARK  status: ('A' for Active; 'I' for Inactive)
REMARK    1  A    between atoms: C_1  and  C_2
REMARK    2  A    between atoms: C_2  and  C_3
REMARK    3  A    between atoms: C_3  and  C_4
REMARK    4  A    between atoms: C_4  and  N_5
REMARK    5  A    between atoms: C_11  and  C_12
REMARK    6  A    between atoms: C_12  and  O_13
REMARK    7  A    between atoms: C_12  and  C_14
REMARK    8  A    between atoms: C_12  and  C_20
REMARK                            x       y       z     vdW  Elec       q    Type
REMARK                         _______ _______ _______ _____ _____    ______ ____
ROOT
ATOM      1  C   UNL     1       3.279   5.990  18.882  0.00  0.00    +0.000 C 
ENDROOT
BRANCH   1   8
ATOM      2  N   UNL     1       6.441   5.876  16.878  0.00  0.00    +0.000 N 
ATOM      3  C   UNL     1       6.635   4.768  17.930  0.00  0.00    +0.000 C 
ATOM      4  C   UNL     1       5.454   3.805  17.888  0.00  0.00    +0.000 C 
ATOM      5  C   UNL     1       4.321   4.378  17.037  0.00  0.00    +0.000 C 
ATOM      6  C   UNL     1       4.845   4.441  15.591  0.00  0.00    +0.000 C 
ATOM      7  C   UNL     1       6.133   5.257  15.507  0.00  0.00    +0.000 C 
ATOM      8  C   UNL     1       3.947   5.824  17.457  0.00  0.00    +0.000 C 
ATOM      9  C   UNL     1       5.216   6.720  17.317  0.00  0.00    +0.000 C 
BRANCH   2  10
ATOM     10  C   UNL     1       7.701   6.797  16.812  0.00  0.00    +0.000 C 
BRANCH  10  11
ATOM     11  C   UNL     1       7.833   7.657  18.072  0.00  0.00    +0.000 C 
BRANCH  11  13
ATOM     12  C   UNL     1       8.980   9.699  18.874  0.00  0.00    +0.000 C 
ATOM     13  C   UNL     1       8.012   9.151  17.829  0.00  0.00    +0.000 C 
ENDBRANCH  11  13
ENDBRANCH  10  11
ENDBRANCH   2  10
ENDBRANCH   1   8
BRANCH   1  14
ATOM     14  C   UNL     1       2.494   7.327  18.981  0.00  0.00    +0.000 A 
ATOM     15  C   UNL     1       1.889   7.751  20.181  0.00  0.00    +0.000 A 
ATOM     16  C   UNL     1       1.065   8.879  20.226  0.00  0.00    +0.000 A 
ATOM     17  C   UNL     1       0.843   9.626  19.077  0.00  0.00    +0.000 A 
ATOM     18  C   UNL     1       1.468   9.263  17.889  0.00  0.00    +0.000 A 
ATOM     19  C   UNL     1       2.302   8.140  17.845  0.00  0.00    +0.000 A 
ENDBRANCH   1  14
BRANCH   1  20
ATOM     20  C   UNL     1       2.411   4.774  19.285  0.00  0.00    +0.000 A 
ATOM     21  C   UNL     1       2.451   4.240  20.589  0.00  0.00    +0.000 A 
ATOM     22  C   UNL     1       1.631   3.160  20.970  0.00  0.00    +0.000 A 
ATOM     23  C   UNL     1       0.740   2.601  20.061  0.00  0.00    +0.000 A 
ATOM     24  C   UNL     1       0.693   3.094  18.764  0.00  0.00    +0.000 A 
ATOM     25  C   UNL     1       1.526   4.161  18.376  0.00  0.00    +0.000 A 
ENDBRANCH   1  20
BRANCH   1  26
ATOM     26  O   UNL     1       4.406   6.062  19.782  0.00  0.00    +0.000 OA
ATOM     27  H   UNL     1       4.335   6.857  20.332  0.00  0.00    +0.000 HD
ENDBRANCH   1  26
TORSDOF 7
ENDMDL
MODEL 3
REMARK VINA RESULT:      -8.2      0.658      1.206
REMARK  Name = 
REMARK  8 active torsions:
REMARK  status: ('A' for Active; 'I' for Inactive)
REMARK    1  A    between atoms: C_1  and  C_2
REMARK    2  A    between atoms: C_2  and  C_3
REMARK    3  A    between atoms: C_3  and  C_4
REMARK    4  A    between atoms: C_4  and  N_5
REMARK    5  A    between atoms: C_11  and  C_12
REMARK    6  A    between atoms: C_12  and  O_13
REMARK    7  A    between atoms: C_12  and  C_14
REMARK    8  A    between atoms: C_12  and  C_20
REMARK                            x       y       z     vdW  Elec       q    Type
REMARK                         _______ _______ _______ _____ _____    ______ ____
ROOT
ATOM      1  C   UNL     1       3.143   6.190  18.965  0.00  0.00    +0.000 C 
ENDROOT
BRANCH   1   8
ATOM      2  N   UNL     1       6.585   6.003  17.501  0.00  0.00    +0.000 N 
ATOM      3  C   UNL     1       6.501   4.755  18.401  0.00  0.00    +0.000 C 
ATOM      4  C   UNL     1       5.271   3.934  18.031  0.00  0.00    +0.000 C 
ATOM      5  C   UNL     1       4.355   4.727  17.100  0.00  0.00    +0.000 C 
ATOM      6  C   UNL     1       5.125   4.919  15.781  0.00  0.00    +0.000 C 
ATOM      7  C   UNL     1       6.471   5.600  16.025  0.00  0.00    +0.000 C 
ATOM      8  C   UNL     1       4.033   6.139  17.658  0.00  0.00    +0.000 C 
ATOM      9  C   UNL     1       5.375   6.907  17.854  0.00  0.00    +0.000 C 
BRANCH   2  10
ATOM     10  C   UNL     1       7.908   6.787  17.772  0.00  0.00    +0.000 C 
BRANCH  10  11
ATOM     11  C   UNL     1       7.698   8.299  17.650  0.00  0.00    +0.000 C 
BRANCH  11  13
ATOM     12  C   UNL     1       8.696  10.547  17.930  0.00  0.00    +0.000 C 
ATOM     13  C   UNL     1       8.580   9.158  18.549  0.00  0.00    +0.000 C 
ENDBRANCH  11  13
ENDBRANCH  10  11
ENDBRANCH   2  10
ENDBRANCH   1   8
BRANCH   1  14
ATOM     14  C   UNL     1       2.330   7.512  19.038  0.00  0.00    +0.000 A 
ATOM     15  C   UNL     1       1.776   7.982  20.246  0.00  0.00    +0.000 A 
ATOM     16  C   UNL     1       0.926   9.091  20.278  0.00  0.00    +0.000 A 
ATOM     17  C   UNL     1       0.628   9.775  19.106  0.00  0.00    +0.000 A 
ATOM     18  C   UNL     1       1.201   9.366  17.907  0.00  0.00    +0.000 A 
ATOM     19  C   UNL     1       2.060   8.262  17.876  0.00  0.00    +0.000 A 
ENDBRANCH   1  14
BRANCH   1  20
ATOM     20  C   UNL     1       2.242   4.942  19.129  0.00  0.00    +0.000 A 
ATOM     21  C   UNL     1       1.478   4.440  18.057  0.00  0.00    +0.000 A 
ATOM     22  C   UNL     1       0.690   3.280  18.192  0.00  0.00    +0.000 A 
ATOM     23  C   UNL     1       0.662   2.586  19.396  0.00  0.00    +0.000 A 
ATOM     24  C   UNL     1       1.391   3.069  20.476  0.00  0.00    +0.000 A 
ATOM     25  C   UNL     1       2.164   4.239  20.348  0.00  0.00    +0.000 A 
ENDBRANCH   1  20
BRANCH   1  26
ATOM     26  O   UNL     1       4.109   6.196  20.037  0.00  0.00    +0.000 OA
ATOM     27  H   UNL     1       4.276   7.107  20.323  0.00  0.00    +0.000 HD
ENDBRANCH   1  26
TORSDOF 7
ENDMDL
MODEL 4
REMARK VINA RESULT:      -8.2      1.716      4.979
REMARK  Name = 
REMARK  8 active torsions:
REMARK  status: ('A' for Active; 'I' for Inactive)
REMARK    1  A    between atoms: C_1  and  C_2
REMARK    2  A    between atoms: C_2  and  C_3
REMARK    3  A    between atoms: C_3  and  C_4
REMARK    4  A    between atoms: C_4  and  N_5
REMARK    5  A    between atoms: C_11  and  C_12
REMARK    6  A    between atoms: C_12  and  O_13
REMARK    7  A    between atoms: C_12  and  C_14
REMARK    8  A    between atoms: C_12  and  C_20
REMARK                            x       y       z     vdW  Elec       q    Type
REMARK                         _______ _______ _______ _____ _____    ______ ____
ROOT
ATOM      1  C   UNL     1       3.065   4.987  18.400  0.00  0.00    +0.000 C 
ENDROOT
BRANCH   1   8
ATOM      2  N   UNL     1       6.049   4.709  16.154  0.00  0.00    +0.000 N 
ATOM      3  C   UNL     1       5.348   5.995  15.675  0.00  0.00    +0.000 C 
ATOM      4  C   UNL     1       5.138   6.938  16.854  0.00  0.00    +0.000 C 
ATOM      5  C   UNL     1       5.414   6.219  18.174  0.00  0.00    +0.000 C 
ATOM      6  C   UNL     1       6.916   5.884  18.187  0.00  0.00    +0.000 C 
ATOM      7  C   UNL     1       7.307   5.061  16.961  0.00  0.00    +0.000 C 
ATOM      8  C   UNL     1       4.639   4.880  18.285  0.00  0.00    +0.000 C 
ATOM      9  C   UNL     1       5.060   3.969  17.092  0.00  0.00    +0.000 C 
BRANCH   2  10
ATOM     10  C   UNL     1       6.395   3.787  14.942  0.00  0.00    +0.000 C 
BRANCH  10  11
ATOM     11  C   UNL     1       5.432   4.015  13.773  0.00  0.00    +0.000 C 
BRANCH  11  13
ATOM     12  C   UNL     1       4.603   3.255  11.567  0.00  0.00    +0.000 C 
ATOM     13  C   UNL     1       5.840   3.370  12.454  0.00  0.00    +0.000 C 
ENDBRANCH  11  13
ENDBRANCH  10  11
ENDBRANCH   2  10
ENDBRANCH   1   8
BRANCH   1  14
ATOM     14  C   UNL     1       2.514   4.017  19.480  0.00  0.00    +0.000 A 
ATOM     15  C   UNL     1       1.133   3.776  19.635  0.00  0.00    +0.000 A 
ATOM     16  C   UNL     1       0.638   3.017  20.699  0.00  0.00    +0.000 A 
ATOM     17  C   UNL     1       1.512   2.458  21.623  0.00  0.00    +0.000 A 
ATOM     18  C   UNL     1       2.882   2.634  21.467  0.00  0.00    +0.000 A 
ATOM     19  C   UNL     1       3.380   3.385  20.396  0.00  0.00    +0.000 A 
ENDBRANCH   1  14
BRANCH   1  20
ATOM     20  C   UNL     1       2.575   6.439  18.618  0.00  0.00    +0.000 A 
ATOM     21  C   UNL     1       2.311   7.298  17.531  0.00  0.00    +0.000 A 
ATOM     22  C   UNL     1       1.825   8.606  17.726  0.00  0.00    +0.000 A 
ATOM     23  C   UNL     1       1.575   9.078  19.009  0.00  0.00    +0.000 A 
ATOM     24  C   UNL     1       1.844   8.261  20.099  0.00  0.00    +0.000 A 
ATOM     25  C   UNL     1       2.348   6.960  19.907  0.00  0.00    +0.000 A 
ENDBRANCH   1  20
BRANCH   1  26
ATOM     26  O   UNL     1       2.596   4.539  17.111  0.00  0.00    +0.000 OA
ATOM     27  H   UNL     1       2.898   5.150  16.421  0.00  0.00    +0.000 HD
ENDBRANCH   1  26
TORSDOF 7
ENDMDL
MODEL 5
REMARK VINA RESULT:      -7.9      2.167      6.882
REMARK  Name = 
REMARK  8 active torsions:
REMARK  status: ('A' for Active; 'I' for Inactive)
REMARK    1  A    between atoms: C_1  and  C_2
REMARK    2  A    between atoms: C_2  and  C_3
REMARK    3  A    between atoms: C_3  and  C_4
REMARK    4  A    between atoms: C_4  and  N_5
REMARK    5  A    between atoms: C_11  and  C_12
REMARK    6  A    between atoms: C_12  and  O_13
REMARK    7  A    between atoms: C_12  and  C_14
REMARK    8  A    between atoms: C_12  and  C_20
REMARK                            x       y       z     vdW  Elec       q    Type
REMARK                         _______ _______ _______ _____ _____    ______ ____
ROOT
ATOM      1  C   UNL     1       5.943   4.819  16.545  0.00  0.00    +0.000 C 
ENDROOT
BRANCH   1   8
ATOM      2  N   UNL     1       2.824   3.816  18.359  0.00  0.00    +0.000 N 
ATOM      3  C   UNL     1       3.805   4.178  19.491  0.00  0.00    +0.000 C 
ATOM      4  C   UNL     1       4.358   5.580  19.265  0.00  0.00    +0.000 C 
ATOM      5  C   UNL     1       4.005   6.080  17.865  0.00  0.00    +0.000 C 
ATOM      6  C   UNL     1       2.474   6.237  17.826  0.00  0.00    +0.000 C 
ATOM      7  C   UNL     1       1.778   4.927  18.192  0.00  0.00    +0.000 C 
ATOM      8  C   UNL     1       4.394   5.059  16.763  0.00  0.00    +0.000 C 
ATOM      9  C   UNL     1       3.647   3.721  17.049  0.00  0.00    +0.000 C 
BRANCH   2  10
ATOM     10  C   UNL     1       2.144   2.438  18.641  0.00  0.00    +0.000 C 
BRANCH  10  11
ATOM     11  C   UNL     1       0.827   2.609  19.403  0.00  0.00    +0.000 C 
BRANCH  11  13
ATOM     12  C   UNL     1       1.561   2.431  21.761  0.00  0.00    +0.000 C 
ATOM     13  C   UNL     1       0.928   3.358  20.726  0.00  0.00    +0.000 C 
ENDBRANCH  11  13
ENDBRANCH  10  11
ENDBRANCH   2  10
ENDBRANCH   1   8
BRANCH   1  14
ATOM     14  C   UNL     1       6.281   4.681  15.036  0.00  0.00    +0.000 A 
ATOM     15  C   UNL     1       5.528   3.858  14.173  0.00  0.00    +0.000 A 
ATOM     16  C   UNL     1       5.924   3.625  12.853  0.00  0.00    +0.000 A 
ATOM     17  C   UNL     1       7.071   4.229  12.353  0.00  0.00    +0.000 A 
ATOM     18  C   UNL     1       7.805   5.087  13.163  0.00  0.00    +0.000 A 
ATOM     19  C   UNL     1       7.404   5.329  14.482  0.00  0.00    +0.000 A 
ENDBRANCH   1  14
BRANCH   1  20
ATOM     20  C   UNL     1       6.821   5.884  17.244  0.00  0.00    +0.000 A 
ATOM     21  C   UNL     1       6.833   7.227  16.814  0.00  0.00    +0.000 A 
ATOM     22  C   UNL     1       7.599   8.207  17.474  0.00  0.00    +0.000 A 
ATOM     23  C   UNL     1       8.356   7.871  18.590  0.00  0.00    +0.000 A 
ATOM     24  C   UNL     1       8.378   6.553  19.026  0.00  0.00    +0.000 A 
ATOM     25  C   UNL     1       7.629   5.568  18.355  0.00  0.00    +0.000 A 
ENDBRANCH   1  20
BRANCH   1  26
ATOM     26  O   UNL     1       6.185   3.545  17.179  0.00  0.00    +0.000 OA
ATOM     27  H   UNL     1       7.073   3.229  16.952  0.00  0.00    +0.000 HD
ENDBRANCH   1  26
TORSDOF 7
ENDMDL
MODEL 6
REMARK VINA RESULT:      -7.8      1.651      4.966
REMARK  Name = 
REMARK  8 active torsions:
REMARK  status: ('A' for Active; 'I' for Inactive)
REMARK    1  A    between atoms: C_1  and  C_2
REMARK    2  A    between atoms: C_2  and  C_3
REMARK    3  A    between atoms: C_3  and  C_4
REMARK    4  A    between atoms: C_4  and  N_5
REMARK    5  A    between atoms: C_11  and  C_12
REMARK    6  A    between atoms: C_12  and  O_13
REMARK    7  A    between atoms: C_12  and  C_14
REMARK    8  A    between atoms: C_12  and  C_20
REMARK                            x       y       z     vdW  Elec       q    Type
REMARK                         _______ _______ _______ _____ _____    ______ ____
ROOT
ATOM      1  C   UNL     1       2.990   5.092  18.475  0.00  0.00    +0.000 C 
ENDROOT
BRANCH   1   8
ATOM      2  N   UNL     1       6.022   4.699  16.313  0.00  0.00    +0.000 N 
ATOM      3  C   UNL     1       5.283   5.900  15.692  0.00  0.00    +0.000 C 
ATOM      4  C   UNL     1       5.016   6.951  16.764  0.00  0.00    +0.000 C 
ATOM      5  C   UNL     1       5.295   6.385  18.155  0.00  0.00    +0.000 C 
ATOM      6  C   UNL     1       6.808   6.111  18.225  0.00  0.00    +0.000 C 
ATOM      7  C   UNL     1       7.251   5.181  17.096  0.00  0.00    +0.000 C 
ATOM      8  C   UNL     1       4.569   5.034  18.395  0.00  0.00    +0.000 C 
ATOM      9  C   UNL     1       5.045   4.022  17.309  0.00  0.00    +0.000 C 
BRANCH   2  10
ATOM     10  C   UNL     1       6.424   3.671  15.208  0.00  0.00    +0.000 C 
BRANCH  10  11
ATOM     11  C   UNL     1       6.427   4.314  13.819  0.00  0.00    +0.000 C 
BRANCH  11  13
ATOM     12  C   UNL     1       6.454   2.776  11.878  0.00  0.00    +0.000 C 
ATOM     13  C   UNL     1       5.556   3.624  12.776  0.00  0.00    +0.000 C 
ENDBRANCH  11  13
ENDBRANCH  10  11
ENDBRANCH   2  10
ENDBRANCH   1   8
BRANCH   1  14
ATOM     14  C   UNL     1       2.445   4.086  19.526  0.00  0.00    +0.000 A 
ATOM     15  C   UNL     1       1.085   3.719  19.574  0.00  0.00    +0.000 A 
ATOM     16  C   UNL     1       0.577   2.929  20.609  0.00  0.00    +0.000 A 
ATOM     17  C   UNL     1       1.420   2.465  21.611  0.00  0.00    +0.000 A 
ATOM     18  C   UNL     1       2.776   2.767  21.562  0.00  0.00    +0.000 A 
ATOM     19  C   UNL     1       3.288   3.550  20.520  0.00  0.00    +0.000 A 
ENDBRANCH   1  14
BRANCH   1  20
ATOM     20  C   UNL     1       2.451   6.524  18.706  0.00  0.00    +0.000 A 
ATOM     21  C   UNL     1       2.215   7.023  20.004  0.00  0.00    +0.000 A 
ATOM     22  C   UNL     1       1.765   8.340  20.218  0.00  0.00    +0.000 A 
ATOM     23  C   UNL     1       1.558   9.195  19.142  0.00  0.00    +0.000 A 
ATOM     24  C   UNL     1       1.765   8.726  17.851  0.00  0.00    +0.000 A 
ATOM     25  C   UNL     1       2.196   7.403  17.634  0.00  0.00    +0.000 A 
ENDBRANCH   1  20
BRANCH   1  26
ATOM     26  O   UNL     1       2.564   4.652  17.168  0.00  0.00    +0.000 OA
ATOM     27  H   UNL     1       3.166   5.000  16.493  0.00  0.00    +0.000 HD
ENDBRANCH   1  26
TORSDOF 7
ENDMDL
MODEL 7
REMARK VINA RESULT:      -7.7      2.161      6.919
REMARK  Name = 
REMARK  8 active torsions:
REMARK  status: ('A' for Active; 'I' for Inactive)
REMARK    1  A    between atoms: C_1  and  C_2
REMARK    2  A    between atoms: C_2  and  C_3
REMARK    3  A    between atoms: C_3  and  C_4
REMARK    4  A    between atoms: C_4  and  N_5
REMARK    5  A    between atoms: C_11  and  C_12
REMARK    6  A    between atoms: C_12  and  O_13
REMARK    7  A    between atoms: C_12  and  C_14
REMARK    8  A    between atoms: C_12  and  C_20
REMARK                            x       y       z     vdW  Elec       q    Type
REMARK                         _______ _______ _______ _____ _____    ______ ____
ROOT
ATOM      1  C   UNL     1       6.004   4.847  16.686  0.00  0.00    +0.000 C 
ENDROOT
BRANCH   1   8
ATOM      2  N   UNL     1       2.856   3.810  18.430  0.00  0.00    +0.000 N 
ATOM      3  C   UNL     1       3.772   4.281  19.576  0.00  0.00    +0.000 C 
ATOM      4  C   UNL     1       4.272   5.692  19.289  0.00  0.00    +0.000 C 
ATOM      5  C   UNL     1       3.958   6.093  17.848  0.00  0.00    +0.000 C 
ATOM      6  C   UNL     1       2.426   6.177  17.738  0.00  0.00    +0.000 C 
ATOM      7  C   UNL     1       1.771   4.860  18.153  0.00  0.00    +0.000 C 
ATOM      8  C   UNL     1       4.439   5.028  16.827  0.00  0.00    +0.000 C 
ATOM      9  C   UNL     1       3.739   3.676  17.161  0.00  0.00    +0.000 C 
BRANCH   2  10
ATOM     10  C   UNL     1       2.226   2.421  18.766  0.00  0.00    +0.000 C 
BRANCH  10  11
ATOM     11  C   UNL     1       0.812   2.571  19.334  0.00  0.00    +0.000 C 
BRANCH  11  13
ATOM     12  C   UNL     1       1.752   2.398  21.618  0.00  0.00    +0.000 C 
ATOM     13  C   UNL     1       0.731   3.128  20.750  0.00  0.00    +0.000 C 
ENDBRANCH  11  13
ENDBRANCH  10  11
ENDBRANCH   2  10
ENDBRANCH   1   8
BRANCH   1  14
ATOM     14  C   UNL     1       6.410   4.615  15.205  0.00  0.00    +0.000 A 
ATOM     15  C   UNL     1       7.524   5.256  14.625  0.00  0.00    +0.000 A 
ATOM     16  C   UNL     1       7.797   5.156  13.259  0.00  0.00    +0.000 A 
ATOM     17  C   UNL     1       6.977   4.392  12.438  0.00  0.00    +0.000 A 
ATOM     18  C   UNL     1       5.902   3.705  12.989  0.00  0.00    +0.000 A 
ATOM     19  C   UNL     1       5.633   3.796  14.360  0.00  0.00    +0.000 A 
ENDBRANCH   1  14
BRANCH   1  20
ATOM     20  C   UNL     1       6.804   6.002  17.335  0.00  0.00    +0.000 A 
ATOM     21  C   UNL     1       7.640   5.785  18.449  0.00  0.00    +0.000 A 
ATOM     22  C   UNL     1       8.401   6.826  19.015  0.00  0.00    +0.000 A 
ATOM     23  C   UNL     1       8.359   8.103  18.469  0.00  0.00    +0.000 A 
ATOM     24  C   UNL     1       7.531   8.351  17.382  0.00  0.00    +0.000 A 
ATOM     25  C   UNL     1       6.754   7.316  16.827  0.00  0.00    +0.000 A 
ENDBRANCH   1  20
BRANCH   1  26
ATOM     26  O   UNL     1       6.277   3.637  17.423  0.00  0.00    +0.000 OA
ATOM     27  H   UNL     1       5.886   3.697  18.308  0.00  0.00    +0.000 HD
ENDBRANCH   1  26
TORSDOF 7
ENDMDL
MODEL 8
REMARK VINA RESULT:      -7.6      1.686      5.093
REMARK  Name = 
REMARK  8 active torsions:
REMARK  status: ('A' for Active; 'I' for Inactive)
REMARK    1  A    between atoms: C_1  and  C_2
REMARK    2  A    between atoms: C_2  and  C_3
REMARK    3  A    between atoms: C_3  and  C_4
REMARK    4  A    between atoms: C_4  and  N_5
REMARK    5  A    between atoms: C_11  and  C_12
REMARK    6  A    between atoms: C_12  and  O_13
REMARK    7  A    between atoms: C_12  and  C_14
REMARK    8  A    between atoms: C_12  and  C_20
REMARK                            x       y       z     vdW  Elec       q    Type
REMARK                         _______ _______ _______ _____ _____    ______ ____
ROOT
ATOM      1  C   UNL     1       2.992   5.121  18.503  0.00  0.00    +0.000 C 
ENDROOT
BRANCH   1   8
ATOM      2  N   UNL     1       5.941   4.821  16.213  0.00  0.00    +0.000 N 
ATOM      3  C   UNL     1       5.171   6.037  15.662  0.00  0.00    +0.000 C 
ATOM      4  C   UNL     1       4.941   7.050  16.778  0.00  0.00    +0.000 C 
ATOM      5  C   UNL     1       5.276   6.439  18.138  0.00  0.00    +0.000 C 
ATOM      6  C   UNL     1       6.793   6.174  18.140  0.00  0.00    +0.000 C 
ATOM      7  C   UNL     1       7.197   5.285  16.964  0.00  0.00    +0.000 C 
ATOM      8  C   UNL     1       4.567   5.077  18.360  0.00  0.00    +0.000 C 
ATOM      9  C   UNL     1       5.007   4.104  17.223  0.00  0.00    +0.000 C 
BRANCH   2  10
ATOM     10  C   UNL     1       6.305   3.833  15.060  0.00  0.00    +0.000 C 
BRANCH  10  11
ATOM     11  C   UNL     1       5.337   3.967  13.881  0.00  0.00    +0.000 C 
BRANCH  11  13
ATOM     12  C   UNL     1       4.628   3.328  11.597  0.00  0.00    +0.000 C 
ATOM     13  C   UNL     1       5.794   3.316  12.581  0.00  0.00    +0.000 C 
ENDBRANCH  11  13
ENDBRANCH  10  11
ENDBRANCH   2  10
ENDBRANCH   1   8
BRANCH   1  14
ATOM     14  C   UNL     1       2.507   4.184  19.643  0.00  0.00    +0.000 A 
ATOM     15  C   UNL     1       3.407   3.558  20.530  0.00  0.00    +0.000 A 
ATOM     16  C   UNL     1       2.976   2.606  21.458  0.00  0.00    +0.000 A 
ATOM     17  C   UNL     1       1.630   2.272  21.540  0.00  0.00    +0.000 A 
ATOM     18  C   UNL     1       0.712   2.911  20.716  0.00  0.00    +0.000 A 
ATOM     19  C   UNL     1       1.141   3.872  19.793  0.00  0.00    +0.000 A 
ENDBRANCH   1  14
BRANCH   1  20
ATOM     20  C   UNL     1       2.442   6.559  18.657  0.00  0.00    +0.000 A 
ATOM     21  C   UNL     1       2.275   7.152  19.926  0.00  0.00    +0.000 A 
ATOM     22  C   UNL     1       1.815   8.476  20.066  0.00  0.00    +0.000 A 
ATOM     23  C   UNL     1       1.528   9.243  18.943  0.00  0.00    +0.000 A 
ATOM     24  C   UNL     1       1.667   8.679  17.681  0.00  0.00    +0.000 A 
ATOM     25  C   UNL     1       2.108   7.349  17.539  0.00  0.00    +0.000 A 
ENDBRANCH   1  20
BRANCH   1  26
ATOM     26  O   UNL     1       2.519   4.586  17.249  0.00  0.00    +0.000 OA
ATOM     27  H   UNL     1       2.930   5.065  16.513  0.00  0.00    +0.000 HD
ENDBRANCH   1  26
TORSDOF 7
ENDMDL
MODEL 9
REMARK VINA RESULT:      -7.6      0.622      1.131
REMARK  Name = 
REMARK  8 active torsions:
REMARK  status: ('A' for Active; 'I' for Inactive)
REMARK    1  A    between atoms: C_1  and  C_2
REMARK    2  A    between atoms: C_2  and  C_3
REMARK    3  A    between atoms: C_3  and  C_4
REMARK    4  A    between atoms: C_4  and  N_5
REMARK    5  A    between atoms: C_11  and  C_12
REMARK    6  A    between atoms: C_12  and  O_13
REMARK    7  A    between atoms: C_12  and  C_14
REMARK    8  A    between atoms: C_12  and  C_20
REMARK                            x       y       z     vdW  Elec       q    Type
REMARK                         _______ _______ _______ _____ _____    ______ ____
ROOT
ATOM      1  C   UNL     1       3.064   5.940  18.870  0.00  0.00    +0.000 C 
ENDROOT
BRANCH   1   8
ATOM      2  N   UNL     1       6.373   6.334  17.160  0.00  0.00    +0.000 N 
ATOM      3  C   UNL     1       6.648   5.282  18.252  0.00  0.00    +0.000 C 
ATOM      4  C   UNL     1       5.650   4.136  18.127  0.00  0.00    +0.000 C 
ATOM      5  C   UNL     1       4.522   4.507  17.164  0.00  0.00    +0.000 C 
ATOM      6  C   UNL     1       5.159   4.642  15.770  0.00  0.00    +0.000 C 
ATOM      7  C   UNL     1       6.299   5.660  15.783  0.00  0.00    +0.000 C 
ATOM      8  C   UNL     1       3.879   5.875  17.515  0.00  0.00    +0.000 C 
ATOM      9  C   UNL     1       4.991   6.966  17.468  0.00  0.00    +0.000 C 
BRANCH   2  10
ATOM     10  C   UNL     1       7.466   7.449  17.185  0.00  0.00    +0.000 C 
BRANCH  10  11
ATOM     11  C   UNL     1       8.156   7.526  18.549  0.00  0.00    +0.000 C 
BRANCH  11  13
ATOM     12  C   UNL     1       8.333   9.906  17.890  0.00  0.00    +0.000 C 
ATOM     13  C   UNL     1       8.852   8.847  18.858  0.00  0.00    +0.000 C 
ENDBRANCH  11  13
ENDBRANCH  10  11
ENDBRANCH   2  10
ENDBRANCH   1   8
BRANCH   1  14
ATOM     14  C   UNL     1       2.212   7.236  18.949  0.00  0.00    +0.000 A 
ATOM     15  C   UNL     1       1.833   7.953  17.796  0.00  0.00    +0.000 A 
ATOM     16  C   UNL     1       1.193   9.192  17.882  0.00  0.00    +0.000 A 
ATOM     17  C   UNL     1       0.892   9.737  19.124  0.00  0.00    +0.000 A 
ATOM     18  C   UNL     1       1.206   9.029  20.279  0.00  0.00    +0.000 A 
ATOM     19  C   UNL     1       1.838   7.783  20.193  0.00  0.00    +0.000 A 
ENDBRANCH   1  14
BRANCH   1  20
ATOM     20  C   UNL     1       2.218   4.670  19.125  0.00  0.00    +0.000 A 
ATOM     21  C   UNL     1       1.698   4.375  20.402  0.00  0.00    +0.000 A 
ATOM     22  C   UNL     1       0.892   3.242  20.627  0.00  0.00    +0.000 A 
ATOM     23  C   UNL     1       0.573   2.388  19.578  0.00  0.00    +0.000 A 
ATOM     24  C   UNL     1       1.085   2.643  18.313  0.00  0.00    +0.000 A 
ATOM     25  C   UNL     1       1.907   3.765  18.090  0.00  0.00    +0.000 A 
ENDBRANCH   1  20
BRANCH   1  26
ATOM     26  O   UNL     1       4.089   6.013  19.883  0.00  0.00    +0.000 OA
ATOM     27  H   UNL     1       4.946   6.200  19.469  0.00  0.00    +0.000 HD
ENDBRANCH   1  26
TORSDOF 7
ENDMDL
