MODEL 1
REMARK VINA RESULT:      -8.5      0.000      0.000
REMARK  Name = 
REMARK  6 active torsions:
REMARK  status: ('A' for Active; 'I' for Inactive)
REMARK    1  A    between atoms: C_1  and  C_2
REMARK    2  A    between atoms: C_5  and  S_6
REMARK    3  A    between atoms: S_6  and  N_9
REMARK    4  A    between atoms: N_12  and  C_13
REMARK    5  A    between atoms: C_13  and  C_14
REMARK    6  A    between atoms: C_14  and  C_15
REMARK                            x       y       z     vdW  Elec       q    Type
REMARK                         _______ _______ _______ _____ _____    ______ ____
ROOT
ATOM      1  N   UNL     1       7.460   7.056  17.213  0.00  0.00    +0.000 NA
ATOM      2  C   UNL     1       8.027   7.014  18.367  0.00  0.00    +0.000 C 
ATOM      3  N   UNL     1       8.078   5.977  19.242  0.00  0.00    +0.000 N 
ATOM      4  N   UNL     1       8.661   8.084  18.938  0.00  0.00    +0.000 N 
ATOM      5  H   UNL     1       7.876   5.054  18.855  0.00  0.00    +0.000 HD
ATOM      6  H   UNL     1       8.813   5.970  19.933  0.00  0.00    +0.000 HD
ATOM      7  H   UNL     1       9.560   7.857  19.345  0.00  0.00    +0.000 HD
ENDROOT
BRANCH   1   8
ATOM      8  S   UNL     1       6.754   5.751  16.551  0.00  0.00    +0.000 S 
ATOM      9  O   UNL     1       7.579   4.569  16.753  0.00  0.00    +0.000 OA
ATOM     10  O   UNL     1       6.313   6.086  15.209  0.00  0.00    +0.000 OA
BRANCH   8  15
ATOM     11  C   UNL     1       1.824   4.980  20.012  0.00  0.00    +0.000 C 
ATOM     12  C   UNL     1       3.020   5.150  19.123  0.00  0.00    +0.000 A 
ATOM     13  C   UNL     1       3.977   4.134  19.005  0.00  0.00    +0.000 A 
ATOM     14  C   UNL     1       5.104   4.312  18.201  0.00  0.00    +0.000 A 
ATOM     15  C   UNL     1       5.269   5.515  17.507  0.00  0.00    +0.000 A 
ATOM     16  C   UNL     1       4.321   6.536  17.607  0.00  0.00    +0.000 A 
ATOM     17  C   UNL     1       3.198   6.350  18.417  0.00  0.00    +0.000 A 
ENDBRANCH   8  15
ENDBRANCH   1   8
BRANCH   4  18
ATOM     18  C   UNL     1       8.632   9.437  18.402  0.00  0.00    +0.000 C 
BRANCH  18  19
ATOM     19  C   UNL     1       9.163  10.476  19.396  0.00  0.00    +0.000 C 
BRANCH  19  20
ATOM     20  C   UNL     1       9.774  11.728  18.801  0.00  0.00    +0.000 A 
ATOM     21  C   UNL     1      10.685  11.657  17.736  0.00  0.00    +0.000 A 
ATOM     22  C   UNL     1      11.129  12.823  17.106  0.00  0.00    +0.000 A 
ATOM     23  C   UNL     1      10.674  14.065  17.541  0.00  0.00    +0.000 A 
ATOM     24 CL   UNL     1      11.153  15.494  16.710  0.00  0.00    +0.000 Cl
ATOM     25  C   UNL     1       9.808  14.155  18.628  0.00  0.00    +0.000 A 
ATOM     26  C   UNL     1       9.370  12.991  19.261  0.00  0.00    +0.000 A 
ENDBRANCH  19  20
ENDBRANCH  18  19
ENDBRANCH   4  18
TORSDOF 5
ENDMDL
MODEL 2
REMARK VINA RESULT:      -8.4      0.993      1.028
REMARK  Name = 
REMARK  6 active torsions:
REMARK  status: ('A' for Active; 'I' for Inactive)
REMARK    1  A    between atoms: C_1  and  C_2
REMARK    2  A    between atoms: C_5  and  S_6
REMARK    3  A    between atoms: S_6  and  N_9
REMARK    4  A    between atoms: N_12  and  C_13
REMARK    5  A    between atoms: C_13  and  C_14
REMARK    6  A    between atoms: C_14  and  C_15
REMARK                            x       y       z     vdW  Elec       q    Type
REMARK                         _______ _______ _______ _____ _____    ______ ____
ROOT
ATOM      1  N   UNL     1       6.876   7.308  17.134  0.00  0.00    +0.000 NA
ATOM      2  C   UNL     1       7.695   6.997  18.076  0.00  0.00    +0.000 C 
ATOM      3  N   UNL     1       7.840   5.802  18.704  0.00  0.00    +0.000 N 
ATOM      4  N   UNL     1       8.559   7.888  18.651  0.00  0.00    +0.000 N 
ATOM      5  H   UNL     1       7.452   4.991  18.219  0.00  0.00    +0.000 HD
ATOM      6  H   UNL     1       8.715   5.610  19.170  0.00  0.00    +0.000 HD
ATOM      7  H   UNL     1       9.499   7.530  18.765  0.00  0.00    +0.000 HD
ENDROOT
BRANCH   1   8
ATOM      8  S   UNL     1       5.894   6.210  16.447  0.00  0.00    +0.000 S 
ATOM      9  O   UNL     1       6.569   4.926  16.331  0.00  0.00    +0.000 OA
ATOM     10  O   UNL     1       5.283   6.798  15.268  0.00  0.00    +0.000 OA
BRANCH   8  15
ATOM     11  C   UNL     1       1.551   5.529  20.638  0.00  0.00    +0.000 C 
ATOM     12  C   UNL     1       2.599   5.674  19.573  0.00  0.00    +0.000 A 
ATOM     13  C   UNL     1       3.562   4.677  19.373  0.00  0.00    +0.000 A 
ATOM     14  C   UNL     1       4.552   4.834  18.402  0.00  0.00    +0.000 A 
ATOM     15  C   UNL     1       4.573   5.996  17.624  0.00  0.00    +0.000 A 
ATOM     16  C   UNL     1       3.617   6.998  17.806  0.00  0.00    +0.000 A 
ATOM     17  C   UNL     1       2.631   6.833  18.782  0.00  0.00    +0.000 A 
ENDBRANCH   8  15
ENDBRANCH   1   8
BRANCH   4  18
ATOM     18  C   UNL     1       8.550   9.322  18.397  0.00  0.00    +0.000 C 
BRANCH  18  19
ATOM     19  C   UNL     1       9.227  10.122  19.515  0.00  0.00    +0.000 C 
BRANCH  19  20
ATOM     20  C   UNL     1      10.110  11.274  19.080  0.00  0.00    +0.000 A 
ATOM     21  C   UNL     1      10.161  11.686  17.740  0.00  0.00    +0.000 A 
ATOM     22  C   UNL     1      10.867  12.836  17.380  0.00  0.00    +0.000 A 
ATOM     23  C   UNL     1      11.535  13.575  18.352  0.00  0.00    +0.000 A 
ATOM     24 CL   UNL     1      12.332  15.039  17.922  0.00  0.00    +0.000 Cl
ATOM     25  C   UNL     1      11.535  13.153  19.679  0.00  0.00    +0.000 A 
ATOM     26  C   UNL     1      10.835  12.001  20.038  0.00  0.00    +0.000 A 
ENDBRANCH  19  20
ENDBRANCH  18  19
ENDBRANCH   4  18
TORSDOF 5
ENDMDL
MODEL 3
REMARK VINA RESULT:      -8.3      0.362      1.074
REMARK  Name = 
REMARK  6 active torsions:
REMARK  status: ('A' for Active; 'I' for Inactive)
REMARK    1  A    between atoms: C_1  and  C_2
REMARK    2  A    between atoms: C_5  and  S_6
REMARK    3  A    between atoms: S_6  and  N_9
REMARK    4  A    between atoms: N_12  and  C_13
REMARK    5  A    between atoms: C_13  and  C_14
REMARK    6  A    between atoms: C_14  and  C_15
REMARK                            x       y       z     vdW  Elec       q    Type
REMARK                         _______ _______ _______ _____ _____    ______ ____
ROOT
ATOM      1  N   UNL     1       7.106   7.123  17.143  0.00  0.00    +0.000 NA
ATOM      2  C   UNL     1       7.841   6.976  18.190  0.00  0.00    +0.000 C 
ATOM      3  N   UNL     1       7.975   5.876  18.975  0.00  0.00    +0.000 N 
ATOM      4  N   UNL     1       8.605   7.977  18.724  0.00  0.00    +0.000 N 
ATOM      5  H   UNL     1       7.672   4.992  18.563  0.00  0.00    +0.000 HD
ATOM      6  H   UNL     1       8.806   5.792  19.541  0.00  0.00    +0.000 HD
ATOM      7  H   UNL     1       9.543   7.688  18.970  0.00  0.00    +0.000 HD
ENDROOT
BRANCH   1   8
ATOM      8  S   UNL     1       6.246   5.896  16.514  0.00  0.00    +0.000 S 
ATOM      9  O   UNL     1       7.036   4.675  16.502  0.00  0.00    +0.000 OA
ATOM     10  O   UNL     1       5.617   6.346  15.285  0.00  0.00    +0.000 OA
BRANCH   8  15
ATOM     11  C   UNL     1       1.572   4.985  20.283  0.00  0.00    +0.000 C 
ATOM     12  C   UNL     1       2.748   5.232  19.385  0.00  0.00    +0.000 A 
ATOM     13  C   UNL     1       2.856   6.423  18.656  0.00  0.00    +0.000 A 
ATOM     14  C   UNL     1       3.938   6.631  17.798  0.00  0.00    +0.000 A 
ATOM     15  C   UNL     1       4.918   5.642  17.675  0.00  0.00    +0.000 A 
ATOM     16  C   UNL     1       4.829   4.451  18.400  0.00  0.00    +0.000 A 
ATOM     17  C   UNL     1       3.742   4.250  19.254  0.00  0.00    +0.000 A 
ENDBRANCH   8  15
ENDBRANCH   1   8
BRANCH   4  18
ATOM     18  C   UNL     1       8.559   9.366  18.290  0.00  0.00    +0.000 C 
BRANCH  18  19
ATOM     19  C   UNL     1       9.209  10.319  19.298  0.00  0.00    +0.000 C 
BRANCH  19  20
ATOM     20  C   UNL     1       9.766  11.613  18.740  0.00  0.00    +0.000 A 
ATOM     21  C   UNL     1      10.827  11.612  17.823  0.00  0.00    +0.000 A 
ATOM     22  C   UNL     1      11.233  12.801  17.210  0.00  0.00    +0.000 A 
ATOM     23  C   UNL     1      10.590  13.996  17.516  0.00  0.00    +0.000 A 
ATOM     24 CL   UNL     1      11.033  15.444  16.697  0.00  0.00    +0.000 Cl
ATOM     25  C   UNL     1       9.567  14.022  18.461  0.00  0.00    +0.000 A 
ATOM     26  C   UNL     1       9.165  12.837  19.077  0.00  0.00    +0.000 A 
ENDBRANCH  19  20
ENDBRANCH  18  19
ENDBRANCH   4  18
TORSDOF 5
ENDMDL
MODEL 4
REMARK VINA RESULT:      -8.2      5.335      6.799
REMARK  Name = 
REMARK  6 active torsions:
REMARK  status: ('A' for Active; 'I' for Inactive)
REMARK    1  A    between atoms: C_1  and  C_2
REMARK    2  A    between atoms: C_5  and  S_6
REMARK    3  A    between atoms: S_6  and  N_9
REMARK    4  A    between atoms: N_12  and  C_13
REMARK    5  A    between atoms: C_13  and  C_14
REMARK    6  A    between atoms: C_14  and  C_15
REMARK                            x       y       z     vdW  Elec       q    Type
REMARK                         _______ _______ _______ _____ _____    ______ ____
ROOT
ATOM      1  N   UNL     1       4.512   5.525  19.386  0.00  0.00    +0.000 NA
ATOM      2  C   UNL     1       5.292   4.502  19.347  0.00  0.00    +0.000 C 
ATOM      3  N   UNL     1       4.968   3.192  19.490  0.00  0.00    +0.000 N 
ATOM      4  N   UNL     1       6.648   4.592  19.193  0.00  0.00    +0.000 N 
ATOM      5  H   UNL     1       3.983   2.957  19.358  0.00  0.00    +0.000 HD
ATOM      6  H   UNL     1       5.599   2.500  19.116  0.00  0.00    +0.000 HD
ATOM      7  H   UNL     1       7.027   3.939  18.518  0.00  0.00    +0.000 HD
ENDROOT
BRANCH   1   8
ATOM      8  S   UNL     1       2.900   5.375  19.528  0.00  0.00    +0.000 S 
ATOM      9  O   UNL     1       2.546   4.930  20.867  0.00  0.00    +0.000 OA
ATOM     10  O   UNL     1       2.394   4.643  18.380  0.00  0.00    +0.000 OA
BRANCH   8  15
ATOM     11  C   UNL     1       0.599  10.952  18.820  0.00  0.00    +0.000 C 
ATOM     12  C   UNL     1       1.209   9.592  19.003  0.00  0.00    +0.000 A 
ATOM     13  C   UNL     1       1.833   8.936  17.935  0.00  0.00    +0.000 A 
ATOM     14  C   UNL     1       2.369   7.658  18.106  0.00  0.00    +0.000 A 
ATOM     15  C   UNL     1       2.281   7.038  19.356  0.00  0.00    +0.000 A 
ATOM     16  C   UNL     1       1.667   7.680  20.434  0.00  0.00    +0.000 A 
ATOM     17  C   UNL     1       1.132   8.958  20.253  0.00  0.00    +0.000 A 
ENDBRANCH   8  15
ENDBRANCH   1   8
BRANCH   4  18
ATOM     18  C   UNL     1       7.398   5.840  19.223  0.00  0.00    +0.000 C 
BRANCH  18  19
ATOM     19  C   UNL     1       7.519   6.487  17.839  0.00  0.00    +0.000 C 
BRANCH  19  20
ATOM     20  C   UNL     1       6.825   5.772  16.697  0.00  0.00    +0.000 A 
ATOM     21  C   UNL     1       5.679   6.310  16.093  0.00  0.00    +0.000 A 
ATOM     22  C   UNL     1       5.136   5.714  14.951  0.00  0.00    +0.000 A 
ATOM     23  C   UNL     1       5.727   4.574  14.414  0.00  0.00    +0.000 A 
ATOM     24 CL   UNL     1       5.110   3.891  12.959  0.00  0.00    +0.000 Cl
ATOM     25  C   UNL     1       6.836   4.000  15.030  0.00  0.00    +0.000 A 
ATOM     26  C   UNL     1       7.374   4.591  16.173  0.00  0.00    +0.000 A 
ENDBRANCH  19  20
ENDBRANCH  18  19
ENDBRANCH   4  18
TORSDOF 5
ENDMDL
MODEL 5
REMARK VINA RESULT:      -8.2      5.297      6.671
REMARK  Name = 
REMARK  6 active torsions:
REMARK  status: ('A' for Active; 'I' for Inactive)
REMARK    1  A    between atoms: C_1  and  C_2
REMARK    2  A    between atoms: C_5  and  S_6
REMARK    3  A    between atoms: S_6  and  N_9
REMARK    4  A    between atoms: N_12  and  C_13
REMARK    5  A    between atoms: C_13  and  C_14
REMARK    6  A    between atoms: C_14  and  C_15
REMARK                            x       y       z     vdW  Elec       q    Type
REMARK                         _______ _______ _______ _____ _____    ______ ____
ROOT
ATOM      1  N   UNL     1       4.425   5.549  19.509  0.00  0.00    +0.000 NA
ATOM      2  C   UNL     1       5.171   4.519  19.311  0.00  0.00    +0.000 C 
ATOM      3  N   UNL     1       4.803   3.214  19.245  0.00  0.00    +0.000 N 
ATOM      4  N   UNL     1       6.531   4.586  19.176  0.00  0.00    +0.000 N 
ATOM      5  H   UNL     1       3.812   3.036  19.075  0.00  0.00    +0.000 HD
ATOM      6  H   UNL     1       5.414   2.568  18.767  0.00  0.00    +0.000 HD
ATOM      7  H   UNL     1       6.893   4.035  18.408  0.00  0.00    +0.000 HD
ENDROOT
BRANCH   1   8
ATOM      8  S   UNL     1       2.808   5.434  19.621  0.00  0.00    +0.000 S 
ATOM      9  O   UNL     1       2.419   5.023  20.961  0.00  0.00    +0.000 OA
ATOM     10  O   UNL     1       2.311   4.687  18.479  0.00  0.00    +0.000 OA
BRANCH   8  15
ATOM     11  C   UNL     1       0.633  11.037  18.751  0.00  0.00    +0.000 C 
ATOM     12  C   UNL     1       1.211   9.671  18.975  0.00  0.00    +0.000 A 
ATOM     13  C   UNL     1       1.843   8.980  17.933  0.00  0.00    +0.000 A 
ATOM     14  C   UNL     1       2.350   7.695  18.141  0.00  0.00    +0.000 A 
ATOM     15  C   UNL     1       2.226   7.104  19.402  0.00  0.00    +0.000 A 
ATOM     16  C   UNL     1       1.604   7.781  20.454  0.00  0.00    +0.000 A 
ATOM     17  C   UNL     1       1.098   9.064  20.236  0.00  0.00    +0.000 A 
ENDBRANCH   8  15
ENDBRANCH   1   8
BRANCH   4  18
ATOM     18  C   UNL     1       7.321   5.787  19.404  0.00  0.00    +0.000 C 
BRANCH  18  19
ATOM     19  C   UNL     1       7.609   6.557  18.110  0.00  0.00    +0.000 C 
BRANCH  19  20
ATOM     20  C   UNL     1       7.035   5.972  16.836  0.00  0.00    +0.000 A 
ATOM     21  C   UNL     1       7.610   4.846  16.229  0.00  0.00    +0.000 A 
ATOM     22  C   UNL     1       6.986   4.234  15.138  0.00  0.00    +0.000 A 
ATOM     23  C   UNL     1       5.792   4.749  14.641  0.00  0.00    +0.000 A 
ATOM     24 CL   UNL     1       4.980   3.945  13.354  0.00  0.00    +0.000 Cl
ATOM     25  C   UNL     1       5.234   5.895  15.201  0.00  0.00    +0.000 A 
ATOM     26  C   UNL     1       5.859   6.509  16.287  0.00  0.00    +0.000 A 
ENDBRANCH  19  20
ENDBRANCH  18  19
ENDBRANCH   4  18
TORSDOF 5
ENDMDL
MODEL 6
REMARK VINA RESULT:      -8.1      1.797      2.366
REMARK  Name = 
REMARK  6 active torsions:
REMARK  status: ('A' for Active; 'I' for Inactive)
REMARK    1  A    between atoms: C_1  and  C_2
REMARK    2  A    between atoms: C_5  and  S_6
REMARK    3  A    between atoms: S_6  and  N_9
REMARK    4  A    between atoms: N_12  and  C_13
REMARK    5  A    between atoms: C_13  and  C_14
REMARK    6  A    between atoms: C_14  and  C_15
REMARK                            x       y       z     vdW  Elec       q    Type
REMARK                         _______ _______ _______ _____ _____    ______ ____
ROOT
ATOM      1  N   UNL     1       7.594   6.890  16.972  0.00  0.00    +0.000 NA
ATOM      2  C   UNL     1       8.014   7.020  18.181  0.00  0.00    +0.000 C 
ATOM      3  N   UNL     1       8.129   6.065  19.139  0.00  0.00    +0.000 N 
ATOM      4  N   UNL     1       8.385   8.219  18.728  0.00  0.00    +0.000 N 
ATOM      5  H   UNL     1       8.133   5.098  18.810  0.00  0.00    +0.000 HD
ATOM      6  H   UNL     1       8.764   6.231  19.906  0.00  0.00    +0.000 HD
ATOM      7  H   UNL     1       9.252   8.179  19.249  0.00  0.00    +0.000 HD
ENDROOT
BRANCH   1   8
ATOM      8  S   UNL     1       7.204   5.442  16.346  0.00  0.00    +0.000 S 
ATOM      9  O   UNL     1       8.034   4.397  16.925  0.00  0.00    +0.000 OA
ATOM     10  O   UNL     1       7.121   5.562  14.901  0.00  0.00    +0.000 OA
BRANCH   8  15
ATOM     11  C   UNL     1       1.444   4.543  18.049  0.00  0.00    +0.000 C 
ATOM     12  C   UNL     1       2.880   4.761  17.671  0.00  0.00    +0.000 A 
ATOM     13  C   UNL     1       3.448   6.040  17.721  0.00  0.00    +0.000 A 
ATOM     14  C   UNL     1       4.776   6.239  17.338  0.00  0.00    +0.000 A 
ATOM     15  C   UNL     1       5.538   5.149  16.907  0.00  0.00    +0.000 A 
ATOM     16  C   UNL     1       4.988   3.866  16.857  0.00  0.00    +0.000 A 
ATOM     17  C   UNL     1       3.659   3.676  17.240  0.00  0.00    +0.000 A 
ENDBRANCH   8  15
ENDBRANCH   1   8
BRANCH   4  18
ATOM     18  C   UNL     1       8.197   9.509  18.081  0.00  0.00    +0.000 C 
BRANCH  18  19
ATOM     19  C   UNL     1       9.439  10.401  18.175  0.00  0.00    +0.000 C 
BRANCH  19  20
ATOM     20  C   UNL     1       9.400  11.506  19.210  0.00  0.00    +0.000 A 
ATOM     21  C   UNL     1       9.124  12.833  18.848  0.00  0.00    +0.000 A 
ATOM     22  C   UNL     1       8.950  13.813  19.829  0.00  0.00    +0.000 A 
ATOM     23  C   UNL     1       9.059  13.477  21.175  0.00  0.00    +0.000 A 
ATOM     24 CL   UNL     1       8.760  14.664  22.384  0.00  0.00    +0.000 Cl
ATOM     25  C   UNL     1       9.381  12.175  21.550  0.00  0.00    +0.000 A 
ATOM     26  C   UNL     1       9.561  11.197  20.571  0.00  0.00    +0.000 A 
ENDBRANCH  19  20
ENDBRANCH  18  19
ENDBRANCH   4  18
TORSDOF 5
ENDMDL
MODEL 7
REMARK VINA RESULT:      -8.1      1.044      1.185
REMARK  Name = 
REMARK  6 active torsions:
REMARK  status: ('A' for Active; 'I' for Inactive)
REMARK    1  A    between atoms: C_1  and  C_2
REMARK    2  A    between atoms: C_5  and  S_6
REMARK    3  A    between atoms: S_6  and  N_9
REMARK    4  A    between atoms: N_12  and  C_13
REMARK    5  A    between atoms: C_13  and  C_14
REMARK    6  A    between atoms: C_14  and  C_15
REMARK                            x       y       z     vdW  Elec       q    Type
REMARK                         _______ _______ _______ _____ _____    ______ ____
ROOT
ATOM      1  N   UNL     1       6.734   6.848  16.789  0.00  0.00    +0.000 NA
ATOM      2  C   UNL     1       7.476   6.564  17.801  0.00  0.00    +0.000 C 
ATOM      3  N   UNL     1       7.595   5.378  18.450  0.00  0.00    +0.000 N 
ATOM      4  N   UNL     1       8.267   7.480  18.439  0.00  0.00    +0.000 N 
ATOM      5  H   UNL     1       7.269   4.554  17.942  0.00  0.00    +0.000 HD
ATOM      6  H   UNL     1       8.430   5.210  18.991  0.00  0.00    +0.000 HD
ATOM      7  H   UNL     1       9.202   7.146  18.637  0.00  0.00    +0.000 HD
ENDROOT
BRANCH   1   8
ATOM      8  S   UNL     1       5.841   5.722  16.031  0.00  0.00    +0.000 S 
ATOM      9  O   UNL     1       6.588   4.480  15.907  0.00  0.00    +0.000 OA
ATOM     10  O   UNL     1       5.246   6.314  14.846  0.00  0.00    +0.000 OA
BRANCH   8  15
ATOM     11  C   UNL     1       1.394   4.572  20.005  0.00  0.00    +0.000 C 
ATOM     12  C   UNL     1       2.462   4.852  18.989  0.00  0.00    +0.000 A 
ATOM     13  C   UNL     1       3.149   3.805  18.363  0.00  0.00    +0.000 A 
ATOM     14  C   UNL     1       4.164   4.075  17.443  0.00  0.00    +0.000 A 
ATOM     15  C   UNL     1       4.488   5.402  17.147  0.00  0.00    +0.000 A 
ATOM     16  C   UNL     1       3.809   6.459  17.758  0.00  0.00    +0.000 A 
ATOM     17  C   UNL     1       2.797   6.180  18.679  0.00  0.00    +0.000 A 
ENDBRANCH   8  15
ENDBRANCH   1   8
BRANCH   4  18
ATOM     18  C   UNL     1       8.247   8.911  18.171  0.00  0.00    +0.000 C 
BRANCH  18  19
ATOM     19  C   UNL     1       9.200   9.694  19.081  0.00  0.00    +0.000 C 
BRANCH  19  20
ATOM     20  C   UNL     1       9.532  11.108  18.652  0.00  0.00    +0.000 A 
ATOM     21  C   UNL     1       8.655  11.849  17.847  0.00  0.00    +0.000 A 
ATOM     22  C   UNL     1       8.908  13.197  17.579  0.00  0.00    +0.000 A 
ATOM     23  C   UNL     1      10.042  13.809  18.105  0.00  0.00    +0.000 A 
ATOM     24 CL   UNL     1      10.308  15.490  17.846  0.00  0.00    +0.000 Cl
ATOM     25  C   UNL     1      10.949  13.075  18.865  0.00  0.00    +0.000 A 
ATOM     26  C   UNL     1      10.700  11.728  19.127  0.00  0.00    +0.000 A 
ENDBRANCH  19  20
ENDBRANCH  18  19
ENDBRANCH   4  18
TORSDOF 5
ENDMDL
MODEL 8
REMARK VINA RESULT:      -8.0      5.281      6.626
REMARK  Name = 
REMARK  6 active torsions:
REMARK  status: ('A' for Active; 'I' for Inactive)
REMARK    1  A    between atoms: C_1  and  C_2
REMARK    2  A    between atoms: C_5  and  S_6
REMARK    3  A    between atoms: S_6  and  N_9
REMARK    4  A    between atoms: N_12  and  C_13
REMARK    5  A    between atoms: C_13  and  C_14
REMARK    6  A    between atoms: C_14  and  C_15
REMARK                            x       y       z     vdW  Elec       q    Type
REMARK                         _______ _______ _______ _____ _____    ______ ____
ROOT
ATOM      1  N   UNL     1       4.416   5.501  19.526  0.00  0.00    +0.000 NA
ATOM      2  C   UNL     1       5.192   4.491  19.340  0.00  0.00    +0.000 C 
ATOM      3  N   UNL     1       4.859   3.176  19.273  0.00  0.00    +0.000 N 
ATOM      4  N   UNL     1       6.551   4.593  19.221  0.00  0.00    +0.000 N 
ATOM      5  H   UNL     1       3.875   2.971  19.091  0.00  0.00    +0.000 HD
ATOM      6  H   UNL     1       5.493   2.546  18.804  0.00  0.00    +0.000 HD
ATOM      7  H   UNL     1       6.937   4.051  18.459  0.00  0.00    +0.000 HD
ENDROOT
BRANCH   1   8
ATOM      8  S   UNL     1       2.802   5.342  19.620  0.00  0.00    +0.000 S 
ATOM      9  O   UNL     1       2.405   4.958  20.966  0.00  0.00    +0.000 OA
ATOM     10  O   UNL     1       2.342   4.550  18.492  0.00  0.00    +0.000 OA
BRANCH   8  15
ATOM     11  C   UNL     1       0.866  11.040  18.799  0.00  0.00    +0.000 C 
ATOM     12  C   UNL     1       1.302   9.617  18.994  0.00  0.00    +0.000 A 
ATOM     13  C   UNL     1       1.193   8.999  20.246  0.00  0.00    +0.000 A 
ATOM     14  C   UNL     1       1.631   7.685  20.427  0.00  0.00    +0.000 A 
ATOM     15  C   UNL     1       2.176   6.988  19.345  0.00  0.00    +0.000 A 
ATOM     16  C   UNL     1       2.286   7.587  18.088  0.00  0.00    +0.000 A 
ATOM     17  C   UNL     1       1.848   8.902  17.917  0.00  0.00    +0.000 A 
ENDBRANCH   8  15
ENDBRANCH   1   8
BRANCH   4  18
ATOM     18  C   UNL     1       7.306   5.816  19.456  0.00  0.00    +0.000 C 
BRANCH  18  19
ATOM     19  C   UNL     1       7.677   6.537  18.156  0.00  0.00    +0.000 C 
BRANCH  19  20
ATOM     20  C   UNL     1       7.077   5.980  16.881  0.00  0.00    +0.000 A 
ATOM     21  C   UNL     1       7.649   4.877  16.229  0.00  0.00    +0.000 A 
ATOM     22  C   UNL     1       7.004   4.288  15.138  0.00  0.00    +0.000 A 
ATOM     23  C   UNL     1       5.792   4.803  14.686  0.00  0.00    +0.000 A 
ATOM     24 CL   UNL     1       4.957   4.024  13.398  0.00  0.00    +0.000 Cl
ATOM     25  C   UNL     1       5.236   5.927  15.290  0.00  0.00    +0.000 A 
ATOM     26  C   UNL     1       5.883   6.519  16.376  0.00  0.00    +0.000 A 
ENDBRANCH  19  20
ENDBRANCH  18  19
ENDBRANCH   4  18
TORSDOF 5
ENDMDL
MODEL 9
REMARK VINA RESULT:      -8.0      1.255      1.783
REMARK  Name = 
REMARK  6 active torsions:
REMARK  status: ('A' for Active; 'I' for Inactive)
REMARK    1  A    between atoms: C_1  and  C_2
REMARK    2  A    between atoms: C_5  and  S_6
REMARK    3  A    between atoms: S_6  and  N_9
REMARK    4  A    between atoms: N_12  and  C_13
REMARK    5  A    between atoms: C_13  and  C_14
REMARK    6  A    between atoms: C_14  and  C_15
REMARK                            x       y       z     vdW  Elec       q    Type
REMARK                         _______ _______ _______ _____ _____    ______ ____
ROOT
ATOM      1  N   UNL     1       7.513   6.929  17.059  0.00  0.00    +0.000 NA
ATOM      2  C   UNL     1       8.019   7.067  18.234  0.00  0.00    +0.000 C 
ATOM      3  N   UNL     1       8.131   6.137  19.216  0.00  0.00    +0.000 N 
ATOM      4  N   UNL     1       8.505   8.253  18.712  0.00  0.00    +0.000 N 
ATOM      5  H   UNL     1       8.048   5.163  18.922  0.00  0.00    +0.000 HD
ATOM      6  H   UNL     1       8.825   6.281  19.935  0.00  0.00    +0.000 HD
ATOM      7  H   UNL     1       9.399   8.170  19.179  0.00  0.00    +0.000 HD
ENDROOT
BRANCH   1   8
ATOM      8  S   UNL     1       6.985   5.493  16.511  0.00  0.00    +0.000 S 
ATOM      9  O   UNL     1       7.893   4.430  16.913  0.00  0.00    +0.000 OA
ATOM     10  O   UNL     1       6.627   5.627  15.111  0.00  0.00    +0.000 OA
BRANCH   8  15
ATOM     11  C   UNL     1       1.660   4.510  19.262  0.00  0.00    +0.000 C 
ATOM     12  C   UNL     1       2.989   4.777  18.618  0.00  0.00    +0.000 A 
ATOM     13  C   UNL     1       3.207   5.948  17.882  0.00  0.00    +0.000 A 
ATOM     14  C   UNL     1       4.437   6.173  17.260  0.00  0.00    +0.000 A 
ATOM     15  C   UNL     1       5.453   5.221  17.381  0.00  0.00    +0.000 A 
ATOM     16  C   UNL     1       5.254   4.050  18.117  0.00  0.00    +0.000 A 
ATOM     17  C   UNL     1       4.020   3.832  18.734  0.00  0.00    +0.000 A 
ENDBRANCH   8  15
ENDBRANCH   1   8
BRANCH   4  18
ATOM     18  C   UNL     1       8.363   9.533  18.033  0.00  0.00    +0.000 C 
BRANCH  18  19
ATOM     19  C   UNL     1       9.428  10.548  18.462  0.00  0.00    +0.000 C 
BRANCH  19  20
ATOM     20  C   UNL     1       9.057  12.011  18.328  0.00  0.00    +0.000 A 
ATOM     21  C   UNL     1       8.036  12.426  17.460  0.00  0.00    +0.000 A 
ATOM     22  C   UNL     1       7.610  13.757  17.455  0.00  0.00    +0.000 A 
ATOM     23  C   UNL     1       8.207  14.682  18.307  0.00  0.00    +0.000 A 
ATOM     24 CL   UNL     1       7.623  16.301  18.361  0.00  0.00    +0.000 Cl
ATOM     25  C   UNL     1       9.255  14.297  19.140  0.00  0.00    +0.000 A 
ATOM     26  C   UNL     1       9.684  12.970  19.141  0.00  0.00    +0.000 A 
ENDBRANCH  19  20
ENDBRANCH  18  19
ENDBRANCH   4  18
TORSDOF 5
ENDMDL
