MODEL 1
REMARK VINA RESULT:      -7.7      0.000      0.000
REMARK  Name = 
REMARK  5 active torsions:
REMARK  status: ('A' for Active; 'I' for Inactive)
REMARK    1  A    between atoms: C_2  and  C_3
REMARK    2  A    between atoms: C_8  and  S_9
REMARK    3  A    between atoms: S_9  and  C_11
REMARK    4  A    between atoms: C_16  and  C_17
REMARK    5  A    between atoms: N_19  and  C_20
REMARK                            x       y       z     vdW  Elec       q    Type
REMARK                         _______ _______ _______ _____ _____    ______ ____
ROOT
ATOM      1  C   UNL     1       3.564   4.573  19.631  0.00  0.00    +0.000 A 
ATOM      2  C   UNL     1       4.301   3.372  19.652  0.00  0.00    +0.000 A 
ATOM      3  C   UNL     1       3.970   2.326  20.522  0.00  0.00    +0.000 A 
ATOM      4  C   UNL     1       2.872   2.441  21.360  0.00  0.00    +0.000 A 
ATOM      5  C   UNL     1       2.095   3.595  21.313  0.00  0.00    +0.000 A 
ATOM      6  C   UNL     1       2.419   4.667  20.452  0.00  0.00    +0.000 A 
ENDROOT
BRANCH   6   7
ATOM      7  C   UNL     1       1.541   5.865  20.621  0.00  0.00    +0.000 C 
ATOM      8  O   UNL     1       0.333   5.646  20.556  0.00  0.00    +0.000 OA
ATOM      9  N   UNL     1       2.116   7.122  20.753  0.00  0.00    +0.000 N 
ATOM     10  H   UNL     1       3.115   7.223  20.593  0.00  0.00    +0.000 HD
BRANCH   9  11
ATOM     11  C   UNL     1       1.383   8.326  20.960  0.00  0.00    +0.000 A 
ATOM     12  C   UNL     1       0.963   8.758  22.224  0.00  0.00    +0.000 A 
ATOM     13  C   UNL     1       0.219   9.932  22.383  0.00  0.00    +0.000 A 
ATOM     14  C   UNL     1      -0.109  10.701  21.275  0.00  0.00    +0.000 A 
ATOM     15  C   UNL     1       0.320  10.300  20.011  0.00  0.00    +0.000 A 
ATOM     16  C   UNL     1       1.070   9.124  19.853  0.00  0.00    +0.000 A 
ENDBRANCH   9  11
ENDBRANCH   6   7
BRANCH   1  17
ATOM     17  S   UNL     1       4.041   5.969  18.578  0.00  0.00    +0.000 S 
ATOM     18  O   UNL     1       2.722   6.337  17.805  0.00  0.00    +0.000 OA
BRANCH  17  24
ATOM     19  C   UNL     1       6.543   5.020  17.656  0.00  0.00    +0.000 A 
ATOM     20  C   UNL     1       7.408   4.556  16.648  0.00  0.00    +0.000 A 
ATOM     21  C   UNL     1       6.913   4.234  15.383  0.00  0.00    +0.000 A 
ATOM     22  C   UNL     1       5.553   4.349  15.124  0.00  0.00    +0.000 A 
ATOM     23  C   UNL     1       4.686   4.814  16.121  0.00  0.00    +0.000 A 
ATOM     24  C   UNL     1       5.169   5.167  17.395  0.00  0.00    +0.000 A 
BRANCH  19  26
ATOM     25  N   UNL     1       7.567   5.607  19.962  0.00  0.00    +0.000 NA
ATOM     26  C   UNL     1       7.113   5.333  18.934  0.00  0.00    +0.000 C 
ENDBRANCH  19  26
ENDBRANCH  17  24
ENDBRANCH   1  17
TORSDOF 5
ENDMDL
MODEL 2
REMARK VINA RESULT:      -7.5      0.419      1.046
REMARK  Name = 
REMARK  5 active torsions:
REMARK  status: ('A' for Active; 'I' for Inactive)
REMARK    1  A    between atoms: C_2  and  C_3
REMARK    2  A    between atoms: C_8  and  S_9
REMARK    3  A    between atoms: S_9  and  C_11
REMARK    4  A    between atoms: C_16  and  C_17
REMARK    5  A    between atoms: N_19  and  C_20
REMARK                            x       y       z     vdW  Elec       q    Type
REMARK                         _______ _______ _______ _____ _____    ______ ____
ROOT
ATOM      1  C   UNL     1       3.822   4.536  19.392  0.00  0.00    +0.000 A 
ATOM      2  C   UNL     1       4.601   3.361  19.381  0.00  0.00    +0.000 A 
ATOM      3  C   UNL     1       4.330   2.297  20.249  0.00  0.00    +0.000 A 
ATOM      4  C   UNL     1       3.251   2.365  21.117  0.00  0.00    +0.000 A 
ATOM      5  C   UNL     1       2.434   3.491  21.101  0.00  0.00    +0.000 A 
ATOM      6  C   UNL     1       2.697   4.582  20.243  0.00  0.00    +0.000 A 
ENDROOT
BRANCH   6   7
ATOM      7  C   UNL     1       1.783   5.746  20.447  0.00  0.00    +0.000 C 
ATOM      8  O   UNL     1       0.587   5.470  20.532  0.00  0.00    +0.000 OA
ATOM      9  N   UNL     1       2.303   7.034  20.444  0.00  0.00    +0.000 N 
ATOM     10  H   UNL     1       3.271   7.170  20.165  0.00  0.00    +0.000 HD
BRANCH   9  11
ATOM     11  C   UNL     1       1.536   8.213  20.669  0.00  0.00    +0.000 A 
ATOM     12  C   UNL     1       1.141   9.077  19.640  0.00  0.00    +0.000 A 
ATOM     13  C   UNL     1       0.413  10.242  19.904  0.00  0.00    +0.000 A 
ATOM     14  C   UNL     1       0.058  10.557  21.209  0.00  0.00    +0.000 A 
ATOM     15  C   UNL     1       0.421   9.698  22.245  0.00  0.00    +0.000 A 
ATOM     16  C   UNL     1       1.148   8.527  21.977  0.00  0.00    +0.000 A 
ENDBRANCH   9  11
ENDBRANCH   6   7
BRANCH   1  17
ATOM     17  S   UNL     1       4.223   5.957  18.341  0.00  0.00    +0.000 S 
ATOM     18  O   UNL     1       2.853   6.338  17.670  0.00  0.00    +0.000 OA
BRANCH  17  24
ATOM     19  C   UNL     1       6.671   5.174  17.157  0.00  0.00    +0.000 A 
ATOM     20  C   UNL     1       7.447   4.728  16.071  0.00  0.00    +0.000 A 
ATOM     21  C   UNL     1       6.834   4.290  14.896  0.00  0.00    +0.000 A 
ATOM     22  C   UNL     1       5.448   4.272  14.805  0.00  0.00    +0.000 A 
ATOM     23  C   UNL     1       4.669   4.719  15.880  0.00  0.00    +0.000 A 
ATOM     24  C   UNL     1       5.268   5.187  17.064  0.00  0.00    +0.000 A 
BRANCH  19  26
ATOM     25  N   UNL     1       7.906   5.980  19.288  0.00  0.00    +0.000 NA
ATOM     26  C   UNL     1       7.361   5.610  18.336  0.00  0.00    +0.000 C 
ENDBRANCH  19  26
ENDBRANCH  17  24
ENDBRANCH   1  17
TORSDOF 5
ENDMDL
MODEL 3
REMARK VINA RESULT:      -7.5      3.467      6.573
REMARK  Name = 
REMARK  5 active torsions:
REMARK  status: ('A' for Active; 'I' for Inactive)
REMARK    1  A    between atoms: C_2  and  C_3
REMARK    2  A    between atoms: C_8  and  S_9
REMARK    3  A    between atoms: S_9  and  C_11
REMARK    4  A    between atoms: C_16  and  C_17
REMARK    5  A    between atoms: N_19  and  C_20
REMARK                            x       y       z     vdW  Elec       q    Type
REMARK                         _______ _______ _______ _____ _____    ______ ____
ROOT
ATOM      1  C   UNL     1       5.859   5.151  17.448  0.00  0.00    +0.000 A 
ATOM      2  C   UNL     1       5.293   4.216  16.557  0.00  0.00    +0.000 A 
ATOM      3  C   UNL     1       5.742   4.101  15.236  0.00  0.00    +0.000 A 
ATOM      4  C   UNL     1       6.793   4.887  14.788  0.00  0.00    +0.000 A 
ATOM      5  C   UNL     1       7.405   5.774  15.669  0.00  0.00    +0.000 A 
ATOM      6  C   UNL     1       6.959   5.915  17.001  0.00  0.00    +0.000 A 
ENDROOT
BRANCH   6   7
ATOM      7  C   UNL     1       7.660   6.994  17.762  0.00  0.00    +0.000 C 
ATOM      8  O   UNL     1       8.232   6.630  18.788  0.00  0.00    +0.000 OA
ATOM      9  N   UNL     1       7.561   8.311  17.332  0.00  0.00    +0.000 N 
ATOM     10  H   UNL     1       6.901   8.535  16.592  0.00  0.00    +0.000 HD
BRANCH   9  11
ATOM     11  C   UNL     1       8.217   9.413  17.951  0.00  0.00    +0.000 A 
ATOM     12  C   UNL     1       8.991   9.289  19.112  0.00  0.00    +0.000 A 
ATOM     13  C   UNL     1       9.596  10.400  19.707  0.00  0.00    +0.000 A 
ATOM     14  C   UNL     1       9.444  11.659  19.142  0.00  0.00    +0.000 A 
ATOM     15  C   UNL     1       8.697  11.801  17.974  0.00  0.00    +0.000 A 
ATOM     16  C   UNL     1       8.094  10.683  17.375  0.00  0.00    +0.000 A 
ENDBRANCH   9  11
ENDBRANCH   6   7
BRANCH   1  17
ATOM     17  S   UNL     1       5.221   5.375  19.129  0.00  0.00    +0.000 S 
ATOM     18  O   UNL     1       6.251   4.608  20.037  0.00  0.00    +0.000 OA
BRANCH  17  24
ATOM     19  C   UNL     1       2.443   4.965  18.777  0.00  0.00    +0.000 A 
ATOM     20  C   UNL     1       1.265   4.209  18.918  0.00  0.00    +0.000 A 
ATOM     21  C   UNL     1       1.322   2.883  19.350  0.00  0.00    +0.000 A 
ATOM     22  C   UNL     1       2.552   2.297  19.620  0.00  0.00    +0.000 A 
ATOM     23  C   UNL     1       3.729   3.044  19.487  0.00  0.00    +0.000 A 
ATOM     24  C   UNL     1       3.692   4.389  19.076  0.00  0.00    +0.000 A 
BRANCH  19  26
ATOM     25  N   UNL     1       2.235   7.421  17.977  0.00  0.00    +0.000 NA
ATOM     26  C   UNL     1       2.318   6.321  18.328  0.00  0.00    +0.000 C 
ENDBRANCH  19  26
ENDBRANCH  17  24
ENDBRANCH   1  17
TORSDOF 5
ENDMDL
MODEL 4
REMARK VINA RESULT:      -7.5      1.927      2.816
REMARK  Name = 
REMARK  5 active torsions:
REMARK  status: ('A' for Active; 'I' for Inactive)
REMARK    1  A    between atoms: C_2  and  C_3
REMARK    2  A    between atoms: C_8  and  S_9
REMARK    3  A    between atoms: S_9  and  C_11
REMARK    4  A    between atoms: C_16  and  C_17
REMARK    5  A    between atoms: N_19  and  C_20
REMARK                            x       y       z     vdW  Elec       q    Type
REMARK                         _______ _______ _______ _____ _____    ______ ____
ROOT
ATOM      1  C   UNL     1       3.630   3.666  19.063  0.00  0.00    +0.000 A 
ATOM      2  C   UNL     1       4.020   2.488  19.733  0.00  0.00    +0.000 A 
ATOM      3  C   UNL     1       3.515   2.166  20.998  0.00  0.00    +0.000 A 
ATOM      4  C   UNL     1       2.579   2.991  21.604  0.00  0.00    +0.000 A 
ATOM      5  C   UNL     1       2.136   4.127  20.933  0.00  0.00    +0.000 A 
ATOM      6  C   UNL     1       2.643   4.478  19.662  0.00  0.00    +0.000 A 
ENDROOT
BRANCH   6   7
ATOM      7  C   UNL     1       2.137   5.787  19.150  0.00  0.00    +0.000 C 
ATOM      8  O   UNL     1       1.611   5.752  18.039  0.00  0.00    +0.000 OA
ATOM      9  N   UNL     1       2.354   6.943  19.890  0.00  0.00    +0.000 N 
ATOM     10  H   UNL     1       2.973   6.898  20.695  0.00  0.00    +0.000 HD
BRANCH   9  11
ATOM     11  C   UNL     1       1.883   8.236  19.523  0.00  0.00    +0.000 A 
ATOM     12  C   UNL     1       2.203   8.849  18.305  0.00  0.00    +0.000 A 
ATOM     13  C   UNL     1       1.744  10.133  17.994  0.00  0.00    +0.000 A 
ATOM     14  C   UNL     1       0.946  10.824  18.896  0.00  0.00    +0.000 A 
ATOM     15  C   UNL     1       0.598  10.221  20.104  0.00  0.00    +0.000 A 
ATOM     16  C   UNL     1       1.055   8.931  20.413  0.00  0.00    +0.000 A 
ENDBRANCH   9  11
ENDBRANCH   6   7
BRANCH   1  17
ATOM     17  S   UNL     1       4.350   4.141  17.469  0.00  0.00    +0.000 S 
ATOM     18  O   UNL     1       4.998   2.814  16.929  0.00  0.00    +0.000 OA
BRANCH  17  24
ATOM     19  C   UNL     1       6.192   6.267  17.161  0.00  0.00    +0.000 A 
ATOM     20  C   UNL     1       7.349   6.980  17.526  0.00  0.00    +0.000 A 
ATOM     21  C   UNL     1       8.019   6.682  18.714  0.00  0.00    +0.000 A 
ATOM     22  C   UNL     1       7.527   5.691  19.555  0.00  0.00    +0.000 A 
ATOM     23  C   UNL     1       6.378   4.974  19.196  0.00  0.00    +0.000 A 
ATOM     24  C   UNL     1       5.703   5.242  17.991  0.00  0.00    +0.000 A 
BRANCH  19  26
ATOM     25  N   UNL     1       5.051   6.903  14.924  0.00  0.00    +0.000 NA
ATOM     26  C   UNL     1       5.550   6.623  15.929  0.00  0.00    +0.000 C 
ENDBRANCH  19  26
ENDBRANCH  17  24
ENDBRANCH   1  17
TORSDOF 5
ENDMDL
MODEL 5
REMARK VINA RESULT:      -7.3      1.406      1.967
REMARK  Name = 
REMARK  5 active torsions:
REMARK  status: ('A' for Active; 'I' for Inactive)
REMARK    1  A    between atoms: C_2  and  C_3
REMARK    2  A    between atoms: C_8  and  S_9
REMARK    3  A    between atoms: S_9  and  C_11
REMARK    4  A    between atoms: C_16  and  C_17
REMARK    5  A    between atoms: N_19  and  C_20
REMARK                            x       y       z     vdW  Elec       q    Type
REMARK                         _______ _______ _______ _____ _____    ______ ____
ROOT
ATOM      1  C   UNL     1       3.284   5.747  19.064  0.00  0.00    +0.000 A 
ATOM      2  C   UNL     1       3.498   4.355  19.000  0.00  0.00    +0.000 A 
ATOM      3  C   UNL     1       2.720   3.462  19.748  0.00  0.00    +0.000 A 
ATOM      4  C   UNL     1       1.688   3.935  20.542  0.00  0.00    +0.000 A 
ATOM      5  C   UNL     1       1.422   5.301  20.572  0.00  0.00    +0.000 A 
ATOM      6  C   UNL     1       2.202   6.220  19.838  0.00  0.00    +0.000 A 
ENDROOT
BRANCH   6   7
ATOM      7  C   UNL     1       1.842   7.650  20.083  0.00  0.00    +0.000 C 
ATOM      8  O   UNL     1       1.946   8.028  21.249  0.00  0.00    +0.000 OA
ATOM      9  N   UNL     1       1.349   8.422  19.038  0.00  0.00    +0.000 N 
ATOM     10  H   UNL     1       1.110   7.964  18.163  0.00  0.00    +0.000 HD
BRANCH   9  11
ATOM     11  C   UNL     1       1.013   9.801  19.144  0.00  0.00    +0.000 A 
ATOM     12  C   UNL     1       1.772  10.821  18.557  0.00  0.00    +0.000 A 
ATOM     13  C   UNL     1       1.425  12.168  18.708  0.00  0.00    +0.000 A 
ATOM     14  C   UNL     1       0.301  12.517  19.445  0.00  0.00    +0.000 A 
ATOM     15  C   UNL     1      -0.481  11.515  20.018  0.00  0.00    +0.000 A 
ATOM     16  C   UNL     1      -0.134  10.164  19.862  0.00  0.00    +0.000 A 
ENDBRANCH   9  11
ENDBRANCH   6   7
BRANCH   1  17
ATOM     17  S   UNL     1       4.346   6.918  18.177  0.00  0.00    +0.000 S 
ATOM     18  O   UNL     1       3.358   7.691  17.229  0.00  0.00    +0.000 OA
BRANCH  17  24
ATOM     19  C   UNL     1       6.564   5.264  17.586  0.00  0.00    +0.000 A 
ATOM     20  C   UNL     1       7.387   4.548  16.696  0.00  0.00    +0.000 A 
ATOM     21  C   UNL     1       6.997   4.359  15.369  0.00  0.00    +0.000 A 
ATOM     22  C   UNL     1       5.778   4.859  14.929  0.00  0.00    +0.000 A 
ATOM     23  C   UNL     1       4.956   5.576  15.808  0.00  0.00    +0.000 A 
ATOM     24  C   UNL     1       5.342   5.799  17.143  0.00  0.00    +0.000 A 
BRANCH  19  26
ATOM     25  N   UNL     1       7.368   5.555  20.032  0.00  0.00    +0.000 NA
ATOM     26  C   UNL     1       7.021   5.423  18.936  0.00  0.00    +0.000 C 
ENDBRANCH  19  26
ENDBRANCH  17  24
ENDBRANCH   1  17
TORSDOF 5
ENDMDL
MODEL 6
REMARK VINA RESULT:      -7.2      3.428      7.656
REMARK  Name = 
REMARK  5 active torsions:
REMARK  status: ('A' for Active; 'I' for Inactive)
REMARK    1  A    between atoms: C_2  and  C_3
REMARK    2  A    between atoms: C_8  and  S_9
REMARK    3  A    between atoms: S_9  and  C_11
REMARK    4  A    between atoms: C_16  and  C_17
REMARK    5  A    between atoms: N_19  and  C_20
REMARK                            x       y       z     vdW  Elec       q    Type
REMARK                         _______ _______ _______ _____ _____    ______ ____
ROOT
ATOM      1  C   UNL     1       5.770   4.721  18.134  0.00  0.00    +0.000 A 
ATOM      2  C   UNL     1       6.235   4.975  19.440  0.00  0.00    +0.000 A 
ATOM      3  C   UNL     1       7.286   5.869  19.680  0.00  0.00    +0.000 A 
ATOM      4  C   UNL     1       7.866   6.559  18.627  0.00  0.00    +0.000 A 
ATOM      5  C   UNL     1       7.381   6.367  17.337  0.00  0.00    +0.000 A 
ATOM      6  C   UNL     1       6.332   5.460  17.071  0.00  0.00    +0.000 A 
ENDROOT
BRANCH   6   7
ATOM      7  C   UNL     1       6.024   5.301  15.616  0.00  0.00    +0.000 C 
ATOM      8  O   UNL     1       5.524   6.284  15.073  0.00  0.00    +0.000 OA
ATOM      9  N   UNL     1       6.233   4.073  15.002  0.00  0.00    +0.000 N 
ATOM     10  H   UNL     1       6.458   3.268  15.581  0.00  0.00    +0.000 HD
BRANCH   9  11
ATOM     11  C   UNL     1       6.015   3.817  13.618  0.00  0.00    +0.000 A 
ATOM     12  C   UNL     1       4.760   3.489  13.089  0.00  0.00    +0.000 A 
ATOM     13  C   UNL     1       4.592   3.216  11.727  0.00  0.00    +0.000 A 
ATOM     14  C   UNL     1       5.681   3.275  10.868  0.00  0.00    +0.000 A 
ATOM     15  C   UNL     1       6.934   3.622  11.371  0.00  0.00    +0.000 A 
ATOM     16  C   UNL     1       7.100   3.901  12.737  0.00  0.00    +0.000 A 
ENDBRANCH   9  11
ENDBRANCH   6   7
BRANCH   1  17
ATOM     17  S   UNL     1       4.478   3.494  17.802  0.00  0.00    +0.000 S 
ATOM     18  O   UNL     1       3.703   4.076  16.565  0.00  0.00    +0.000 OA
BRANCH  17  24
ATOM     19  C   UNL     1       3.506   2.831  20.377  0.00  0.00    +0.000 A 
ATOM     20  C   UNL     1       2.550   2.899  21.406  0.00  0.00    +0.000 A 
ATOM     21  C   UNL     1       1.498   3.814  21.335  0.00  0.00    +0.000 A 
ATOM     22  C   UNL     1       1.407   4.681  20.253  0.00  0.00    +0.000 A 
ATOM     23  C   UNL     1       2.353   4.616  19.222  0.00  0.00    +0.000 A 
ATOM     24  C   UNL     1       3.408   3.684  19.263  0.00  0.00    +0.000 A 
BRANCH  19  26
ATOM     25  N   UNL     1       5.401   1.080  20.613  0.00  0.00    +0.000 NA
ATOM     26  C   UNL     1       4.563   1.871  20.509  0.00  0.00    +0.000 C 
ENDBRANCH  19  26
ENDBRANCH  17  24
ENDBRANCH   1  17
TORSDOF 5
ENDMDL
MODEL 7
REMARK VINA RESULT:      -7.2      3.706      6.380
REMARK  Name = 
REMARK  5 active torsions:
REMARK  status: ('A' for Active; 'I' for Inactive)
REMARK    1  A    between atoms: C_2  and  C_3
REMARK    2  A    between atoms: C_8  and  S_9
REMARK    3  A    between atoms: S_9  and  C_11
REMARK    4  A    between atoms: C_16  and  C_17
REMARK    5  A    between atoms: N_19  and  C_20
REMARK                            x       y       z     vdW  Elec       q    Type
REMARK                         _______ _______ _______ _____ _____    ______ ____
ROOT
ATOM      1  C   UNL     1       5.785   5.004  17.399  0.00  0.00    +0.000 A 
ATOM      2  C   UNL     1       5.263   4.051  16.501  0.00  0.00    +0.000 A 
ATOM      3  C   UNL     1       5.765   3.919  15.201  0.00  0.00    +0.000 A 
ATOM      4  C   UNL     1       6.825   4.708  14.782  0.00  0.00    +0.000 A 
ATOM      5  C   UNL     1       7.394   5.614  15.673  0.00  0.00    +0.000 A 
ATOM      6  C   UNL     1       6.894   5.772  16.984  0.00  0.00    +0.000 A 
ENDROOT
BRANCH   6   7
ATOM      7  C   UNL     1       7.556   6.868  17.755  0.00  0.00    +0.000 C 
ATOM      8  O   UNL     1       8.033   6.538  18.839  0.00  0.00    +0.000 OA
ATOM      9  N   UNL     1       7.523   8.168  17.264  0.00  0.00    +0.000 N 
ATOM     10  H   UNL     1       6.932   8.372  16.462  0.00  0.00    +0.000 HD
BRANCH   9  11
ATOM     11  C   UNL     1       8.151   9.282  17.889  0.00  0.00    +0.000 A 
ATOM     12  C   UNL     1       8.972   9.164  19.018  0.00  0.00    +0.000 A 
ATOM     13  C   UNL     1       9.548  10.287  19.621  0.00  0.00    +0.000 A 
ATOM     14  C   UNL     1       9.320  11.551  19.095  0.00  0.00    +0.000 A 
ATOM     15  C   UNL     1       8.525  11.688  17.958  0.00  0.00    +0.000 A 
ATOM     16  C   UNL     1       7.951  10.559  17.351  0.00  0.00    +0.000 A 
ENDBRANCH   9  11
ENDBRANCH   6   7
BRANCH   1  17
ATOM     17  S   UNL     1       5.079   5.248  19.050  0.00  0.00    +0.000 S 
ATOM     18  O   UNL     1       6.006   4.399  19.994  0.00  0.00    +0.000 OA
BRANCH  17  24
ATOM     19  C   UNL     1       3.329   3.042  19.333  0.00  0.00    +0.000 A 
ATOM     20  C   UNL     1       2.141   2.345  19.044  0.00  0.00    +0.000 A 
ATOM     21  C   UNL     1       1.112   2.965  18.333  0.00  0.00    +0.000 A 
ATOM     22  C   UNL     1       1.250   4.287  17.929  0.00  0.00    +0.000 A 
ATOM     23  C   UNL     1       2.431   4.986  18.210  0.00  0.00    +0.000 A 
ATOM     24  C   UNL     1       3.490   4.372  18.903  0.00  0.00    +0.000 A 
BRANCH  19  26
ATOM     25  N   UNL     1       5.158   1.794  20.678  0.00  0.00    +0.000 NA
ATOM     26  C   UNL     1       4.348   2.350  20.067  0.00  0.00    +0.000 C 
ENDBRANCH  19  26
ENDBRANCH  17  24
ENDBRANCH   1  17
TORSDOF 5
ENDMDL
MODEL 8
REMARK VINA RESULT:      -7.1      1.918      2.656
REMARK  Name = 
REMARK  5 active torsions:
REMARK  status: ('A' for Active; 'I' for Inactive)
REMARK    1  A    between atoms: C_2  and  C_3
REMARK    2  A    between atoms: C_8  and  S_9
REMARK    3  A    between atoms: S_9  and  C_11
REMARK    4  A    between atoms: C_16  and  C_17
REMARK    5  A    between atoms: N_19  and  C_20
REMARK                            x       y       z     vdW  Elec       q    Type
REMARK                         _______ _______ _______ _____ _____    ______ ____
ROOT
ATOM      1  C   UNL     1       3.088   3.471  19.277  0.00  0.00    +0.000 A 
ATOM      2  C   UNL     1       3.337   2.308  20.034  0.00  0.00    +0.000 A 
ATOM      3  C   UNL     1       2.926   2.203  21.368  0.00  0.00    +0.000 A 
ATOM      4  C   UNL     1       2.222   3.238  21.962  0.00  0.00    +0.000 A 
ATOM      5  C   UNL     1       1.913   4.370  21.214  0.00  0.00    +0.000 A 
ATOM      6  C   UNL     1       2.330   4.503  19.872  0.00  0.00    +0.000 A 
ENDROOT
BRANCH   6   7
ATOM      7  C   UNL     1       2.007   5.831  19.267  0.00  0.00    +0.000 C 
ATOM      8  O   UNL     1       1.737   5.814  18.067  0.00  0.00    +0.000 OA
ATOM      9  N   UNL     1       2.107   6.980  20.042  0.00  0.00    +0.000 N 
ATOM     10  H   UNL     1       2.531   6.912  20.963  0.00  0.00    +0.000 HD
BRANCH   9  11
ATOM     11  C   UNL     1       1.786   8.290  19.587  0.00  0.00    +0.000 A 
ATOM     12  C   UNL     1       0.998   9.185  20.322  0.00  0.00    +0.000 A 
ATOM     13  C   UNL     1       0.681  10.454  19.827  0.00  0.00    +0.000 A 
ATOM     14  C   UNL     1       1.157  10.854  18.586  0.00  0.00    +0.000 A 
ATOM     15  C   UNL     1       1.962   9.987  17.849  0.00  0.00    +0.000 A 
ATOM     16  C   UNL     1       2.284   8.716  18.349  0.00  0.00    +0.000 A 
ENDBRANCH   9  11
ENDBRANCH   6   7
BRANCH   1  17
ATOM     17  S   UNL     1       3.700   3.657  17.581  0.00  0.00    +0.000 S 
ATOM     18  O   UNL     1       4.136   2.204  17.169  0.00  0.00    +0.000 OA
BRANCH  17  24
ATOM     19  C   UNL     1       6.089   4.950  16.787  0.00  0.00    +0.000 A 
ATOM     20  C   UNL     1       7.332   5.553  17.056  0.00  0.00    +0.000 A 
ATOM     21  C   UNL     1       7.706   5.847  18.368  0.00  0.00    +0.000 A 
ATOM     22  C   UNL     1       6.836   5.566  19.415  0.00  0.00    +0.000 A 
ATOM     23  C   UNL     1       5.600   4.961  19.155  0.00  0.00    +0.000 A 
ATOM     24  C   UNL     1       5.214   4.634  17.842  0.00  0.00    +0.000 A 
BRANCH  19  26
ATOM     25  N   UNL     1       5.517   4.464  14.307  0.00  0.00    +0.000 NA
ATOM     26  C   UNL     1       5.763   4.674  15.418  0.00  0.00    +0.000 C 
ENDBRANCH  19  26
ENDBRANCH  17  24
ENDBRANCH   1  17
TORSDOF 5
ENDMDL
MODEL 9
REMARK VINA RESULT:      -6.9      3.226      7.671
REMARK  Name = 
REMARK  5 active torsions:
REMARK  status: ('A' for Active; 'I' for Inactive)
REMARK    1  A    between atoms: C_2  and  C_3
REMARK    2  A    between atoms: C_8  and  S_9
REMARK    3  A    between atoms: S_9  and  C_11
REMARK    4  A    between atoms: C_16  and  C_17
REMARK    5  A    between atoms: N_19  and  C_20
REMARK                            x       y       z     vdW  Elec       q    Type
REMARK                         _______ _______ _______ _____ _____    ______ ____
ROOT
ATOM      1  C   UNL     1       5.219   5.284  18.105  0.00  0.00    +0.000 A 
ATOM      2  C   UNL     1       5.656   5.391  19.441  0.00  0.00    +0.000 A 
ATOM      3  C   UNL     1       7.012   5.534  19.757  0.00  0.00    +0.000 A 
ATOM      4  C   UNL     1       7.956   5.616  18.745  0.00  0.00    +0.000 A 
ATOM      5  C   UNL     1       7.539   5.572  17.418  0.00  0.00    +0.000 A 
ATOM      6  C   UNL     1       6.178   5.414  17.078  0.00  0.00    +0.000 A 
ENDROOT
BRANCH   6   7
ATOM      7  C   UNL     1       5.934   5.274  15.610  0.00  0.00    +0.000 C 
ATOM      8  O   UNL     1       5.538   6.289  15.041  0.00  0.00    +0.000 OA
ATOM      9  N   UNL     1       6.081   4.031  15.007  0.00  0.00    +0.000 N 
ATOM     10  H   UNL     1       6.215   3.214  15.596  0.00  0.00    +0.000 HD
BRANCH   9  11
ATOM     11  C   UNL     1       5.916   3.787  13.613  0.00  0.00    +0.000 A 
ATOM     12  C   UNL     1       4.680   3.478  13.031  0.00  0.00    +0.000 A 
ATOM     13  C   UNL     1       4.563   3.216  11.662  0.00  0.00    +0.000 A 
ATOM     14  C   UNL     1       5.686   3.268  10.848  0.00  0.00    +0.000 A 
ATOM     15  C   UNL     1       6.922   3.596  11.404  0.00  0.00    +0.000 A 
ATOM     16  C   UNL     1       7.036   3.864  12.777  0.00  0.00    +0.000 A 
ENDBRANCH   9  11
ENDBRANCH   6   7
BRANCH   1  17
ATOM     17  S   UNL     1       3.477   5.000  17.690  0.00  0.00    +0.000 S 
ATOM     18  O   UNL     1       2.873   6.446  17.558  0.00  0.00    +0.000 OA
BRANCH  17  24
ATOM     19  C   UNL     1       2.821   2.887  19.453  0.00  0.00    +0.000 A 
ATOM     20  C   UNL     1       2.165   2.359  20.581  0.00  0.00    +0.000 A 
ATOM     21  C   UNL     1       1.537   3.207  21.496  0.00  0.00    +0.000 A 
ATOM     22  C   UNL     1       1.580   4.582  21.304  0.00  0.00    +0.000 A 
ATOM     23  C   UNL     1       2.226   5.114  20.182  0.00  0.00    +0.000 A 
ATOM     24  C   UNL     1       2.844   4.276  19.235  0.00  0.00    +0.000 A 
BRANCH  19  26
ATOM     25  N   UNL     1       3.939   1.202  17.833  0.00  0.00    +0.000 NA
ATOM     26  C   UNL     1       3.447   1.963  18.552  0.00  0.00    +0.000 C 
ENDBRANCH  19  26
ENDBRANCH  17  24
ENDBRANCH   1  17
TORSDOF 5
ENDMDL
