MODEL 1
REMARK VINA RESULT:      -6.0      0.000      0.000
REMARK  Name = 
REMARK  9 active torsions:
REMARK  status: ('A' for Active; 'I' for Inactive)
REMARK    1  A    between atoms: C_1  and  C_2
REMARK    2  A    between atoms: C_2  and  C_3
REMARK    3  A    between atoms: C_3  and  C_4
REMARK    4  A    between atoms: C_4  and  O_5
REMARK    5  A    between atoms: O_5  and  C_6
REMARK    6  A    between atoms: C_9  and  C_10
REMARK    7  A    between atoms: C_10  and  C_11
REMARK    8  A    between atoms: C_11  and  C_12
REMARK    9  A    between atoms: C_11  and  N_13
REMARK                            x       y       z     vdW  Elec       q    Type
REMARK                         _______ _______ _______ _____ _____    ______ ____
ROOT
ATOM      1  C   UNL     1       2.346   4.134  17.606  0.00  0.00    +0.000 A 
ATOM      2  C   UNL     1       3.329   3.291  17.079  0.00  0.00    +0.000 A 
ATOM      3  C   UNL     1       4.613   3.767  16.821  0.00  0.00    +0.000 A 
ATOM      4  C   UNL     1       4.942   5.103  17.062  0.00  0.00    +0.000 A 
ATOM      5  C   UNL     1       3.959   5.950  17.593  0.00  0.00    +0.000 A 
ATOM      6  C   UNL     1       2.671   5.468  17.861  0.00  0.00    +0.000 A 
ENDROOT
BRANCH   1   7
ATOM      7  O   UNL     1       1.062   3.751  17.911  0.00  0.00    +0.000 OA
BRANCH   7   8
ATOM      8  C   UNL     1       0.967   2.829  18.998  0.00  0.00    +0.000 C 
BRANCH   8   9
ATOM      9  C   UNL     1       0.778   3.551  20.326  0.00  0.00    +0.000 C 
BRANCH   9  11
ATOM     10  C   UNL     1       3.065   2.696  20.990  0.00  0.00    +0.000 C 
ATOM     11  C   UNL     1       1.614   2.853  21.401  0.00  0.00    +0.000 C 
ENDBRANCH   9  11
ENDBRANCH   8   9
ENDBRANCH   7   8
ENDBRANCH   1   7
BRANCH   4  12
ATOM     12  C   UNL     1       6.344   5.592  16.781  0.00  0.00    +0.000 C 
BRANCH  12  13
ATOM     13  C   UNL     1       6.865   6.644  17.788  0.00  0.00    +0.000 C 
ATOM     14  C   UNL     1       7.765   6.025  18.862  0.00  0.00    +0.000 C 
BRANCH  13  15
ATOM     15  N   UNL     1       7.611   7.689  17.073  0.00  0.00    +0.000 NA
ATOM     16  H   UNL     1       7.446   7.606  16.071  0.00  0.00    +0.000 HD
ATOM     17  H   UNL     1       8.612   7.541  17.205  0.00  0.00    +0.000 HD
ENDBRANCH  13  15
ENDBRANCH  12  13
ENDBRANCH   4  12
TORSDOF 7
ENDMDL
MODEL 2
REMARK VINA RESULT:      -6.0      1.037      1.039
REMARK  Name = 
REMARK  9 active torsions:
REMARK  status: ('A' for Active; 'I' for Inactive)
REMARK    1  A    between atoms: C_1  and  C_2
REMARK    2  A    between atoms: C_2  and  C_3
REMARK    3  A    between atoms: C_3  and  C_4
REMARK    4  A    between atoms: C_4  and  O_5
REMARK    5  A    between atoms: O_5  and  C_6
REMARK    6  A    between atoms: C_9  and  C_10
REMARK    7  A    between atoms: C_10  and  C_11
REMARK    8  A    between atoms: C_11  and  C_12
REMARK    9  A    between atoms: C_11  and  N_13
REMARK                            x       y       z     vdW  Elec       q    Type
REMARK                         _______ _______ _______ _____ _____    ______ ____
ROOT
ATOM      1  C   UNL     1       2.378   4.300  17.613  0.00  0.00    +0.000 A 
ATOM      2  C   UNL     1       3.374   3.479  17.076  0.00  0.00    +0.000 A 
ATOM      3  C   UNL     1       4.648   3.981  16.817  0.00  0.00    +0.000 A 
ATOM      4  C   UNL     1       4.953   5.322  17.067  0.00  0.00    +0.000 A 
ATOM      5  C   UNL     1       3.956   6.146  17.607  0.00  0.00    +0.000 A 
ATOM      6  C   UNL     1       2.679   5.638  17.877  0.00  0.00    +0.000 A 
ENDROOT
BRANCH   1   7
ATOM      7  O   UNL     1       1.102   3.891  17.920  0.00  0.00    +0.000 OA
BRANCH   7   8
ATOM      8  C   UNL     1       1.032   2.934  18.978  0.00  0.00    +0.000 C 
BRANCH   8   9
ATOM      9  C   UNL     1       0.860   3.612  20.332  0.00  0.00    +0.000 C 
BRANCH   9  11
ATOM     10  C   UNL     1       3.149   2.639  20.803  0.00  0.00    +0.000 C 
ATOM     11  C   UNL     1       1.766   2.925  21.356  0.00  0.00    +0.000 C 
ENDBRANCH   9  11
ENDBRANCH   8   9
ENDBRANCH   7   8
ENDBRANCH   1   7
BRANCH   4  12
ATOM     12  C   UNL     1       6.344   5.839  16.784  0.00  0.00    +0.000 C 
BRANCH  12  13
ATOM     13  C   UNL     1       7.387   5.489  17.871  0.00  0.00    +0.000 C 
ATOM     14  C   UNL     1       6.775   5.455  19.274  0.00  0.00    +0.000 C 
BRANCH  13  15
ATOM     15  N   UNL     1       7.995   4.184  17.575  0.00  0.00    +0.000 NA
ATOM     16  H   UNL     1       7.455   3.708  16.853  0.00  0.00    +0.000 HD
ATOM     17  H   UNL     1       7.940   3.590  18.402  0.00  0.00    +0.000 HD
ENDBRANCH  13  15
ENDBRANCH  12  13
ENDBRANCH   4  12
TORSDOF 7
ENDMDL
MODEL 3
REMARK VINA RESULT:      -5.8      1.953      2.599
REMARK  Name = 
REMARK  9 active torsions:
REMARK  status: ('A' for Active; 'I' for Inactive)
REMARK    1  A    between atoms: C_1  and  C_2
REMARK    2  A    between atoms: C_2  and  C_3
REMARK    3  A    between atoms: C_3  and  C_4
REMARK    4  A    between atoms: C_4  and  O_5
REMARK    5  A    between atoms: O_5  and  C_6
REMARK    6  A    between atoms: C_9  and  C_10
REMARK    7  A    between atoms: C_10  and  C_11
REMARK    8  A    between atoms: C_11  and  C_12
REMARK    9  A    between atoms: C_11  and  N_13
REMARK                            x       y       z     vdW  Elec       q    Type
REMARK                         _______ _______ _______ _____ _____    ______ ____
ROOT
ATOM      1  C   UNL     1       3.335   5.094  19.666  0.00  0.00    +0.000 A 
ATOM      2  C   UNL     1       4.501   4.421  19.289  0.00  0.00    +0.000 A 
ATOM      3  C   UNL     1       5.136   4.717  18.084  0.00  0.00    +0.000 A 
ATOM      4  C   UNL     1       4.610   5.677  17.216  0.00  0.00    +0.000 A 
ATOM      5  C   UNL     1       3.443   6.355  17.593  0.00  0.00    +0.000 A 
ATOM      6  C   UNL     1       2.811   6.063  18.809  0.00  0.00    +0.000 A 
ENDROOT
BRANCH   1   7
ATOM      7  O   UNL     1       2.651   4.886  20.840  0.00  0.00    +0.000 OA
BRANCH   7   8
ATOM      8  C   UNL     1       1.310   4.426  20.664  0.00  0.00    +0.000 C 
BRANCH   8   9
ATOM      9  C   UNL     1       1.263   2.920  20.441  0.00  0.00    +0.000 C 
BRANCH   9  11
ATOM     10  C   UNL     1       2.013   2.144  18.152  0.00  0.00    +0.000 C 
ATOM     11  C   UNL     1       0.853   2.639  18.993  0.00  0.00    +0.000 C 
ENDBRANCH   9  11
ENDBRANCH   8   9
ENDBRANCH   7   8
ENDBRANCH   1   7
BRANCH   4  12
ATOM     12  C   UNL     1       5.323   5.984  15.919  0.00  0.00    +0.000 C 
BRANCH  12  13
ATOM     13  C   UNL     1       6.304   4.883  15.455  0.00  0.00    +0.000 C 
ATOM     14  C   UNL     1       5.809   4.150  14.206  0.00  0.00    +0.000 C 
BRANCH  13  15
ATOM     15  N   UNL     1       7.621   5.475  15.180  0.00  0.00    +0.000 NA
ATOM     16  H   UNL     1       7.614   6.464  15.429  0.00  0.00    +0.000 HD
ATOM     17  H   UNL     1       7.805   5.442  14.177  0.00  0.00    +0.000 HD
ENDBRANCH  13  15
ENDBRANCH  12  13
ENDBRANCH   4  12
TORSDOF 7
ENDMDL
MODEL 4
REMARK VINA RESULT:      -5.8      2.883      5.757
REMARK  Name = 
REMARK  9 active torsions:
REMARK  status: ('A' for Active; 'I' for Inactive)
REMARK    1  A    between atoms: C_1  and  C_2
REMARK    2  A    between atoms: C_2  and  C_3
REMARK    3  A    between atoms: C_3  and  C_4
REMARK    4  A    between atoms: C_4  and  O_5
REMARK    5  A    between atoms: O_5  and  C_6
REMARK    6  A    between atoms: C_9  and  C_10
REMARK    7  A    between atoms: C_10  and  C_11
REMARK    8  A    between atoms: C_11  and  C_12
REMARK    9  A    between atoms: C_11  and  N_13
REMARK                            x       y       z     vdW  Elec       q    Type
REMARK                         _______ _______ _______ _____ _____    ______ ____
ROOT
ATOM      1  C   UNL     1       4.780   6.380  16.828  0.00  0.00    +0.000 A 
ATOM      2  C   UNL     1       3.758   6.987  17.562  0.00  0.00    +0.000 A 
ATOM      3  C   UNL     1       2.720   6.228  18.101  0.00  0.00    +0.000 A 
ATOM      4  C   UNL     1       2.666   4.846  17.901  0.00  0.00    +0.000 A 
ATOM      5  C   UNL     1       3.692   4.235  17.166  0.00  0.00    +0.000 A 
ATOM      6  C   UNL     1       4.740   4.998  16.634  0.00  0.00    +0.000 A 
ENDROOT
BRANCH   1   7
ATOM      7  O   UNL     1       5.852   7.041  16.276  0.00  0.00    +0.000 OA
BRANCH   7   8
ATOM      8  C   UNL     1       7.125   6.527  16.672  0.00  0.00    +0.000 C 
BRANCH   8   9
ATOM      9  C   UNL     1       7.582   7.132  17.994  0.00  0.00    +0.000 C 
BRANCH   9  11
ATOM     10  C   UNL     1       7.821   4.635  18.337  0.00  0.00    +0.000 C 
ATOM     11  C   UNL     1       7.876   6.004  18.987  0.00  0.00    +0.000 C 
ENDBRANCH   9  11
ENDBRANCH   8   9
ENDBRANCH   7   8
ENDBRANCH   1   7
BRANCH   4  12
ATOM     12  C   UNL     1       1.535   4.046  18.502  0.00  0.00    +0.000 C 
BRANCH  12  13
ATOM     13  C   UNL     1       1.991   2.910  19.448  0.00  0.00    +0.000 C 
ATOM     14  C   UNL     1       1.350   3.014  20.834  0.00  0.00    +0.000 C 
BRANCH  13  15
ATOM     15  N   UNL     1       1.656   1.607  18.856  0.00  0.00    +0.000 NA
ATOM     16  H   UNL     1       0.893   1.177  19.377  0.00  0.00    +0.000 HD
ATOM     17  H   UNL     1       2.452   0.976  18.954  0.00  0.00    +0.000 HD
ENDBRANCH  13  15
ENDBRANCH  12  13
ENDBRANCH   4  12
TORSDOF 7
ENDMDL
MODEL 5
REMARK VINA RESULT:      -5.8      1.867      2.750
REMARK  Name = 
REMARK  9 active torsions:
REMARK  status: ('A' for Active; 'I' for Inactive)
REMARK    1  A    between atoms: C_1  and  C_2
REMARK    2  A    between atoms: C_2  and  C_3
REMARK    3  A    between atoms: C_3  and  C_4
REMARK    4  A    between atoms: C_4  and  O_5
REMARK    5  A    between atoms: O_5  and  C_6
REMARK    6  A    between atoms: C_9  and  C_10
REMARK    7  A    between atoms: C_10  and  C_11
REMARK    8  A    between atoms: C_11  and  C_12
REMARK    9  A    between atoms: C_11  and  N_13
REMARK                            x       y       z     vdW  Elec       q    Type
REMARK                         _______ _______ _______ _____ _____    ______ ____
ROOT
ATOM      1  C   UNL     1       3.065   5.440  19.731  0.00  0.00    +0.000 A 
ATOM      2  C   UNL     1       2.688   6.323  18.715  0.00  0.00    +0.000 A 
ATOM      3  C   UNL     1       3.554   6.611  17.663  0.00  0.00    +0.000 A 
ATOM      4  C   UNL     1       4.829   6.042  17.610  0.00  0.00    +0.000 A 
ATOM      5  C   UNL     1       5.210   5.155  18.627  0.00  0.00    +0.000 A 
ATOM      6  C   UNL     1       4.333   4.858  19.679  0.00  0.00    +0.000 A 
ENDROOT
BRANCH   1   7
ATOM      7  O   UNL     1       2.274   5.080  20.796  0.00  0.00    +0.000 OA
BRANCH   7   8
ATOM      8  C   UNL     1       1.046   4.450  20.427  0.00  0.00    +0.000 C 
BRANCH   8   9
ATOM      9  C   UNL     1       1.216   2.944  20.279  0.00  0.00    +0.000 C 
BRANCH   9  11
ATOM     10  C   UNL     1       2.162   2.348  18.008  0.00  0.00    +0.000 C 
ATOM     11  C   UNL     1       0.906   2.543  18.835  0.00  0.00    +0.000 C 
ENDBRANCH   9  11
ENDBRANCH   8   9
ENDBRANCH   7   8
ENDBRANCH   1   7
BRANCH   4  12
ATOM     12  C   UNL     1       5.747   6.365  16.454  0.00  0.00    +0.000 C 
BRANCH  12  13
ATOM     13  C   UNL     1       6.428   5.131  15.818  0.00  0.00    +0.000 C 
ATOM     14  C   UNL     1       5.467   4.320  14.945  0.00  0.00    +0.000 C 
BRANCH  13  15
ATOM     15  N   UNL     1       7.576   5.561  15.005  0.00  0.00    +0.000 NA
ATOM     16  H   UNL     1       8.172   6.181  15.552  0.00  0.00    +0.000 HD
ATOM     17  H   UNL     1       7.243   6.117  14.218  0.00  0.00    +0.000 HD
ENDBRANCH  13  15
ENDBRANCH  12  13
ENDBRANCH   4  12
TORSDOF 7
ENDMDL
MODEL 6
REMARK VINA RESULT:      -5.7      1.034      1.166
REMARK  Name = 
REMARK  9 active torsions:
REMARK  status: ('A' for Active; 'I' for Inactive)
REMARK    1  A    between atoms: C_1  and  C_2
REMARK    2  A    between atoms: C_2  and  C_3
REMARK    3  A    between atoms: C_3  and  C_4
REMARK    4  A    between atoms: C_4  and  O_5
REMARK    5  A    between atoms: O_5  and  C_6
REMARK    6  A    between atoms: C_9  and  C_10
REMARK    7  A    between atoms: C_10  and  C_11
REMARK    8  A    between atoms: C_11  and  C_12
REMARK    9  A    between atoms: C_11  and  N_13
REMARK                            x       y       z     vdW  Elec       q    Type
REMARK                         _______ _______ _______ _____ _____    ______ ____
ROOT
ATOM      1  C   UNL     1       2.551   4.052  17.698  0.00  0.00    +0.000 A 
ATOM      2  C   UNL     1       3.750   3.380  17.441  0.00  0.00    +0.000 A 
ATOM      3  C   UNL     1       4.977   4.010  17.640  0.00  0.00    +0.000 A 
ATOM      4  C   UNL     1       5.037   5.335  18.078  0.00  0.00    +0.000 A 
ATOM      5  C   UNL     1       3.837   6.011  18.337  0.00  0.00    +0.000 A 
ATOM      6  C   UNL     1       2.604   5.373  18.147  0.00  0.00    +0.000 A 
ENDROOT
BRANCH   1   7
ATOM      7  O   UNL     1       1.297   3.508  17.551  0.00  0.00    +0.000 OA
BRANCH   7   8
ATOM      8  C   UNL     1       0.634   3.222  18.783  0.00  0.00    +0.000 C 
BRANCH   8   9
ATOM      9  C   UNL     1       1.464   2.291  19.658  0.00  0.00    +0.000 C 
BRANCH   9  11
ATOM     10  C   UNL     1       2.211   3.913  21.451  0.00  0.00    +0.000 C 
ATOM     11  C   UNL     1       1.330   2.724  21.120  0.00  0.00    +0.000 C 
ENDBRANCH   9  11
ENDBRANCH   8   9
ENDBRANCH   7   8
ENDBRANCH   1   7
BRANCH   4  12
ATOM     12  C   UNL     1       6.381   5.993  18.293  0.00  0.00    +0.000 C 
BRANCH  12  13
ATOM     13  C   UNL     1       6.811   6.949  17.156  0.00  0.00    +0.000 C 
ATOM     14  C   UNL     1       7.797   8.017  17.636  0.00  0.00    +0.000 C 
BRANCH  13  15
ATOM     15  N   UNL     1       7.424   6.178  16.064  0.00  0.00    +0.000 NA
ATOM     16  H   UNL     1       6.730   5.994  15.341  0.00  0.00    +0.000 HD
ATOM     17  H   UNL     1       7.711   5.265  16.415  0.00  0.00    +0.000 HD
ENDBRANCH  13  15
ENDBRANCH  12  13
ENDBRANCH   4  12
TORSDOF 7
ENDMDL
MODEL 7
REMARK VINA RESULT:      -5.7      1.188      1.746
REMARK  Name = 
REMARK  9 active torsions:
REMARK  status: ('A' for Active; 'I' for Inactive)
REMARK    1  A    between atoms: C_1  and  C_2
REMARK    2  A    between atoms: C_2  and  C_3
REMARK    3  A    between atoms: C_3  and  C_4
REMARK    4  A    between atoms: C_4  and  O_5
REMARK    5  A    between atoms: O_5  and  C_6
REMARK    6  A    between atoms: C_9  and  C_10
REMARK    7  A    between atoms: C_10  and  C_11
REMARK    8  A    between atoms: C_11  and  C_12
REMARK    9  A    between atoms: C_11  and  N_13
REMARK                            x       y       z     vdW  Elec       q    Type
REMARK                         _______ _______ _______ _____ _____    ______ ____
ROOT
ATOM      1  C   UNL     1       2.288   4.495  18.080  0.00  0.00    +0.000 A 
ATOM      2  C   UNL     1       2.823   5.779  18.220  0.00  0.00    +0.000 A 
ATOM      3  C   UNL     1       4.029   6.119  17.609  0.00  0.00    +0.000 A 
ATOM      4  C   UNL     1       4.742   5.178  16.861  0.00  0.00    +0.000 A 
ATOM      5  C   UNL     1       4.207   3.890  16.719  0.00  0.00    +0.000 A 
ATOM      6  C   UNL     1       2.989   3.553  17.325  0.00  0.00    +0.000 A 
ENDROOT
BRANCH   1   7
ATOM      7  O   UNL     1       1.099   4.074  18.627  0.00  0.00    +0.000 OA
BRANCH   7   8
ATOM      8  C   UNL     1       1.042   4.173  20.051  0.00  0.00    +0.000 C 
BRANCH   8   9
ATOM      9  C   UNL     1       1.170   2.806  20.710  0.00  0.00    +0.000 C 
BRANCH   9  11
ATOM     10  C   UNL     1       3.679   2.478  20.746  0.00  0.00    +0.000 C 
ATOM     11  C   UNL     1       2.439   2.777  21.566  0.00  0.00    +0.000 C 
ENDBRANCH   9  11
ENDBRANCH   8   9
ENDBRANCH   7   8
ENDBRANCH   1   7
BRANCH   4  12
ATOM     12  C   UNL     1       6.043   5.575  16.203  0.00  0.00    +0.000 C 
BRANCH  12  13
ATOM     13  C   UNL     1       7.281   5.467  17.123  0.00  0.00    +0.000 C 
ATOM     14  C   UNL     1       7.529   6.752  17.917  0.00  0.00    +0.000 C 
BRANCH  13  15
ATOM     15  N   UNL     1       7.110   4.345  18.057  0.00  0.00    +0.000 NA
ATOM     16  H   UNL     1       6.264   4.482  18.609  0.00  0.00    +0.000 HD
ATOM     17  H   UNL     1       7.881   4.339  18.724  0.00  0.00    +0.000 HD
ENDBRANCH  13  15
ENDBRANCH  12  13
ENDBRANCH   4  12
TORSDOF 7
ENDMDL
MODEL 8
REMARK VINA RESULT:      -5.6      1.019      1.697
REMARK  Name = 
REMARK  9 active torsions:
REMARK  status: ('A' for Active; 'I' for Inactive)
REMARK    1  A    between atoms: C_1  and  C_2
REMARK    2  A    between atoms: C_2  and  C_3
REMARK    3  A    between atoms: C_3  and  C_4
REMARK    4  A    between atoms: C_4  and  O_5
REMARK    5  A    between atoms: O_5  and  C_6
REMARK    6  A    between atoms: C_9  and  C_10
REMARK    7  A    between atoms: C_10  and  C_11
REMARK    8  A    between atoms: C_11  and  C_12
REMARK    9  A    between atoms: C_11  and  N_13
REMARK                            x       y       z     vdW  Elec       q    Type
REMARK                         _______ _______ _______ _____ _____    ______ ____
ROOT
ATOM      1  C   UNL     1       2.579   4.099  17.740  0.00  0.00    +0.000 A 
ATOM      2  C   UNL     1       2.680   5.367  18.318  0.00  0.00    +0.000 A 
ATOM      3  C   UNL     1       3.923   5.969  18.504  0.00  0.00    +0.000 A 
ATOM      4  C   UNL     1       5.099   5.309  18.136  0.00  0.00    +0.000 A 
ATOM      5  C   UNL     1       5.000   4.037  17.555  0.00  0.00    +0.000 A 
ATOM      6  C   UNL     1       3.748   3.438  17.360  0.00  0.00    +0.000 A 
ENDROOT
BRANCH   1   7
ATOM      7  O   UNL     1       1.399   3.435  17.500  0.00  0.00    +0.000 OA
BRANCH   7   8
ATOM      8  C   UNL     1       0.697   3.041  18.680  0.00  0.00    +0.000 C 
BRANCH   8   9
ATOM      9  C   UNL     1       1.612   2.310  19.654  0.00  0.00    +0.000 C 
BRANCH   9  11
ATOM     10  C   UNL     1       2.347   3.685  21.648  0.00  0.00    +0.000 C 
ATOM     11  C   UNL     1       1.288   2.759  21.081  0.00  0.00    +0.000 C 
ENDBRANCH   9  11
ENDBRANCH   8   9
ENDBRANCH   7   8
ENDBRANCH   1   7
BRANCH   4  12
ATOM     12  C   UNL     1       6.433   5.987  18.341  0.00  0.00    +0.000 C 
BRANCH  12  13
ATOM     13  C   UNL     1       6.847   6.938  17.194  0.00  0.00    +0.000 C 
ATOM     14  C   UNL     1       7.812   8.030  17.662  0.00  0.00    +0.000 C 
BRANCH  13  15
ATOM     15  N   UNL     1       7.475   6.167  16.111  0.00  0.00    +0.000 NA
ATOM     16  H   UNL     1       8.242   6.702  15.707  0.00  0.00    +0.000 HD
ATOM     17  H   UNL     1       6.801   6.031  15.358  0.00  0.00    +0.000 HD
ENDBRANCH  13  15
ENDBRANCH  12  13
ENDBRANCH   4  12
TORSDOF 7
ENDMDL
MODEL 9
REMARK VINA RESULT:      -5.6      0.908      1.215
REMARK  Name = 
REMARK  9 active torsions:
REMARK  status: ('A' for Active; 'I' for Inactive)
REMARK    1  A    between atoms: C_1  and  C_2
REMARK    2  A    between atoms: C_2  and  C_3
REMARK    3  A    between atoms: C_3  and  C_4
REMARK    4  A    between atoms: C_4  and  O_5
REMARK    5  A    between atoms: O_5  and  C_6
REMARK    6  A    between atoms: C_9  and  C_10
REMARK    7  A    between atoms: C_10  and  C_11
REMARK    8  A    between atoms: C_11  and  C_12
REMARK    9  A    between atoms: C_11  and  N_13
REMARK                            x       y       z     vdW  Elec       q    Type
REMARK                         _______ _______ _______ _____ _____    ______ ____
ROOT
ATOM      1  C   UNL     1       2.627   3.934  17.902  0.00  0.00    +0.000 A 
ATOM      2  C   UNL     1       3.759   3.153  18.152  0.00  0.00    +0.000 A 
ATOM      3  C   UNL     1       4.997   3.748  18.389  0.00  0.00    +0.000 A 
ATOM      4  C   UNL     1       5.140   5.137  18.361  0.00  0.00    +0.000 A 
ATOM      5  C   UNL     1       4.005   5.923  18.112  0.00  0.00    +0.000 A 
ATOM      6  C   UNL     1       2.760   5.324  17.883  0.00  0.00    +0.000 A 
ENDROOT
BRANCH   1   7
ATOM      7  O   UNL     1       1.364   3.440  17.677  0.00  0.00    +0.000 OA
BRANCH   7   8
ATOM      8  C   UNL     1       0.899   2.539  18.683  0.00  0.00    +0.000 C 
BRANCH   8   9
ATOM      9  C   UNL     1       0.542   3.275  19.968  0.00  0.00    +0.000 C 
BRANCH   9  11
ATOM     10  C   UNL     1       2.379   3.740  21.646  0.00  0.00    +0.000 C 
ATOM     11  C   UNL     1       1.389   2.721  21.116  0.00  0.00    +0.000 C 
ENDBRANCH   9  11
ENDBRANCH   8   9
ENDBRANCH   7   8
ENDBRANCH   1   7
BRANCH   4  12
ATOM     12  C   UNL     1       6.491   5.757  18.630  0.00  0.00    +0.000 C 
BRANCH  12  13
ATOM     13  C   UNL     1       7.274   6.154  17.357  0.00  0.00    +0.000 C 
ATOM     14  C   UNL     1       6.829   5.358  16.128  0.00  0.00    +0.000 C 
BRANCH  13  15
ATOM     15  N   UNL     1       7.099   7.590  17.094  0.00  0.00    +0.000 NA
ATOM     16  H   UNL     1       6.823   7.731  16.123  0.00  0.00    +0.000 HD
ATOM     17  H   UNL     1       7.995   8.065  17.201  0.00  0.00    +0.000 HD
ENDBRANCH  13  15
ENDBRANCH  12  13
ENDBRANCH   4  12
TORSDOF 7
ENDMDL
