MODEL 1
REMARK VINA RESULT:      -8.0      0.000      0.000
REMARK  Name = 
REMARK  1 active torsions:
REMARK  status: ('A' for Active; 'I' for Inactive)
REMARK    1  A    between atoms: C_10  and  C_11
REMARK                            x       y       z     vdW  Elec       q    Type
REMARK                         _______ _______ _______ _____ _____    ______ ____
ROOT
ATOM      1  O   UNL     1       5.037   2.647  19.137  0.00  0.00    +0.000 OA
ATOM      2  C   UNL     1       4.481   3.699  18.849  0.00  0.00    +0.000 C 
ATOM      3  C   UNL     1       4.970   4.536  17.716  0.00  0.00    +0.000 A 
ATOM      4  C   UNL     1       6.035   4.022  16.949  0.00  0.00    +0.000 A 
ATOM      5  C   UNL     1       6.564   4.757  15.894  0.00  0.00    +0.000 A 
ATOM      6  C   UNL     1       6.031   6.004  15.597  0.00  0.00    +0.000 A 
ATOM      7  C   UNL     1       4.960   6.513  16.343  0.00  0.00    +0.000 A 
ATOM      8  C   UNL     1       4.402   5.798  17.424  0.00  0.00    +0.000 A 
ATOM      9  C   UNL     1       3.245   6.299  18.269  0.00  0.00    +0.000 C 
ATOM     10  C   UNL     1       2.823   7.578  18.117  0.00  0.00    +0.000 C 
ATOM     11  C   UNL     1       2.711   5.391  19.262  0.00  0.00    +0.000 A 
ATOM     12  S   UNL     1       1.269   5.572  20.180  0.00  0.00    +0.000 S 
ATOM     13  C   UNL     1       1.556   4.169  21.097  0.00  0.00    +0.000 A 
ATOM     14  C   UNL     1       2.671   3.499  20.659  0.00  0.00    +0.000 A 
ATOM     15  C   UNL     1       3.310   4.176  19.572  0.00  0.00    +0.000 A 
ENDROOT
BRANCH  10  16
ATOM     16  C   UNL     1       1.802   8.356  18.829  0.00  0.00    +0.000 A 
ATOM     17  C   UNL     1       1.809   8.409  20.226  0.00  0.00    +0.000 A 
ATOM     18  C   UNL     1       0.887   9.216  20.892  0.00  0.00    +0.000 A 
ATOM     19 CL   UNL     1       0.911   9.294  22.612  0.00  0.00    +0.000 Cl
ATOM     20  C   UNL     1      -0.041   9.973  20.182  0.00  0.00    +0.000 A 
ATOM     21  C   UNL     1      -0.052   9.907  18.791  0.00  0.00    +0.000 A 
ATOM     22 CL   UNL     1      -1.191  10.841  17.901  0.00  0.00    +0.000 Cl
ATOM     23  C   UNL     1       0.863   9.104  18.109  0.00  0.00    +0.000 A 
ENDBRANCH  10  16
TORSDOF 1
ENDMDL
MODEL 2
REMARK VINA RESULT:      -7.8      0.236      1.893
REMARK  Name = 
REMARK  1 active torsions:
REMARK  status: ('A' for Active; 'I' for Inactive)
REMARK    1  A    between atoms: C_10  and  C_11
REMARK                            x       y       z     vdW  Elec       q    Type
REMARK                         _______ _______ _______ _____ _____    ______ ____
ROOT
ATOM      1  O   UNL     1       5.172   2.892  19.141  0.00  0.00    +0.000 OA
ATOM      2  C   UNL     1       4.590   3.922  18.824  0.00  0.00    +0.000 C 
ATOM      3  C   UNL     1       5.025   4.710  17.636  0.00  0.00    +0.000 A 
ATOM      4  C   UNL     1       6.068   4.174  16.854  0.00  0.00    +0.000 A 
ATOM      5  C   UNL     1       6.547   4.865  15.747  0.00  0.00    +0.000 A 
ATOM      6  C   UNL     1       5.985   6.089  15.411  0.00  0.00    +0.000 A 
ATOM      7  C   UNL     1       4.934   6.618  16.172  0.00  0.00    +0.000 A 
ATOM      8  C   UNL     1       4.427   5.949  17.305  0.00  0.00    +0.000 A 
ATOM      9  C   UNL     1       3.295   6.475  18.169  0.00  0.00    +0.000 C 
ATOM     10  C   UNL     1       2.849   7.739  17.972  0.00  0.00    +0.000 C 
ATOM     11  C   UNL     1       2.811   5.608  19.223  0.00  0.00    +0.000 A 
ATOM     12  S   UNL     1       1.401   5.814  20.184  0.00  0.00    +0.000 S 
ATOM     13  C   UNL     1       1.743   4.460  21.155  0.00  0.00    +0.000 A 
ATOM     14  C   UNL     1       2.851   3.785  20.708  0.00  0.00    +0.000 A 
ATOM     15  C   UNL     1       3.439   4.417  19.567  0.00  0.00    +0.000 A 
ENDROOT
BRANCH  10  16
ATOM     16  C   UNL     1       1.842   8.537  18.684  0.00  0.00    +0.000 A 
ATOM     17  C   UNL     1       0.826   9.180  17.970  0.00  0.00    +0.000 A 
ATOM     18  C   UNL     1      -0.173   9.869  18.658  0.00  0.00    +0.000 A 
ATOM     19 CL   UNL     1      -1.433  10.643  17.777  0.00  0.00    +0.000 Cl
ATOM     20  C   UNL     1      -0.173   9.922  20.049  0.00  0.00    +0.000 A 
ATOM     21  C   UNL     1       0.848   9.289  20.754  0.00  0.00    +0.000 A 
ATOM     22 CL   UNL     1       0.857   9.343  22.475  0.00  0.00    +0.000 Cl
ATOM     23  C   UNL     1       1.856   8.597  20.082  0.00  0.00    +0.000 A 
ENDBRANCH  10  16
TORSDOF 1
ENDMDL
MODEL 3
REMARK VINA RESULT:      -7.3      9.038     10.168
REMARK  Name = 
REMARK  1 active torsions:
REMARK  status: ('A' for Active; 'I' for Inactive)
REMARK    1  A    between atoms: C_10  and  C_11
REMARK                            x       y       z     vdW  Elec       q    Type
REMARK                         _______ _______ _______ _____ _____    ______ ____
ROOT
ATOM      1  O   UNL     1       8.084  14.635  17.784  0.00  0.00    +0.000 OA
ATOM      2  C   UNL     1       8.331  14.190  18.898  0.00  0.00    +0.000 C 
ATOM      3  C   UNL     1       9.477  13.261  19.112  0.00  0.00    +0.000 A 
ATOM      4  C   UNL     1      10.304  12.994  18.003  0.00  0.00    +0.000 A 
ATOM      5  C   UNL     1      11.376  12.115  18.117  0.00  0.00    +0.000 A 
ATOM      6  C   UNL     1      11.631  11.506  19.338  0.00  0.00    +0.000 A 
ATOM      7  C   UNL     1      10.825  11.783  20.450  0.00  0.00    +0.000 A 
ATOM      8  C   UNL     1       9.725  12.663  20.370  0.00  0.00    +0.000 A 
ATOM      9  C   UNL     1       8.816  12.997  21.538  0.00  0.00    +0.000 C 
ATOM     10  C   UNL     1       8.931  12.289  22.686  0.00  0.00    +0.000 C 
ATOM     11  C   UNL     1       7.807  14.013  21.319  0.00  0.00    +0.000 A 
ATOM     12  S   UNL     1       6.814  14.775  22.498  0.00  0.00    +0.000 S 
ATOM     13  C   UNL     1       5.930  15.647  21.336  0.00  0.00    +0.000 A 
ATOM     14  C   UNL     1       6.433  15.458  20.073  0.00  0.00    +0.000 A 
ATOM     15  C   UNL     1       7.543  14.556  20.067  0.00  0.00    +0.000 A 
ENDROOT
BRANCH  10  16
ATOM     16  C   UNL     1       8.159  12.327  23.935  0.00  0.00    +0.000 A 
ATOM     17  C   UNL     1       7.038  11.506  24.090  0.00  0.00    +0.000 A 
ATOM     18  C   UNL     1       6.358  11.487  25.308  0.00  0.00    +0.000 A 
ATOM     19 CL   UNL     1       4.990  10.460  25.502  0.00  0.00    +0.000 Cl
ATOM     20  C   UNL     1       6.783  12.276  26.374  0.00  0.00    +0.000 A 
ATOM     21  C   UNL     1       7.893  13.101  26.209  0.00  0.00    +0.000 A 
ATOM     22 CL   UNL     1       8.431  14.078  27.520  0.00  0.00    +0.000 Cl
ATOM     23  C   UNL     1       8.584  13.133  24.997  0.00  0.00    +0.000 A 
ENDBRANCH  10  16
TORSDOF 1
ENDMDL
MODEL 4
REMARK VINA RESULT:      -7.3      1.280      1.282
REMARK  Name = 
REMARK  1 active torsions:
REMARK  status: ('A' for Active; 'I' for Inactive)
REMARK    1  A    between atoms: C_10  and  C_11
REMARK                            x       y       z     vdW  Elec       q    Type
REMARK                         _______ _______ _______ _____ _____    ______ ____
ROOT
ATOM      1  O   UNL     1       5.120   3.502  19.542  0.00  0.00    +0.000 OA
ATOM      2  C   UNL     1       4.556   4.461  19.029  0.00  0.00    +0.000 C 
ATOM      3  C   UNL     1       5.048   5.039  17.746  0.00  0.00    +0.000 A 
ATOM      4  C   UNL     1       6.124   4.383  17.115  0.00  0.00    +0.000 A 
ATOM      5  C   UNL     1       6.655   4.878  15.929  0.00  0.00    +0.000 A 
ATOM      6  C   UNL     1       6.113   6.026  15.366  0.00  0.00    +0.000 A 
ATOM      7  C   UNL     1       5.031   6.672  15.978  0.00  0.00    +0.000 A 
ATOM      8  C   UNL     1       4.470   6.201  17.184  0.00  0.00    +0.000 A 
ATOM      9  C   UNL     1       3.301   6.861  17.893  0.00  0.00    +0.000 C 
ATOM     10  C   UNL     1       2.869   8.071  17.465  0.00  0.00    +0.000 C 
ATOM     11  C   UNL     1       2.767   6.182  19.056  0.00  0.00    +0.000 A 
ATOM     12  S   UNL     1       1.315   6.542  19.903  0.00  0.00    +0.000 S 
ATOM     13  C   UNL     1       1.607   5.373  21.103  0.00  0.00    +0.000 A 
ATOM     14  C   UNL     1       2.733   4.637  20.828  0.00  0.00    +0.000 A 
ATOM     15  C   UNL     1       3.375   5.070  19.624  0.00  0.00    +0.000 A 
ENDROOT
BRANCH  10  16
ATOM     16  C   UNL     1       1.834   8.974  17.985  0.00  0.00    +0.000 A 
ATOM     17  C   UNL     1       2.164   9.943  18.937  0.00  0.00    +0.000 A 
ATOM     18  C   UNL     1       1.195  10.850  19.365  0.00  0.00    +0.000 A 
ATOM     19 CL   UNL     1       1.610  12.055  20.523  0.00  0.00    +0.000 Cl
ATOM     20  C   UNL     1      -0.100  10.804  18.854  0.00  0.00    +0.000 A 
ATOM     21  C   UNL     1      -0.426   9.829  17.915  0.00  0.00    +0.000 A 
ATOM     22 CL   UNL     1      -2.021   9.764  17.272  0.00  0.00    +0.000 Cl
ATOM     23  C   UNL     1       0.532   8.913  17.477  0.00  0.00    +0.000 A 
ENDBRANCH  10  16
TORSDOF 1
ENDMDL
MODEL 5
REMARK VINA RESULT:      -7.3      6.316     10.062
REMARK  Name = 
REMARK  1 active torsions:
REMARK  status: ('A' for Active; 'I' for Inactive)
REMARK    1  A    between atoms: C_10  and  C_11
REMARK                            x       y       z     vdW  Elec       q    Type
REMARK                         _______ _______ _______ _____ _____    ______ ____
ROOT
ATOM      1  O   UNL     1      -5.710  12.605  22.954  0.00  0.00    +0.000 OA
ATOM      2  C   UNL     1      -4.966  12.564  21.982  0.00  0.00    +0.000 C 
ATOM      3  C   UNL     1      -5.518  12.443  20.603  0.00  0.00    +0.000 A 
ATOM      4  C   UNL     1      -6.921  12.467  20.466  0.00  0.00    +0.000 A 
ATOM      5  C   UNL     1      -7.511  12.331  19.215  0.00  0.00    +0.000 A 
ATOM      6  C   UNL     1      -6.705  12.177  18.095  0.00  0.00    +0.000 A 
ATOM      7  C   UNL     1      -5.310  12.172  18.221  0.00  0.00    +0.000 A 
ATOM      8  C   UNL     1      -4.677  12.301  19.475  0.00  0.00    +0.000 A 
ATOM      9  C   UNL     1      -3.172  12.299  19.673  0.00  0.00    +0.000 C 
ATOM     10  C   UNL     1      -2.371  11.976  18.630  0.00  0.00    +0.000 C 
ATOM     11  C   UNL     1      -2.682  12.564  21.009  0.00  0.00    +0.000 A 
ATOM     12  S   UNL     1      -1.060  12.873  21.488  0.00  0.00    +0.000 S 
ATOM     13  C   UNL     1      -1.451  12.920  23.143  0.00  0.00    +0.000 A 
ATOM     14  C   UNL     1      -2.804  12.809  23.345  0.00  0.00    +0.000 A 
ATOM     15  C   UNL     1      -3.519  12.653  22.115  0.00  0.00    +0.000 A 
ENDROOT
BRANCH  10  16
ATOM     16  C   UNL     1      -0.914  11.815  18.535  0.00  0.00    +0.000 A 
ATOM     17  C   UNL     1      -0.092  12.941  18.414  0.00  0.00    +0.000 A 
ATOM     18  C   UNL     1       1.294  12.787  18.407  0.00  0.00    +0.000 A 
ATOM     19 CL   UNL     1       2.303  14.176  18.279  0.00  0.00    +0.000 Cl
ATOM     20  C   UNL     1       1.872  11.525  18.521  0.00  0.00    +0.000 A 
ATOM     21  C   UNL     1       1.048  10.407  18.628  0.00  0.00    +0.000 A 
ATOM     22 CL   UNL     1       1.749   8.842  18.775  0.00  0.00    +0.000 Cl
ATOM     23  C   UNL     1      -0.341  10.543  18.636  0.00  0.00    +0.000 A 
ENDBRANCH  10  16
TORSDOF 1
ENDMDL
MODEL 6
REMARK VINA RESULT:      -7.2      6.145      8.263
REMARK  Name = 
REMARK  1 active torsions:
REMARK  status: ('A' for Active; 'I' for Inactive)
REMARK    1  A    between atoms: C_10  and  C_11
REMARK                            x       y       z     vdW  Elec       q    Type
REMARK                         _______ _______ _______ _____ _____    ______ ____
ROOT
ATOM      1  O   UNL     1       0.228   9.495  17.504  0.00  0.00    +0.000 OA
ATOM      2  C   UNL     1      -0.617  10.113  18.140  0.00  0.00    +0.000 C 
ATOM      3  C   UNL     1      -1.925  10.474  17.521  0.00  0.00    +0.000 A 
ATOM      4  C   UNL     1      -2.173  10.000  16.217  0.00  0.00    +0.000 A 
ATOM      5  C   UNL     1      -3.358  10.319  15.563  0.00  0.00    +0.000 A 
ATOM      6  C   UNL     1      -4.302  11.106  16.209  0.00  0.00    +0.000 A 
ATOM      7  C   UNL     1      -4.071  11.564  17.513  0.00  0.00    +0.000 A 
ATOM      8  C   UNL     1      -2.878  11.265  18.204  0.00  0.00    +0.000 A 
ATOM      9  C   UNL     1      -2.571  11.735  19.614  0.00  0.00    +0.000 C 
ATOM     10  C   UNL     1      -3.389  12.643  20.199  0.00  0.00    +0.000 C 
ATOM     11  C   UNL     1      -1.355  11.240  20.225  0.00  0.00    +0.000 A 
ATOM     12  S   UNL     1      -0.873  11.388  21.868  0.00  0.00    +0.000 S 
ATOM     13  C   UNL     1       0.643  10.667  21.594  0.00  0.00    +0.000 A 
ATOM     14  C   UNL     1       0.762  10.219  20.302  0.00  0.00    +0.000 A 
ATOM     15  C   UNL     1      -0.406  10.505  19.526  0.00  0.00    +0.000 A 
ENDROOT
BRANCH  10  16
ATOM     16  C   UNL     1      -3.311  13.331  21.494  0.00  0.00    +0.000 A 
ATOM     17  C   UNL     1      -3.876  12.746  22.632  0.00  0.00    +0.000 A 
ATOM     18  C   UNL     1      -3.727  13.365  23.873  0.00  0.00    +0.000 A 
ATOM     19 CL   UNL     1      -4.407  12.631  25.275  0.00  0.00    +0.000 Cl
ATOM     20  C   UNL     1      -3.021  14.559  23.994  0.00  0.00    +0.000 A 
ATOM     21  C   UNL     1      -2.472  15.143  22.856  0.00  0.00    +0.000 A 
ATOM     22 CL   UNL     1      -1.593  16.616  22.993  0.00  0.00    +0.000 Cl
ATOM     23  C   UNL     1      -2.612  14.538  21.606  0.00  0.00    +0.000 A 
ENDBRANCH  10  16
TORSDOF 1
ENDMDL
MODEL 7
REMARK VINA RESULT:      -7.2      9.058     10.116
REMARK  Name = 
REMARK  1 active torsions:
REMARK  status: ('A' for Active; 'I' for Inactive)
REMARK    1  A    between atoms: C_10  and  C_11
REMARK                            x       y       z     vdW  Elec       q    Type
REMARK                         _______ _______ _______ _____ _____    ______ ____
ROOT
ATOM      1  O   UNL     1       7.849  14.702  17.799  0.00  0.00    +0.000 OA
ATOM      2  C   UNL     1       8.169  14.235  18.885  0.00  0.00    +0.000 C 
ATOM      3  C   UNL     1       9.316  13.289  19.001  0.00  0.00    +0.000 A 
ATOM      4  C   UNL     1      10.059  13.031  17.831  0.00  0.00    +0.000 A 
ATOM      5  C   UNL     1      11.125  12.138  17.854  0.00  0.00    +0.000 A 
ATOM      6  C   UNL     1      11.458  11.506  19.044  0.00  0.00    +0.000 A 
ATOM      7  C   UNL     1      10.737  11.773  20.215  0.00  0.00    +0.000 A 
ATOM      8  C   UNL     1       9.646  12.667  20.228  0.00  0.00    +0.000 A 
ATOM      9  C   UNL     1       8.827  12.992  21.464  0.00  0.00    +0.000 C 
ATOM     10  C   UNL     1       9.015  12.263  22.590  0.00  0.00    +0.000 C 
ATOM     11  C   UNL     1       7.818  14.023  21.334  0.00  0.00    +0.000 A 
ATOM     12  S   UNL     1       6.922  14.776  22.593  0.00  0.00    +0.000 S 
ATOM     13  C   UNL     1       5.968  15.678  21.512  0.00  0.00    +0.000 A 
ATOM     14  C   UNL     1       6.377  15.505  20.213  0.00  0.00    +0.000 A 
ATOM     15  C   UNL     1       7.472  14.590  20.113  0.00  0.00    +0.000 A 
ENDROOT
BRANCH  10  16
ATOM     16  C   UNL     1       8.335  12.290  23.891  0.00  0.00    +0.000 A 
ATOM     17  C   UNL     1       8.782  13.151  24.898  0.00  0.00    +0.000 A 
ATOM     18  C   UNL     1       8.082  13.231  26.101  0.00  0.00    +0.000 A 
ATOM     19 CL   UNL     1       8.624  14.307  27.331  0.00  0.00    +0.000 Cl
ATOM     20  C   UNL     1       6.939  12.463  26.313  0.00  0.00    +0.000 A 
ATOM     21  C   UNL     1       6.506  11.598  25.311  0.00  0.00    +0.000 A 
ATOM     22 CL   UNL     1       5.092  10.648  25.558  0.00  0.00    +0.000 Cl
ATOM     23  C   UNL     1       7.195  11.506  24.102  0.00  0.00    +0.000 A 
ENDBRANCH  10  16
TORSDOF 1
ENDMDL
MODEL 8
REMARK VINA RESULT:      -7.2      5.983      8.231
REMARK  Name = 
REMARK  1 active torsions:
REMARK  status: ('A' for Active; 'I' for Inactive)
REMARK    1  A    between atoms: C_10  and  C_11
REMARK                            x       y       z     vdW  Elec       q    Type
REMARK                         _______ _______ _______ _____ _____    ______ ____
ROOT
ATOM      1  O   UNL     1       0.281   9.333  17.456  0.00  0.00    +0.000 OA
ATOM      2  C   UNL     1      -0.539   9.972  18.104  0.00  0.00    +0.000 C 
ATOM      3  C   UNL     1      -1.840  10.379  17.500  0.00  0.00    +0.000 A 
ATOM      4  C   UNL     1      -2.113   9.924  16.194  0.00  0.00    +0.000 A 
ATOM      5  C   UNL     1      -3.293  10.286  15.553  0.00  0.00    +0.000 A 
ATOM      6  C   UNL     1      -4.207  11.096  16.213  0.00  0.00    +0.000 A 
ATOM      7  C   UNL     1      -3.950  11.535  17.519  0.00  0.00    +0.000 A 
ATOM      8  C   UNL     1      -2.762  11.194  18.197  0.00  0.00    +0.000 A 
ATOM      9  C   UNL     1      -2.429  11.642  19.609  0.00  0.00    +0.000 C 
ATOM     10  C   UNL     1      -3.213  12.570  20.208  0.00  0.00    +0.000 C 
ATOM     11  C   UNL     1      -1.224  11.104  20.205  0.00  0.00    +0.000 A 
ATOM     12  S   UNL     1      -0.724  11.222  21.845  0.00  0.00    +0.000 S 
ATOM     13  C   UNL     1       0.767  10.457  21.552  0.00  0.00    +0.000 A 
ATOM     14  C   UNL     1       0.860  10.016  20.255  0.00  0.00    +0.000 A 
ATOM     15  C   UNL     1      -0.304  10.345  19.492  0.00  0.00    +0.000 A 
ENDROOT
BRANCH  10  16
ATOM     16  C   UNL     1      -3.103  13.244  21.508  0.00  0.00    +0.000 A 
ATOM     17  C   UNL     1      -2.473  14.489  21.601  0.00  0.00    +0.000 A 
ATOM     18  C   UNL     1      -2.445  15.160  22.823  0.00  0.00    +0.000 A 
ATOM     19 CL   UNL     1      -1.686  16.702  22.929  0.00  0.00    +0.000 Cl
ATOM     20  C   UNL     1      -3.039  14.607  23.954  0.00  0.00    +0.000 A 
ATOM     21  C   UNL     1      -3.654  13.361  23.858  0.00  0.00    +0.000 A 
ATOM     22 CL   UNL     1      -4.397  12.667  25.248  0.00  0.00    +0.000 Cl
ATOM     23  C   UNL     1      -3.691  12.675  22.643  0.00  0.00    +0.000 A 
ENDBRANCH  10  16
TORSDOF 1
ENDMDL
MODEL 9
REMARK VINA RESULT:      -7.1      6.181     10.051
REMARK  Name = 
REMARK  1 active torsions:
REMARK  status: ('A' for Active; 'I' for Inactive)
REMARK    1  A    between atoms: C_10  and  C_11
REMARK                            x       y       z     vdW  Elec       q    Type
REMARK                         _______ _______ _______ _____ _____    ______ ____
ROOT
ATOM      1  O   UNL     1      -6.708  12.262  17.195  0.00  0.00    +0.000 OA
ATOM      2  C   UNL     1      -5.669  12.134  17.830  0.00  0.00    +0.000 C 
ATOM      3  C   UNL     1      -5.610  12.490  19.277  0.00  0.00    +0.000 A 
ATOM      4  C   UNL     1      -6.814  12.892  19.890  0.00  0.00    +0.000 A 
ATOM      5  C   UNL     1      -6.833  13.267  21.229  0.00  0.00    +0.000 A 
ATOM      6  C   UNL     1      -5.654  13.236  21.962  0.00  0.00    +0.000 A 
ATOM      7  C   UNL     1      -4.458  12.819  21.364  0.00  0.00    +0.000 A 
ATOM      8  C   UNL     1      -4.400  12.438  20.007  0.00  0.00    +0.000 A 
ATOM      9  C   UNL     1      -3.134  11.980  19.305  0.00  0.00    +0.000 C 
ATOM     10  C   UNL     1      -1.945  12.108  19.941  0.00  0.00    +0.000 C 
ATOM     11  C   UNL     1      -3.269  11.508  17.943  0.00  0.00    +0.000 A 
ATOM     12  S   UNL     1      -2.085  10.704  16.991  0.00  0.00    +0.000 S 
ATOM     13  C   UNL     1      -3.068  10.683  15.603  0.00  0.00    +0.000 A 
ATOM     14  C   UNL     1      -4.320  11.180  15.865  0.00  0.00    +0.000 A 
ATOM     15  C   UNL     1      -4.453  11.611  17.223  0.00  0.00    +0.000 A 
ENDROOT
BRANCH  10  16
ATOM     16  C   UNL     1      -0.571  11.832  19.501  0.00  0.00    +0.000 A 
ATOM     17  C   UNL     1      -0.096  10.517  19.473  0.00  0.00    +0.000 A 
ATOM     18  C   UNL     1       1.181  10.254  18.976  0.00  0.00    +0.000 A 
ATOM     19 CL   UNL     1       1.755   8.632  18.925  0.00  0.00    +0.000 Cl
ATOM     20  C   UNL     1       1.988  11.286  18.505  0.00  0.00    +0.000 A 
ATOM     21  C   UNL     1       1.514  12.594  18.547  0.00  0.00    +0.000 A 
ATOM     22 CL   UNL     1       2.501  13.878  17.963  0.00  0.00    +0.000 Cl
ATOM     23  C   UNL     1       0.240  12.875  19.041  0.00  0.00    +0.000 A 
ENDBRANCH  10  16
TORSDOF 1
ENDMDL
