MODEL 1
REMARK VINA RESULT:      -7.7      0.000      0.000
REMARK  Name = 
REMARK  7 active torsions:
REMARK  status: ('A' for Active; 'I' for Inactive)
REMARK    1  A    between atoms: C_1  and  C_2
REMARK    2  A    between atoms: C_2  and  N_3
REMARK    3  A    between atoms: N_3  and  C_4
REMARK    4  A    between atoms: C_4  and  C_5
REMARK    5  A    between atoms: C_7  and  C_8
REMARK    6  A    between atoms: C_11  and  C_13
REMARK    7  A    between atoms: C_16  and  N_17
REMARK                            x       y       z     vdW  Elec       q    Type
REMARK                         _______ _______ _______ _____ _____    ______ ____
ROOT
ATOM      1  N   UNL     1       6.040   5.782  17.613  0.00  0.00    +0.000 N 
ATOM      2  C   UNL     1       4.835   5.519  18.287  0.00  0.00    +0.000 C 
ATOM      3  O   UNL     1       4.106   6.452  18.632  0.00  0.00    +0.000 OA
ENDROOT
BRANCH   2   4
ATOM      4  C   UNL     1       4.434   4.130  18.606  0.00  0.00    +0.000 A 
ATOM      5  N   UNL     1       5.183   3.293  19.357  0.00  0.00    +0.000 NA
ATOM      6  N   UNL     1       4.405   2.204  19.510  0.00  0.00    +0.000 N 
ATOM      7  C   UNL     1       3.194   2.289  18.889  0.00  0.00    +0.000 A 
ATOM      8  C   UNL     1       3.186   3.521  18.275  0.00  0.00    +0.000 A 
ATOM      9 CL   UNL     1       1.930   4.175  17.332  0.00  0.00    +0.000 Cl
ATOM     10  H   UNL     1       4.758   1.433  20.063  0.00  0.00    +0.000 HD
BRANCH   7  11
ATOM     11  N   UNL     1       2.276   1.299  18.948  0.00  0.00    +0.000 N 
ATOM     12  H   UNL     1       1.292   1.459  19.147  0.00  0.00    +0.000 HD
ATOM     13  H   UNL     1       2.447   0.427  18.444  0.00  0.00    +0.000 HD
ENDBRANCH   7  11
ENDBRANCH   2   4
BRANCH   1  15
ATOM     14  C   UNL     1       7.769   7.587  17.776  0.00  0.00    +0.000 C 
ATOM     15  C   UNL     1       6.361   7.187  17.354  0.00  0.00    +0.000 C 
ENDBRANCH   1  15
BRANCH   1  16
ATOM     16  C   UNL     1       6.941   4.759  17.061  0.00  0.00    +0.000 C 
BRANCH  16  17
ATOM     17  C   UNL     1       6.813   4.640  15.585  0.00  0.00    +0.000 A 
ATOM     18  N   UNL     1       6.051   3.853  14.856  0.00  0.00    +0.000 NA
ATOM     19  C   UNL     1       6.487   4.132  13.588  0.00  0.00    +0.000 A 
ATOM     20  C   UNL     1       6.018   3.366  12.419  0.00  0.00    +0.000 C 
ATOM     21  N   UNL     1       7.415   5.091  13.504  0.00  0.00    +0.000 NA
ATOM     22  O   UNL     1       7.637   5.434  14.840  0.00  0.00    +0.000 OA
ENDBRANCH  16  17
ENDBRANCH   1  16
TORSDOF 5
ENDMDL
MODEL 2
REMARK VINA RESULT:      -7.2      0.858      1.027
REMARK  Name = 
REMARK  7 active torsions:
REMARK  status: ('A' for Active; 'I' for Inactive)
REMARK    1  A    between atoms: C_1  and  C_2
REMARK    2  A    between atoms: C_2  and  N_3
REMARK    3  A    between atoms: N_3  and  C_4
REMARK    4  A    between atoms: C_4  and  C_5
REMARK    5  A    between atoms: C_7  and  C_8
REMARK    6  A    between atoms: C_11  and  C_13
REMARK    7  A    between atoms: C_16  and  N_17
REMARK                            x       y       z     vdW  Elec       q    Type
REMARK                         _______ _______ _______ _____ _____    ______ ____
ROOT
ATOM      1  N   UNL     1       6.023   5.853  17.655  0.00  0.00    +0.000 N 
ATOM      2  C   UNL     1       4.770   5.585  18.234  0.00  0.00    +0.000 C 
ATOM      3  O   UNL     1       3.989   6.511  18.468  0.00  0.00    +0.000 OA
ENDROOT
BRANCH   2   4
ATOM      4  C   UNL     1       4.378   4.201  18.582  0.00  0.00    +0.000 A 
ATOM      5  N   UNL     1       5.146   3.374  19.325  0.00  0.00    +0.000 NA
ATOM      6  N   UNL     1       4.373   2.288  19.513  0.00  0.00    +0.000 N 
ATOM      7  C   UNL     1       3.146   2.364  18.922  0.00  0.00    +0.000 A 
ATOM      8  C   UNL     1       3.122   3.587  18.291  0.00  0.00    +0.000 A 
ATOM      9 CL   UNL     1       1.842   4.228  17.373  0.00  0.00    +0.000 Cl
ATOM     10  H   UNL     1       4.740   1.524  20.067  0.00  0.00    +0.000 HD
BRANCH   7  11
ATOM     11  N   UNL     1       2.230   1.375  19.018  0.00  0.00    +0.000 N 
ATOM     12  H   UNL     1       1.344   1.478  19.506  0.00  0.00    +0.000 HD
ATOM     13  H   UNL     1       2.217   0.634  18.316  0.00  0.00    +0.000 HD
ENDBRANCH   7  11
ENDBRANCH   2   4
BRANCH   1  15
ATOM     14  C   UNL     1       7.749   7.667  17.728  0.00  0.00    +0.000 C 
ATOM     15  C   UNL     1       6.330   7.253  17.359  0.00  0.00    +0.000 C 
ENDBRANCH   1  15
BRANCH   1  16
ATOM     16  C   UNL     1       6.995   4.833  17.235  0.00  0.00    +0.000 C 
BRANCH  16  17
ATOM     17  C   UNL     1       6.994   4.636  15.762  0.00  0.00    +0.000 A 
ATOM     18  N   UNL     1       7.718   5.209  14.824  0.00  0.00    +0.000 NA
ATOM     19  C   UNL     1       7.159   4.699  13.682  0.00  0.00    +0.000 A 
ATOM     20  C   UNL     1       7.551   5.178  12.345  0.00  0.00    +0.000 C 
ATOM     21  N   UNL     1       6.190   3.798  13.877  0.00  0.00    +0.000 NA
ATOM     22  O   UNL     1       6.076   3.753  15.270  0.00  0.00    +0.000 OA
ENDBRANCH  16  17
ENDBRANCH   1  16
TORSDOF 5
ENDMDL
MODEL 3
REMARK VINA RESULT:      -7.1      1.598      1.709
REMARK  Name = 
REMARK  7 active torsions:
REMARK  status: ('A' for Active; 'I' for Inactive)
REMARK    1  A    between atoms: C_1  and  C_2
REMARK    2  A    between atoms: C_2  and  N_3
REMARK    3  A    between atoms: N_3  and  C_4
REMARK    4  A    between atoms: C_4  and  C_5
REMARK    5  A    between atoms: C_7  and  C_8
REMARK    6  A    between atoms: C_11  and  C_13
REMARK    7  A    between atoms: C_16  and  N_17
REMARK                            x       y       z     vdW  Elec       q    Type
REMARK                         _______ _______ _______ _____ _____    ______ ____
ROOT
ATOM      1  N   UNL     1       6.503   6.136  17.986  0.00  0.00    +0.000 N 
ATOM      2  C   UNL     1       6.248   5.348  19.122  0.00  0.00    +0.000 C 
ATOM      3  O   UNL     1       7.060   5.324  20.050  0.00  0.00    +0.000 OA
ENDROOT
BRANCH   2   4
ATOM      4  C   UNL     1       5.019   4.528  19.215  0.00  0.00    +0.000 A 
ATOM      5  N   UNL     1       5.025   3.177  19.234  0.00  0.00    +0.000 NA
ATOM      6  N   UNL     1       3.739   2.846  19.458  0.00  0.00    +0.000 N 
ATOM      7  C   UNL     1       2.898   3.913  19.577  0.00  0.00    +0.000 A 
ATOM      8  C   UNL     1       3.693   5.023  19.404  0.00  0.00    +0.000 A 
ATOM      9 CL   UNL     1       3.186   6.646  19.433  0.00  0.00    +0.000 Cl
ATOM     10  H   UNL     1       3.498   1.865  19.531  0.00  0.00    +0.000 HD
BRANCH   7  11
ATOM     11  N   UNL     1       1.576   3.774  19.821  0.00  0.00    +0.000 N 
ATOM     12  H   UNL     1       1.152   3.953  20.727  0.00  0.00    +0.000 HD
ATOM     13  H   UNL     1       0.914   3.845  19.047  0.00  0.00    +0.000 HD
ENDBRANCH   7  11
ENDBRANCH   2   4
BRANCH   1  15
ATOM     14  C   UNL     1       7.564   8.383  17.677  0.00  0.00    +0.000 C 
ATOM     15  C   UNL     1       7.750   6.901  17.977  0.00  0.00    +0.000 C 
ENDBRANCH   1  15
BRANCH   1  16
ATOM     16  C   UNL     1       5.570   6.329  16.865  0.00  0.00    +0.000 C 
BRANCH  16  17
ATOM     17  C   UNL     1       6.038   5.650  15.629  0.00  0.00    +0.000 A 
ATOM     18  N   UNL     1       5.389   4.878  14.783  0.00  0.00    +0.000 NA
ATOM     19  C   UNL     1       6.392   4.471  13.942  0.00  0.00    +0.000 A 
ATOM     20  C   UNL     1       6.168   3.455  12.900  0.00  0.00    +0.000 C 
ATOM     21  N   UNL     1       7.591   5.010  14.188  0.00  0.00    +0.000 NA
ATOM     22  O   UNL     1       7.359   5.799  15.317  0.00  0.00    +0.000 OA
ENDBRANCH  16  17
ENDBRANCH   1  16
TORSDOF 5
ENDMDL
MODEL 4
REMARK VINA RESULT:      -6.9      2.806      6.040
REMARK  Name = 
REMARK  7 active torsions:
REMARK  status: ('A' for Active; 'I' for Inactive)
REMARK    1  A    between atoms: C_1  and  C_2
REMARK    2  A    between atoms: C_2  and  N_3
REMARK    3  A    between atoms: N_3  and  C_4
REMARK    4  A    between atoms: C_4  and  C_5
REMARK    5  A    between atoms: C_7  and  C_8
REMARK    6  A    between atoms: C_11  and  C_13
REMARK    7  A    between atoms: C_16  and  N_17
REMARK                            x       y       z     vdW  Elec       q    Type
REMARK                         _______ _______ _______ _____ _____    ______ ____
ROOT
ATOM      1  N   UNL     1       3.196   3.536  19.039  0.00  0.00    +0.000 N 
ATOM      2  C   UNL     1       4.576   3.432  19.293  0.00  0.00    +0.000 C 
ATOM      3  O   UNL     1       5.008   2.495  19.968  0.00  0.00    +0.000 OA
ENDROOT
BRANCH   2   4
ATOM      4  C   UNL     1       5.520   4.446  18.772  0.00  0.00    +0.000 A 
ATOM      5  N   UNL     1       6.261   5.250  19.567  0.00  0.00    +0.000 NA
ATOM      6  N   UNL     1       7.062   5.910  18.709  0.00  0.00    +0.000 N 
ATOM      7  C   UNL     1       6.873   5.582  17.399  0.00  0.00    +0.000 A 
ATOM      8  C   UNL     1       5.863   4.646  17.401  0.00  0.00    +0.000 A 
ATOM      9 CL   UNL     1       5.188   3.882  16.041  0.00  0.00    +0.000 Cl
ATOM     10  H   UNL     1       7.731   6.571  19.084  0.00  0.00    +0.000 HD
BRANCH   7  11
ATOM     11  N   UNL     1       7.599   6.130  16.399  0.00  0.00    +0.000 N 
ATOM     12  H   UNL     1       7.655   7.130  16.231  0.00  0.00    +0.000 HD
ATOM     13  H   UNL     1       8.393   5.613  16.017  0.00  0.00    +0.000 HD
ENDBRANCH   7  11
ENDBRANCH   2   4
BRANCH   1  15
ATOM     14  C   UNL     1       0.942   2.446  18.998  0.00  0.00    +0.000 C 
ATOM     15  C   UNL     1       2.338   2.496  19.607  0.00  0.00    +0.000 C 
ENDBRANCH   1  15
BRANCH   1  16
ATOM     16  C   UNL     1       2.571   4.543  18.169  0.00  0.00    +0.000 C 
BRANCH  16  17
ATOM     17  C   UNL     1       2.382   5.843  18.866  0.00  0.00    +0.000 A 
ATOM     18  N   UNL     1       2.048   6.101  20.112  0.00  0.00    +0.000 NA
ATOM     19  C   UNL     1       1.915   7.464  20.094  0.00  0.00    +0.000 A 
ATOM     20  C   UNL     1       1.397   8.210  21.253  0.00  0.00    +0.000 C 
ATOM     21  N   UNL     1       2.220   8.049  18.930  0.00  0.00    +0.000 NA
ATOM     22  O   UNL     1       2.533   6.966  18.104  0.00  0.00    +0.000 OA
ENDBRANCH  16  17
ENDBRANCH   1  16
TORSDOF 5
ENDMDL
MODEL 5
REMARK VINA RESULT:      -6.8      3.083      5.947
REMARK  Name = 
REMARK  7 active torsions:
REMARK  status: ('A' for Active; 'I' for Inactive)
REMARK    1  A    between atoms: C_1  and  C_2
REMARK    2  A    between atoms: C_2  and  N_3
REMARK    3  A    between atoms: N_3  and  C_4
REMARK    4  A    between atoms: C_4  and  C_5
REMARK    5  A    between atoms: C_7  and  C_8
REMARK    6  A    between atoms: C_11  and  C_13
REMARK    7  A    between atoms: C_16  and  N_17
REMARK                            x       y       z     vdW  Elec       q    Type
REMARK                         _______ _______ _______ _____ _____    ______ ____
ROOT
ATOM      1  N   UNL     1       2.609   4.229  19.214  0.00  0.00    +0.000 N 
ATOM      2  C   UNL     1       3.399   3.618  18.224  0.00  0.00    +0.000 C 
ATOM      3  O   UNL     1       2.911   2.749  17.498  0.00  0.00    +0.000 OA
ENDROOT
BRANCH   2   4
ATOM      4  C   UNL     1       4.820   3.993  18.051  0.00  0.00    +0.000 A 
ATOM      5  N   UNL     1       5.720   3.984  19.059  0.00  0.00    +0.000 NA
ATOM      6  N   UNL     1       6.893   4.254  18.455  0.00  0.00    +0.000 N 
ATOM      7  C   UNL     1       6.798   4.447  17.108  0.00  0.00    +0.000 A 
ATOM      8  C   UNL     1       5.460   4.304  16.814  0.00  0.00    +0.000 A 
ATOM      9 CL   UNL     1       4.739   4.452  15.281  0.00  0.00    +0.000 Cl
ATOM     10  H   UNL     1       7.732   4.284  19.020  0.00  0.00    +0.000 HD
BRANCH   7  11
ATOM     11  N   UNL     1       7.873   4.710  16.333  0.00  0.00    +0.000 N 
ATOM     12  H   UNL     1       8.179   5.650  16.099  0.00  0.00    +0.000 HD
ATOM     13  H   UNL     1       8.619   4.016  16.260  0.00  0.00    +0.000 HD
ENDBRANCH   7  11
ENDBRANCH   2   4
BRANCH   1  15
ATOM     14  C   UNL     1       0.893   3.085  20.636  0.00  0.00    +0.000 C 
ATOM     15  C   UNL     1       1.219   3.783  19.321  0.00  0.00    +0.000 C 
ENDBRANCH   1  15
BRANCH   1  16
ATOM     16  C   UNL     1       3.041   5.343  20.071  0.00  0.00    +0.000 C 
BRANCH  16  17
ATOM     17  C   UNL     1       2.464   6.641  19.631  0.00  0.00    +0.000 A 
ATOM     18  N   UNL     1       2.548   7.262  18.474  0.00  0.00    +0.000 NA
ATOM     19  C   UNL     1       1.921   8.450  18.744  0.00  0.00    +0.000 A 
ATOM     20  C   UNL     1       1.899   9.556  17.771  0.00  0.00    +0.000 C 
ATOM     21  N   UNL     1       1.401   8.552  19.973  0.00  0.00    +0.000 NA
ATOM     22  O   UNL     1       1.763   7.342  20.571  0.00  0.00    +0.000 OA
ENDBRANCH  16  17
ENDBRANCH   1  16
TORSDOF 5
ENDMDL
MODEL 6
REMARK VINA RESULT:      -6.8      1.385      1.414
REMARK  Name = 
REMARK  7 active torsions:
REMARK  status: ('A' for Active; 'I' for Inactive)
REMARK    1  A    between atoms: C_1  and  C_2
REMARK    2  A    between atoms: C_2  and  N_3
REMARK    3  A    between atoms: N_3  and  C_4
REMARK    4  A    between atoms: C_4  and  C_5
REMARK    5  A    between atoms: C_7  and  C_8
REMARK    6  A    between atoms: C_11  and  C_13
REMARK    7  A    between atoms: C_16  and  N_17
REMARK                            x       y       z     vdW  Elec       q    Type
REMARK                         _______ _______ _______ _____ _____    ______ ____
ROOT
ATOM      1  N   UNL     1       5.557   5.871  17.421  0.00  0.00    +0.000 N 
ATOM      2  C   UNL     1       4.187   5.871  17.738  0.00  0.00    +0.000 C 
ATOM      3  O   UNL     1       3.611   6.936  17.978  0.00  0.00    +0.000 OA
ENDROOT
BRANCH   2   4
ATOM      4  C   UNL     1       3.425   4.605  17.804  0.00  0.00    +0.000 A 
ATOM      5  N   UNL     1       3.258   3.780  16.746  0.00  0.00    +0.000 NA
ATOM      6  N   UNL     1       2.635   2.705  17.263  0.00  0.00    +0.000 N 
ATOM      7  C   UNL     1       2.379   2.793  18.600  0.00  0.00    +0.000 A 
ATOM      8  C   UNL     1       2.863   4.025  18.981  0.00  0.00    +0.000 A 
ATOM      9 CL   UNL     1       2.809   4.694  20.543  0.00  0.00    +0.000 Cl
ATOM     10  H   UNL     1       2.416   1.930  16.648  0.00  0.00    +0.000 HD
BRANCH   7  11
ATOM     11  N   UNL     1       1.777   1.802  19.293  0.00  0.00    +0.000 N 
ATOM     12  H   UNL     1       0.855   1.891  19.711  0.00  0.00    +0.000 HD
ATOM     13  H   UNL     1       2.045   0.832  19.115  0.00  0.00    +0.000 HD
ENDBRANCH   7  11
ENDBRANCH   2   4
BRANCH   1  15
ATOM     14  C   UNL     1       7.648   7.142  17.953  0.00  0.00    +0.000 C 
ATOM     15  C   UNL     1       6.231   7.170  17.394  0.00  0.00    +0.000 C 
ENDBRANCH   1  15
BRANCH   1  16
ATOM     16  C   UNL     1       6.330   4.687  17.017  0.00  0.00    +0.000 C 
BRANCH  16  17
ATOM     17  C   UNL     1       6.500   4.609  15.542  0.00  0.00    +0.000 A 
ATOM     18  N   UNL     1       5.880   3.865  14.651  0.00  0.00    +0.000 NA
ATOM     19  C   UNL     1       6.571   4.161  13.505  0.00  0.00    +0.000 A 
ATOM     20  C   UNL     1       6.327   3.440  12.244  0.00  0.00    +0.000 C 
ATOM     21  N   UNL     1       7.522   5.092  13.639  0.00  0.00    +0.000 NA
ATOM     22  O   UNL     1       7.478   5.394  15.003  0.00  0.00    +0.000 OA
ENDBRANCH  16  17
ENDBRANCH   1  16
TORSDOF 5
ENDMDL
MODEL 7
REMARK VINA RESULT:      -6.8      1.572      1.667
REMARK  Name = 
REMARK  7 active torsions:
REMARK  status: ('A' for Active; 'I' for Inactive)
REMARK    1  A    between atoms: C_1  and  C_2
REMARK    2  A    between atoms: C_2  and  N_3
REMARK    3  A    between atoms: N_3  and  C_4
REMARK    4  A    between atoms: C_4  and  C_5
REMARK    5  A    between atoms: C_7  and  C_8
REMARK    6  A    between atoms: C_11  and  C_13
REMARK    7  A    between atoms: C_16  and  N_17
REMARK                            x       y       z     vdW  Elec       q    Type
REMARK                         _______ _______ _______ _____ _____    ______ ____
ROOT
ATOM      1  N   UNL     1       5.941   5.463  17.683  0.00  0.00    +0.000 N 
ATOM      2  C   UNL     1       5.413   4.510  18.571  0.00  0.00    +0.000 C 
ATOM      3  O   UNL     1       6.034   4.212  19.594  0.00  0.00    +0.000 OA
ENDROOT
BRANCH   2   4
ATOM      4  C   UNL     1       4.123   3.842  18.286  0.00  0.00    +0.000 A 
ATOM      5  N   UNL     1       3.973   2.882  17.346  0.00  0.00    +0.000 NA
ATOM      6  N   UNL     1       2.704   2.461  17.507  0.00  0.00    +0.000 N 
ATOM      7  C   UNL     1       2.020   3.106  18.496  0.00  0.00    +0.000 A 
ATOM      8  C   UNL     1       2.907   4.024  19.011  0.00  0.00    +0.000 A 
ATOM      9 CL   UNL     1       2.604   5.129  20.267  0.00  0.00    +0.000 Cl
ATOM     10  H   UNL     1       2.363   1.717  16.911  0.00  0.00    +0.000 HD
BRANCH   7  11
ATOM     11  N   UNL     1       0.741   2.804  18.811  0.00  0.00    +0.000 N 
ATOM     12  H   UNL     1       0.312   1.906  18.610  0.00  0.00    +0.000 HD
ATOM     13  H   UNL     1       0.282   3.307  19.572  0.00  0.00    +0.000 HD
ENDBRANCH   7  11
ENDBRANCH   2   4
BRANCH   1  15
ATOM     14  C   UNL     1       7.386   7.506  17.589  0.00  0.00    +0.000 C 
ATOM     15  C   UNL     1       7.229   6.060  18.039  0.00  0.00    +0.000 C 
ENDBRANCH   1  15
BRANCH   1  16
ATOM     16  C   UNL     1       5.253   5.978  16.489  0.00  0.00    +0.000 C 
BRANCH  16  17
ATOM     17  C   UNL     1       5.764   5.356  15.239  0.00  0.00    +0.000 A 
ATOM     18  N   UNL     1       5.217   4.458  14.448  0.00  0.00    +0.000 NA
ATOM     19  C   UNL     1       6.228   4.210  13.557  0.00  0.00    +0.000 A 
ATOM     20  C   UNL     1       6.131   3.141  12.549  0.00  0.00    +0.000 C 
ATOM     21  N   UNL     1       7.326   4.957  13.722  0.00  0.00    +0.000 NA
ATOM     22  O   UNL     1       7.020   5.726  14.849  0.00  0.00    +0.000 OA
ENDBRANCH  16  17
ENDBRANCH   1  16
TORSDOF 5
ENDMDL
MODEL 8
REMARK VINA RESULT:      -6.7      2.922      5.617
REMARK  Name = 
REMARK  7 active torsions:
REMARK  status: ('A' for Active; 'I' for Inactive)
REMARK    1  A    between atoms: C_1  and  C_2
REMARK    2  A    between atoms: C_2  and  N_3
REMARK    3  A    between atoms: N_3  and  C_4
REMARK    4  A    between atoms: C_4  and  C_5
REMARK    5  A    between atoms: C_7  and  C_8
REMARK    6  A    between atoms: C_11  and  C_13
REMARK    7  A    between atoms: C_16  and  N_17
REMARK                            x       y       z     vdW  Elec       q    Type
REMARK                         _______ _______ _______ _____ _____    ______ ____
ROOT
ATOM      1  N   UNL     1       2.711   4.267  19.307  0.00  0.00    +0.000 N 
ATOM      2  C   UNL     1       3.501   3.564  18.381  0.00  0.00    +0.000 C 
ATOM      3  O   UNL     1       3.024   2.606  17.768  0.00  0.00    +0.000 OA
ENDROOT
BRANCH   2   4
ATOM      4  C   UNL     1       4.910   3.948  18.142  0.00  0.00    +0.000 A 
ATOM      5  N   UNL     1       5.858   3.937  19.105  0.00  0.00    +0.000 NA
ATOM      6  N   UNL     1       6.999   4.218  18.447  0.00  0.00    +0.000 N 
ATOM      7  C   UNL     1       6.837   4.420  17.107  0.00  0.00    +0.000 A 
ATOM      8  C   UNL     1       5.488   4.271  16.878  0.00  0.00    +0.000 A 
ATOM      9 CL   UNL     1       4.693   4.426  15.383  0.00  0.00    +0.000 Cl
ATOM     10  H   UNL     1       7.864   4.248  18.971  0.00  0.00    +0.000 HD
BRANCH   7  11
ATOM     11  N   UNL     1       7.873   4.694  16.283  0.00  0.00    +0.000 N 
ATOM     12  H   UNL     1       7.818   4.622  15.271  0.00  0.00    +0.000 HD
ATOM     13  H   UNL     1       8.612   5.324  16.601  0.00  0.00    +0.000 HD
ENDBRANCH   7  11
ENDBRANCH   2   4
BRANCH   1  15
ATOM     14  C   UNL     1       1.058   3.205  20.861  0.00  0.00    +0.000 C 
ATOM     15  C   UNL     1       1.333   3.806  19.488  0.00  0.00    +0.000 C 
ENDBRANCH   1  15
BRANCH   1  16
ATOM     16  C   UNL     1       3.127   5.483  20.022  0.00  0.00    +0.000 C 
BRANCH  16  17
ATOM     17  C   UNL     1       2.804   6.717  19.260  0.00  0.00    +0.000 A 
ATOM     18  N   UNL     1       1.930   7.668  19.509  0.00  0.00    +0.000 NA
ATOM     19  C   UNL     1       2.023   8.442  18.382  0.00  0.00    +0.000 A 
ATOM     20  C   UNL     1       1.106   9.568  18.135  0.00  0.00    +0.000 C 
ATOM     21  N   UNL     1       2.952   8.053  17.501  0.00  0.00    +0.000 NA
ATOM     22  O   UNL     1       3.477   6.897  18.085  0.00  0.00    +0.000 OA
ENDBRANCH  16  17
ENDBRANCH   1  16
TORSDOF 5
ENDMDL
MODEL 9
REMARK VINA RESULT:      -6.7      3.088      6.098
REMARK  Name = 
REMARK  7 active torsions:
REMARK  status: ('A' for Active; 'I' for Inactive)
REMARK    1  A    between atoms: C_1  and  C_2
REMARK    2  A    between atoms: C_2  and  N_3
REMARK    3  A    between atoms: N_3  and  C_4
REMARK    4  A    between atoms: C_4  and  C_5
REMARK    5  A    between atoms: C_7  and  C_8
REMARK    6  A    between atoms: C_11  and  C_13
REMARK    7  A    between atoms: C_16  and  N_17
REMARK                            x       y       z     vdW  Elec       q    Type
REMARK                         _______ _______ _______ _____ _____    ______ ____
ROOT
ATOM      1  N   UNL     1       2.801   4.398  18.896  0.00  0.00    +0.000 N 
ATOM      2  C   UNL     1       3.783   4.128  17.927  0.00  0.00    +0.000 C 
ATOM      3  O   UNL     1       3.536   3.354  16.999  0.00  0.00    +0.000 OA
ENDROOT
BRANCH   2   4
ATOM      4  C   UNL     1       5.123   4.751  18.014  0.00  0.00    +0.000 A 
ATOM      5  N   UNL     1       6.109   4.287  18.814  0.00  0.00    +0.000 NA
ATOM      6  N   UNL     1       7.175   5.044  18.493  0.00  0.00    +0.000 N 
ATOM      7  C   UNL     1       6.930   5.980  17.531  0.00  0.00    +0.000 A 
ATOM      8  C   UNL     1       5.600   5.830  17.211  0.00  0.00    +0.000 A 
ATOM      9 CL   UNL     1       4.724   6.743  16.074  0.00  0.00    +0.000 Cl
ATOM     10  H   UNL     1       8.054   4.864  18.962  0.00  0.00    +0.000 HD
BRANCH   7  11
ATOM     11  N   UNL     1       7.886   6.816  17.070  0.00  0.00    +0.000 N 
ATOM     12  H   UNL     1       8.838   6.523  16.869  0.00  0.00    +0.000 HD
ATOM     13  H   UNL     1       7.611   7.660  16.563  0.00  0.00    +0.000 HD
ENDBRANCH   7  11
ENDBRANCH   2   4
BRANCH   1  15
ATOM     14  C   UNL     1       1.263   2.615  19.749  0.00  0.00    +0.000 C 
ATOM     15  C   UNL     1       1.511   3.725  18.736  0.00  0.00    +0.000 C 
ENDBRANCH   1  15
BRANCH   1  16
ATOM     16  C   UNL     1       2.936   5.375  19.986  0.00  0.00    +0.000 C 
BRANCH  16  17
ATOM     17  C   UNL     1       2.370   6.700  19.621  0.00  0.00    +0.000 A 
ATOM     18  N   UNL     1       2.420   7.365  18.487  0.00  0.00    +0.000 NA
ATOM     19  C   UNL     1       1.831   8.554  18.828  0.00  0.00    +0.000 A 
ATOM     20  C   UNL     1       1.794   9.698  17.901  0.00  0.00    +0.000 C 
ATOM     21  N   UNL     1       1.364   8.618  20.080  0.00  0.00    +0.000 NA
ATOM     22  O   UNL     1       1.724   7.377  20.616  0.00  0.00    +0.000 OA
ENDBRANCH  16  17
ENDBRANCH   1  16
TORSDOF 5
ENDMDL
