MODEL 1
REMARK VINA RESULT:      -8.2      0.000      0.000
REMARK  Name = 
REMARK  5 active torsions:
REMARK  status: ('A' for Active; 'I' for Inactive)
REMARK    1  A    between atoms: C_1  and  N_2
REMARK    2  A    between atoms: C_3  and  C_5
REMARK    3  A    between atoms: N_7  and  C_8
REMARK    4  A    between atoms: C_11  and  O_12
REMARK    5  A    between atoms: C_17  and  C_18
REMARK                            x       y       z     vdW  Elec       q    Type
REMARK                         _______ _______ _______ _____ _____    ______ ____
ROOT
ATOM      1  C   UNL     1       4.882   5.236  16.684  0.00  0.00    +0.000 A 
ATOM      2  C   UNL     1       4.322   4.599  17.725  0.00  0.00    +0.000 A 
ATOM      3  N   UNL     1       3.429   5.115  18.675  0.00  0.00    +0.000 N 
ATOM      4  C   UNL     1       3.110   6.518  18.544  0.00  0.00    +0.000 A 
ATOM      5  C   UNL     1       2.338   7.225  19.489  0.00  0.00    +0.000 A 
ATOM      6  C   UNL     1       1.888   8.550  19.302  0.00  0.00    +0.000 A 
ATOM      7  C   UNL     1       2.353   9.226  18.164  0.00  0.00    +0.000 A 
ATOM      8  C   UNL     1       3.209   8.601  17.260  0.00  0.00    +0.000 A 
ATOM      9  C   UNL     1       3.576   7.261  17.446  0.00  0.00    +0.000 A 
ATOM     10  C   UNL     1       4.496   6.645  16.468  0.00  0.00    +0.000 A 
ATOM     11  O   UNL     1       4.920   7.293  15.514  0.00  0.00    +0.000 OA
ENDROOT
BRANCH   3  12
ATOM     12  C   UNL     1       2.839   4.213  19.645  0.00  0.00    +0.000 A 
ATOM     13  C   UNL     1       3.631   3.371  20.454  0.00  0.00    +0.000 A 
ATOM     14  C   UNL     1       3.063   2.529  21.421  0.00  0.00    +0.000 A 
ATOM     15  C   UNL     1       1.690   2.542  21.620  0.00  0.00    +0.000 A 
ATOM     16  C   UNL     1       0.877   3.340  20.833  0.00  0.00    +0.000 A 
ATOM     17  C   UNL     1       1.445   4.124  19.824  0.00  0.00    +0.000 A 
BRANCH  15  18
ATOM     18  O   UNL     1       1.094   1.774  22.574  0.00  0.00    +0.000 OA
ATOM     19  H   UNL     1       0.353   2.270  22.958  0.00  0.00    +0.000 HD
ENDBRANCH  15  18
ENDBRANCH   3  12
BRANCH   6  20
ATOM     20  C   UNL     1       0.926   9.171  20.246  0.00  0.00    +0.000 A 
ATOM     21  C   UNL     1       0.209  10.332  19.918  0.00  0.00    +0.000 A 
ATOM     22  C   UNL     1      -0.632  10.909  20.859  0.00  0.00    +0.000 A 
ATOM     23  N   UNL     1      -0.828  10.414  22.096  0.00  0.00    +0.000 NA
ATOM     24  C   UNL     1      -0.145   9.295  22.406  0.00  0.00    +0.000 A 
ATOM     25  C   UNL     1       0.727   8.655  21.536  0.00  0.00    +0.000 A 
ENDBRANCH   6  20
BRANCH   1  28
ATOM     26  C   UNL     1       6.221   3.740  13.480  0.00  0.00    +0.000 C 
ATOM     27  N   UNL     1       5.423   4.398  14.478  0.00  0.00    +0.000 N 
ATOM     28  C   UNL     1       5.812   4.479  15.792  0.00  0.00    +0.000 C 
ATOM     29  O   UNL     1       6.846   3.977  16.221  0.00  0.00    +0.000 OA
ATOM     30  H   UNL     1       4.611   4.943  14.181  0.00  0.00    +0.000 HD
ENDBRANCH   1  28
TORSDOF 4
ENDMDL
MODEL 2
REMARK VINA RESULT:      -7.6      0.546      1.162
REMARK  Name = 
REMARK  5 active torsions:
REMARK  status: ('A' for Active; 'I' for Inactive)
REMARK    1  A    between atoms: C_1  and  N_2
REMARK    2  A    between atoms: C_3  and  C_5
REMARK    3  A    between atoms: N_7  and  C_8
REMARK    4  A    between atoms: C_11  and  O_12
REMARK    5  A    between atoms: C_17  and  C_18
REMARK                            x       y       z     vdW  Elec       q    Type
REMARK                         _______ _______ _______ _____ _____    ______ ____
ROOT
ATOM      1  C   UNL     1       4.783   5.248  16.726  0.00  0.00    +0.000 A 
ATOM      2  C   UNL     1       4.193   4.638  17.767  0.00  0.00    +0.000 A 
ATOM      3  N   UNL     1       3.305   5.191  18.701  0.00  0.00    +0.000 N 
ATOM      4  C   UNL     1       3.030   6.602  18.552  0.00  0.00    +0.000 A 
ATOM      5  C   UNL     1       2.270   7.341  19.481  0.00  0.00    +0.000 A 
ATOM      6  C   UNL     1       1.863   8.677  19.276  0.00  0.00    +0.000 A 
ATOM      7  C   UNL     1       2.361   9.327  18.137  0.00  0.00    +0.000 A 
ATOM      8  C   UNL     1       3.208   8.667  17.249  0.00  0.00    +0.000 A 
ATOM      9  C   UNL     1       3.531   7.319  17.452  0.00  0.00    +0.000 A 
ATOM     10  C   UNL     1       4.443   6.665  16.491  0.00  0.00    +0.000 A 
ATOM     11  O   UNL     1       4.897   7.290  15.536  0.00  0.00    +0.000 OA
ENDROOT
BRANCH   3  12
ATOM     12  C   UNL     1       2.677   4.317  19.672  0.00  0.00    +0.000 A 
ATOM     13  C   UNL     1       1.945   3.176  19.281  0.00  0.00    +0.000 A 
ATOM     14  C   UNL     1       1.374   2.307  20.223  0.00  0.00    +0.000 A 
ATOM     15  C   UNL     1       1.557   2.547  21.577  0.00  0.00    +0.000 A 
ATOM     16  C   UNL     1       2.253   3.666  22.001  0.00  0.00    +0.000 A 
ATOM     17  C   UNL     1       2.759   4.565  21.057  0.00  0.00    +0.000 A 
BRANCH  15  18
ATOM     18  O   UNL     1       1.058   1.711  22.529  0.00  0.00    +0.000 OA
ATOM     19  H   UNL     1       0.880   2.224  23.334  0.00  0.00    +0.000 HD
ENDBRANCH  15  18
ENDBRANCH   3  12
BRANCH   6  20
ATOM     20  C   UNL     1       0.909   9.337  20.203  0.00  0.00    +0.000 A 
ATOM     21  C   UNL     1       0.644   8.827  21.482  0.00  0.00    +0.000 A 
ATOM     22  C   UNL     1      -0.303   9.445  22.286  0.00  0.00    +0.000 A 
ATOM     23  N   UNL     1      -0.995  10.541  21.924  0.00  0.00    +0.000 NA
ATOM     24  C   UNL     1      -0.733  11.036  20.699  0.00  0.00    +0.000 A 
ATOM     25  C   UNL     1       0.186  10.477  19.821  0.00  0.00    +0.000 A 
ENDBRANCH   6  20
BRANCH   1  28
ATOM     26  C   UNL     1       6.186   3.783  13.534  0.00  0.00    +0.000 C 
ATOM     27  N   UNL     1       5.386   4.463  14.516  0.00  0.00    +0.000 N 
ATOM     28  C   UNL     1       5.700   4.453  15.852  0.00  0.00    +0.000 C 
ATOM     29  O   UNL     1       6.662   3.846  16.314  0.00  0.00    +0.000 OA
ATOM     30  H   UNL     1       4.641   5.088  14.200  0.00  0.00    +0.000 HD
ENDBRANCH   1  28
TORSDOF 4
ENDMDL
MODEL 3
REMARK VINA RESULT:      -7.1      4.669      9.750
REMARK  Name = 
REMARK  5 active torsions:
REMARK  status: ('A' for Active; 'I' for Inactive)
REMARK    1  A    between atoms: C_1  and  N_2
REMARK    2  A    between atoms: C_3  and  C_5
REMARK    3  A    between atoms: N_7  and  C_8
REMARK    4  A    between atoms: C_11  and  O_12
REMARK    5  A    between atoms: C_17  and  C_18
REMARK                            x       y       z     vdW  Elec       q    Type
REMARK                         _______ _______ _______ _____ _____    ______ ____
ROOT
ATOM      1  C   UNL     1      -2.438  12.868  21.493  0.00  0.00    +0.000 A 
ATOM      2  C   UNL     1      -2.635  12.472  20.224  0.00  0.00    +0.000 A 
ATOM      3  N   UNL     1      -1.955  11.472  19.515  0.00  0.00    +0.000 N 
ATOM      4  C   UNL     1      -0.876  10.820  20.222  0.00  0.00    +0.000 A 
ATOM      5  C   UNL     1      -0.007   9.892  19.615  0.00  0.00    +0.000 A 
ATOM      6  C   UNL     1       0.950   9.133  20.323  0.00  0.00    +0.000 A 
ATOM      7  C   UNL     1       1.115   9.427  21.685  0.00  0.00    +0.000 A 
ATOM      8  C   UNL     1       0.353  10.417  22.301  0.00  0.00    +0.000 A 
ATOM      9  C   UNL     1      -0.634  11.099  21.579  0.00  0.00    +0.000 A 
ATOM     10  C   UNL     1      -1.408  12.150  22.271  0.00  0.00    +0.000 A 
ATOM     11  O   UNL     1      -1.192  12.410  23.452  0.00  0.00    +0.000 OA
ENDROOT
BRANCH   3  12
ATOM     12  C   UNL     1      -2.420  11.114  18.190  0.00  0.00    +0.000 A 
ATOM     13  C   UNL     1      -1.694  10.234  17.360  0.00  0.00    +0.000 A 
ATOM     14  C   UNL     1      -2.166   9.855  16.094  0.00  0.00    +0.000 A 
ATOM     15  C   UNL     1      -3.394  10.323  15.652  0.00  0.00    +0.000 A 
ATOM     16  C   UNL     1      -4.129  11.202  16.430  0.00  0.00    +0.000 A 
ATOM     17  C   UNL     1      -3.619  11.631  17.659  0.00  0.00    +0.000 A 
BRANCH  15  18
ATOM     18  O   UNL     1      -3.915   9.951  14.450  0.00  0.00    +0.000 OA
ATOM     19  H   UNL     1      -4.073  10.747  13.917  0.00  0.00    +0.000 HD
ENDBRANCH  15  18
ENDBRANCH   3  12
BRANCH   6  20
ATOM     20  C   UNL     1       1.703   8.040  19.659  0.00  0.00    +0.000 A 
ATOM     21  C   UNL     1       1.936   6.809  20.290  0.00  0.00    +0.000 A 
ATOM     22  C   UNL     1       2.700   5.842  19.650  0.00  0.00    +0.000 A 
ATOM     23  N   UNL     1       3.237   5.998  18.426  0.00  0.00    +0.000 NA
ATOM     24  C   UNL     1       3.006   7.178  17.818  0.00  0.00    +0.000 A 
ATOM     25  C   UNL     1       2.266   8.207  18.384  0.00  0.00    +0.000 A 
ENDBRANCH   6  20
BRANCH   1  28
ATOM     26  C   UNL     1      -4.840  14.580  23.859  0.00  0.00    +0.000 C 
ATOM     27  N   UNL     1      -4.001  13.634  23.176  0.00  0.00    +0.000 N 
ATOM     28  C   UNL     1      -3.292  13.962  22.047  0.00  0.00    +0.000 C 
ATOM     29  O   UNL     1      -3.339  15.069  21.520  0.00  0.00    +0.000 OA
ATOM     30  H   UNL     1      -3.815  12.731  23.617  0.00  0.00    +0.000 HD
ENDBRANCH   1  28
TORSDOF 4
ENDMDL
MODEL 4
REMARK VINA RESULT:      -7.1      4.713      9.755
REMARK  Name = 
REMARK  5 active torsions:
REMARK  status: ('A' for Active; 'I' for Inactive)
REMARK    1  A    between atoms: C_1  and  N_2
REMARK    2  A    between atoms: C_3  and  C_5
REMARK    3  A    between atoms: N_7  and  C_8
REMARK    4  A    between atoms: C_11  and  O_12
REMARK    5  A    between atoms: C_17  and  C_18
REMARK                            x       y       z     vdW  Elec       q    Type
REMARK                         _______ _______ _______ _____ _____    ______ ____
ROOT
ATOM      1  C   UNL     1      -2.592  12.732  21.478  0.00  0.00    +0.000 A 
ATOM      2  C   UNL     1      -2.781  12.347  20.205  0.00  0.00    +0.000 A 
ATOM      3  N   UNL     1      -2.053  11.399  19.471  0.00  0.00    +0.000 N 
ATOM      4  C   UNL     1      -0.930  10.799  20.155  0.00  0.00    +0.000 A 
ATOM      5  C   UNL     1      -0.016   9.933  19.523  0.00  0.00    +0.000 A 
ATOM      6  C   UNL     1       0.992   9.219  20.208  0.00  0.00    +0.000 A 
ATOM      7  C   UNL     1       1.157   9.501  21.572  0.00  0.00    +0.000 A 
ATOM      8  C   UNL     1       0.347  10.435  22.213  0.00  0.00    +0.000 A 
ATOM      9  C   UNL     1      -0.688  11.071  21.513  0.00  0.00    +0.000 A 
ATOM     10  C   UNL     1      -1.512  12.063  22.232  0.00  0.00    +0.000 A 
ATOM     11  O   UNL     1      -1.297  12.317  23.415  0.00  0.00    +0.000 OA
ENDROOT
BRANCH   3  12
ATOM     12  C   UNL     1      -2.513  11.035  18.146  0.00  0.00    +0.000 A 
ATOM     13  C   UNL     1      -3.686  11.587  17.590  0.00  0.00    +0.000 A 
ATOM     14  C   UNL     1      -4.108  11.267  16.290  0.00  0.00    +0.000 A 
ATOM     15  C   UNL     1      -3.341  10.414  15.511  0.00  0.00    +0.000 A 
ATOM     16  C   UNL     1      -2.193   9.838  16.028  0.00  0.00    +0.000 A 
ATOM     17  C   UNL     1      -1.817  10.107  17.347  0.00  0.00    +0.000 A 
BRANCH  15  18
ATOM     18  O   UNL     1      -3.686  10.105  14.230  0.00  0.00    +0.000 OA
ATOM     19  H   UNL     1      -4.013   9.191  14.206  0.00  0.00    +0.000 HD
ENDBRANCH  15  18
ENDBRANCH   3  12
BRANCH   6  20
ATOM     20  C   UNL     1       1.799   8.183  19.516  0.00  0.00    +0.000 A 
ATOM     21  C   UNL     1       2.311   8.379  18.225  0.00  0.00    +0.000 A 
ATOM     22  C   UNL     1       3.006   7.355  17.598  0.00  0.00    +0.000 A 
ATOM     23  N   UNL     1       3.246   6.156  18.160  0.00  0.00    +0.000 NA
ATOM     24  C   UNL     1       2.761   5.971  19.404  0.00  0.00    +0.000 A 
ATOM     25  C   UNL     1       2.044   6.932  20.104  0.00  0.00    +0.000 A 
ENDBRANCH   6  20
BRANCH   1  28
ATOM     26  C   UNL     1      -3.593  15.948  23.197  0.00  0.00    +0.000 C 
ATOM     27  N   UNL     1      -2.868  14.845  22.627  0.00  0.00    +0.000 N 
ATOM     28  C   UNL     1      -3.501  13.767  22.060  0.00  0.00    +0.000 C 
ATOM     29  O   UNL     1      -4.721  13.645  22.019  0.00  0.00    +0.000 OA
ATOM     30  H   UNL     1      -1.856  14.925  22.513  0.00  0.00    +0.000 HD
ENDBRANCH   1  28
TORSDOF 4
ENDMDL
MODEL 5
REMARK VINA RESULT:      -7.0      4.497     10.007
REMARK  Name = 
REMARK  5 active torsions:
REMARK  status: ('A' for Active; 'I' for Inactive)
REMARK    1  A    between atoms: C_1  and  N_2
REMARK    2  A    between atoms: C_3  and  C_5
REMARK    3  A    between atoms: N_7  and  C_8
REMARK    4  A    between atoms: C_11  and  O_12
REMARK    5  A    between atoms: C_17  and  C_18
REMARK                            x       y       z     vdW  Elec       q    Type
REMARK                         _______ _______ _______ _____ _____    ______ ____
ROOT
ATOM      1  C   UNL     1      -0.933  13.019  22.818  0.00  0.00    +0.000 A 
ATOM      2  C   UNL     1       0.029  13.393  21.959  0.00  0.00    +0.000 A 
ATOM      3  N   UNL     1       0.815  12.578  21.132  0.00  0.00    +0.000 N 
ATOM      4  C   UNL     1       0.596  11.155  21.258  0.00  0.00    +0.000 A 
ATOM      5  C   UNL     1       1.390  10.191  20.604  0.00  0.00    +0.000 A 
ATOM      6  C   UNL     1       1.098   8.810  20.591  0.00  0.00    +0.000 A 
ATOM      7  C   UNL     1       0.025   8.379  21.385  0.00  0.00    +0.000 A 
ATOM      8  C   UNL     1      -0.719   9.285  22.138  0.00  0.00    +0.000 A 
ATOM      9  C   UNL     1      -0.440  10.656  22.068  0.00  0.00    +0.000 A 
ATOM     10  C   UNL     1      -1.247  11.578  22.894  0.00  0.00    +0.000 A 
ATOM     11  O   UNL     1      -2.143  11.148  23.616  0.00  0.00    +0.000 OA
ENDROOT
BRANCH   3  12
ATOM     12  C   UNL     1       1.709  13.202  20.177  0.00  0.00    +0.000 A 
ATOM     13  C   UNL     1       2.842  13.934  20.589  0.00  0.00    +0.000 A 
ATOM     14  C   UNL     1       3.730  14.503  19.663  0.00  0.00    +0.000 A 
ATOM     15  C   UNL     1       3.516  14.317  18.305  0.00  0.00    +0.000 A 
ATOM     16  C   UNL     1       2.404  13.621  17.861  0.00  0.00    +0.000 A 
ATOM     17  C   UNL     1       1.488  13.118  18.788  0.00  0.00    +0.000 A 
BRANCH  15  18
ATOM     18  O   UNL     1       4.370  14.814  17.369  0.00  0.00    +0.000 OA
ATOM     19  H   UNL     1       5.273  14.798  17.727  0.00  0.00    +0.000 HD
ENDBRANCH  15  18
ENDBRANCH   3  12
BRANCH   6  20
ATOM     20  C   UNL     1       1.865   7.874  19.731  0.00  0.00    +0.000 A 
ATOM     21  C   UNL     1       2.194   6.578  20.155  0.00  0.00    +0.000 A 
ATOM     22  C   UNL     1       2.967   5.764  19.339  0.00  0.00    +0.000 A 
ATOM     23  N   UNL     1       3.424   6.132  18.127  0.00  0.00    +0.000 NA
ATOM     24  C   UNL     1       3.100   7.373  17.718  0.00  0.00    +0.000 A 
ATOM     25  C   UNL     1       2.344   8.262  18.471  0.00  0.00    +0.000 A 
ENDBRANCH   6  20
BRANCH   1  28
ATOM     26  C   UNL     1      -3.851  15.053  24.102  0.00  0.00    +0.000 C 
ATOM     27  N   UNL     1      -3.006  14.126  23.400  0.00  0.00    +0.000 N 
ATOM     28  C   UNL     1      -1.650  14.072  23.601  0.00  0.00    +0.000 C 
ATOM     29  O   UNL     1      -1.051  14.822  24.366  0.00  0.00    +0.000 OA
ATOM     30  H   UNL     1      -3.440  13.391  22.838  0.00  0.00    +0.000 HD
ENDBRANCH   1  28
TORSDOF 4
ENDMDL
MODEL 6
REMARK VINA RESULT:      -7.0      4.499      9.975
REMARK  Name = 
REMARK  5 active torsions:
REMARK  status: ('A' for Active; 'I' for Inactive)
REMARK    1  A    between atoms: C_1  and  N_2
REMARK    2  A    between atoms: C_3  and  C_5
REMARK    3  A    between atoms: N_7  and  C_8
REMARK    4  A    between atoms: C_11  and  O_12
REMARK    5  A    between atoms: C_17  and  C_18
REMARK                            x       y       z     vdW  Elec       q    Type
REMARK                         _______ _______ _______ _____ _____    ______ ____
ROOT
ATOM      1  C   UNL     1      -0.906  13.064  22.771  0.00  0.00    +0.000 A 
ATOM      2  C   UNL     1       0.073  13.385  21.909  0.00  0.00    +0.000 A 
ATOM      3  N   UNL     1       0.853  12.521  21.126  0.00  0.00    +0.000 N 
ATOM      4  C   UNL     1       0.604  11.109  21.307  0.00  0.00    +0.000 A 
ATOM      5  C   UNL     1       1.387  10.104  20.703  0.00  0.00    +0.000 A 
ATOM      6  C   UNL     1       1.068   8.730  20.743  0.00  0.00    +0.000 A 
ATOM      7  C   UNL     1      -0.022   8.352  21.540  0.00  0.00    +0.000 A 
ATOM      8  C   UNL     1      -0.757   9.302  22.246  0.00  0.00    +0.000 A 
ATOM      9  C   UNL     1      -0.450  10.664  22.124  0.00  0.00    +0.000 A 
ATOM     10  C   UNL     1      -1.248  11.634  22.902  0.00  0.00    +0.000 A 
ATOM     11  O   UNL     1      -2.161  11.252  23.630  0.00  0.00    +0.000 OA
ENDROOT
BRANCH   3  12
ATOM     12  C   UNL     1       1.769  13.089  20.157  0.00  0.00    +0.000 A 
ATOM     13  C   UNL     1       1.592  12.905  18.770  0.00  0.00    +0.000 A 
ATOM     14  C   UNL     1       2.455  13.490  17.831  0.00  0.00    +0.000 A 
ATOM     15  C   UNL     1       3.492  14.301  18.267  0.00  0.00    +0.000 A 
ATOM     16  C   UNL     1       3.710  14.491  19.621  0.00  0.00    +0.000 A 
ATOM     17  C   UNL     1       2.889  13.848  20.551  0.00  0.00    +0.000 A 
BRANCH  15  18
ATOM     18  O   UNL     1       4.332  14.925  17.395  0.00  0.00    +0.000 OA
ATOM     19  H   UNL     1       4.917  14.262  16.994  0.00  0.00    +0.000 HD
ENDBRANCH  15  18
ENDBRANCH   3  12
BRANCH   6  20
ATOM     20  C   UNL     1       1.826   7.745  19.931  0.00  0.00    +0.000 A 
ATOM     21  C   UNL     1       2.315   8.056  18.654  0.00  0.00    +0.000 A 
ATOM     22  C   UNL     1       2.964   7.080  17.910  0.00  0.00    +0.000 A 
ATOM     23  N   UNL     1       3.177   5.823  18.343  0.00  0.00    +0.000 NA
ATOM     24  C   UNL     1       2.715   5.529  19.573  0.00  0.00    +0.000 A 
ATOM     25  C   UNL     1       2.043   6.434  20.384  0.00  0.00    +0.000 A 
ENDBRANCH   6  20
BRANCH   1  28
ATOM     26  C   UNL     1      -3.802  15.182  23.965  0.00  0.00    +0.000 C 
ATOM     27  N   UNL     1      -2.968  14.213  23.308  0.00  0.00    +0.000 N 
ATOM     28  C   UNL     1      -1.610  14.163  23.501  0.00  0.00    +0.000 C 
ATOM     29  O   UNL     1      -1.002  14.949  24.220  0.00  0.00    +0.000 OA
ATOM     30  H   UNL     1      -3.410  13.452  22.789  0.00  0.00    +0.000 HD
ENDBRANCH   1  28
TORSDOF 4
ENDMDL
MODEL 7
REMARK VINA RESULT:      -6.8      4.399      9.429
REMARK  Name = 
REMARK  5 active torsions:
REMARK  status: ('A' for Active; 'I' for Inactive)
REMARK    1  A    between atoms: C_1  and  N_2
REMARK    2  A    between atoms: C_3  and  C_5
REMARK    3  A    between atoms: N_7  and  C_8
REMARK    4  A    between atoms: C_11  and  O_12
REMARK    5  A    between atoms: C_17  and  C_18
REMARK                            x       y       z     vdW  Elec       q    Type
REMARK                         _______ _______ _______ _____ _____    ______ ____
ROOT
ATOM      1  C   UNL     1      -2.076  12.144  21.687  0.00  0.00    +0.000 A 
ATOM      2  C   UNL     1      -2.291  11.906  20.382  0.00  0.00    +0.000 A 
ATOM      3  N   UNL     1      -1.594  11.031  19.537  0.00  0.00    +0.000 N 
ATOM      4  C   UNL     1      -0.475  10.336  20.133  0.00  0.00    +0.000 A 
ATOM      5  C   UNL     1       0.411   9.526  19.394  0.00  0.00    +0.000 A 
ATOM      6  C   UNL     1       1.412   8.721  19.979  0.00  0.00    +0.000 A 
ATOM      7  C   UNL     1       1.602   8.846  21.363  0.00  0.00    +0.000 A 
ATOM      8  C   UNL     1       0.821   9.720  22.117  0.00  0.00    +0.000 A 
ATOM      9  C   UNL     1      -0.209  10.450  21.508  0.00  0.00    +0.000 A 
ATOM     10  C   UNL     1      -1.001  11.374  22.345  0.00  0.00    +0.000 A 
ATOM     11  O   UNL     1      -0.765  11.490  23.545  0.00  0.00    +0.000 OA
ENDROOT
BRANCH   3  12
ATOM     12  C   UNL     1      -2.080  10.826  18.187  0.00  0.00    +0.000 A 
ATOM     13  C   UNL     1      -1.583   9.790  17.368  0.00  0.00    +0.000 A 
ATOM     14  C   UNL     1      -2.084   9.565  16.077  0.00  0.00    +0.000 A 
ATOM     15  C   UNL     1      -3.119  10.354  15.596  0.00  0.00    +0.000 A 
ATOM     16  C   UNL     1      -3.620  11.393  16.363  0.00  0.00    +0.000 A 
ATOM     17  C   UNL     1      -3.068  11.654  17.620  0.00  0.00    +0.000 A 
BRANCH  15  18
ATOM     18  O   UNL     1      -3.667  10.150  14.366  0.00  0.00    +0.000 OA
ATOM     19  H   UNL     1      -3.117   9.516  13.879  0.00  0.00    +0.000 HD
ENDBRANCH  15  18
ENDBRANCH   3  12
BRANCH   6  20
ATOM     20  C   UNL     1       2.187   7.751  19.165  0.00  0.00    +0.000 A 
ATOM     21  C   UNL     1       2.843   8.131  17.985  0.00  0.00    +0.000 A 
ATOM     22  C   UNL     1       3.502   7.173  17.226  0.00  0.00    +0.000 A 
ATOM     23  N   UNL     1       3.572   5.870  17.558  0.00  0.00    +0.000 NA
ATOM     24  C   UNL     1       2.948   5.509  18.696  0.00  0.00    +0.000 A 
ATOM     25  C   UNL     1       2.254   6.393  19.511  0.00  0.00    +0.000 A 
ENDBRANCH   6  20
BRANCH   1  28
ATOM     26  C   UNL     1      -5.021  13.392  23.703  0.00  0.00    +0.000 C 
ATOM     27  N   UNL     1      -4.088  12.595  22.955  0.00  0.00    +0.000 N 
ATOM     28  C   UNL     1      -2.954  13.126  22.394  0.00  0.00    +0.000 C 
ATOM     29  O   UNL     1      -2.662  14.316  22.461  0.00  0.00    +0.000 OA
ATOM     30  H   UNL     1      -4.196  11.578  22.955  0.00  0.00    +0.000 HD
ENDBRANCH   1  28
TORSDOF 4
ENDMDL
MODEL 8
REMARK VINA RESULT:      -6.8      5.062     10.124
REMARK  Name = 
REMARK  5 active torsions:
REMARK  status: ('A' for Active; 'I' for Inactive)
REMARK    1  A    between atoms: C_1  and  N_2
REMARK    2  A    between atoms: C_3  and  C_5
REMARK    3  A    between atoms: N_7  and  C_8
REMARK    4  A    between atoms: C_11  and  O_12
REMARK    5  A    between atoms: C_17  and  C_18
REMARK                            x       y       z     vdW  Elec       q    Type
REMARK                         _______ _______ _______ _____ _____    ______ ____
ROOT
ATOM      1  C   UNL     1      -3.209  13.155  21.547  0.00  0.00    +0.000 A 
ATOM      2  C   UNL     1      -3.352  12.769  20.268  0.00  0.00    +0.000 A 
ATOM      3  N   UNL     1      -2.569  11.855  19.548  0.00  0.00    +0.000 N 
ATOM      4  C   UNL     1      -1.439  11.298  20.256  0.00  0.00    +0.000 A 
ATOM      5  C   UNL     1      -0.476  10.472  19.642  0.00  0.00    +0.000 A 
ATOM      6  C   UNL     1       0.544   9.796  20.348  0.00  0.00    +0.000 A 
ATOM      7  C   UNL     1       0.664  10.077  21.717  0.00  0.00    +0.000 A 
ATOM      8  C   UNL     1      -0.198  10.975  22.343  0.00  0.00    +0.000 A 
ATOM      9  C   UNL     1      -1.240  11.571  21.621  0.00  0.00    +0.000 A 
ATOM     10  C   UNL     1      -2.122  12.526  22.324  0.00  0.00    +0.000 A 
ATOM     11  O   UNL     1      -1.945  12.782  23.513  0.00  0.00    +0.000 OA
ENDROOT
BRANCH   3  12
ATOM     12  C   UNL     1      -2.982  11.480  18.211  0.00  0.00    +0.000 A 
ATOM     13  C   UNL     1      -2.072  10.947  17.274  0.00  0.00    +0.000 A 
ATOM     14  C   UNL     1      -2.481  10.545  15.993  0.00  0.00    +0.000 A 
ATOM     15  C   UNL     1      -3.820  10.637  15.641  0.00  0.00    +0.000 A 
ATOM     16  C   UNL     1      -4.741  11.172  16.527  0.00  0.00    +0.000 A 
ATOM     17  C   UNL     1      -4.313  11.635  17.774  0.00  0.00    +0.000 A 
BRANCH  15  18
ATOM     18  O   UNL     1      -4.274  10.222  14.427  0.00  0.00    +0.000 OA
ATOM     19  H   UNL     1      -4.867   9.464  14.556  0.00  0.00    +0.000 HD
ENDBRANCH  15  18
ENDBRANCH   3  12
BRANCH   6  20
ATOM     20  C   UNL     1       1.408   8.797  19.672  0.00  0.00    +0.000 A 
ATOM     21  C   UNL     1       1.846   8.968  18.350  0.00  0.00    +0.000 A 
ATOM     22  C   UNL     1       2.601   7.974  17.743  0.00  0.00    +0.000 A 
ATOM     23  N   UNL     1       2.968   6.831  18.352  0.00  0.00    +0.000 NA
ATOM     24  C   UNL     1       2.554   6.672  19.623  0.00  0.00    +0.000 A 
ATOM     25  C   UNL     1       1.785   7.604  20.308  0.00  0.00    +0.000 A 
ENDBRANCH   6  20
BRANCH   1  28
ATOM     26  C   UNL     1      -4.633  16.547  22.422  0.00  0.00    +0.000 C 
ATOM     27  N   UNL     1      -3.804  15.463  21.970  0.00  0.00    +0.000 N 
ATOM     28  C   UNL     1      -4.173  14.149  22.111  0.00  0.00    +0.000 C 
ATOM     29  O   UNL     1      -5.215  13.796  22.654  0.00  0.00    +0.000 OA
ATOM     30  H   UNL     1      -2.980  15.675  21.403  0.00  0.00    +0.000 HD
ENDBRANCH   1  28
TORSDOF 4
ENDMDL
MODEL 9
REMARK VINA RESULT:      -6.7      6.147     10.628
REMARK  Name = 
REMARK  5 active torsions:
REMARK  status: ('A' for Active; 'I' for Inactive)
REMARK    1  A    between atoms: C_1  and  N_2
REMARK    2  A    between atoms: C_3  and  C_5
REMARK    3  A    between atoms: N_7  and  C_8
REMARK    4  A    between atoms: C_11  and  O_12
REMARK    5  A    between atoms: C_17  and  C_18
REMARK                            x       y       z     vdW  Elec       q    Type
REMARK                         _______ _______ _______ _____ _____    ______ ____
ROOT
ATOM      1  C   UNL     1      -3.918  13.243  22.959  0.00  0.00    +0.000 A 
ATOM      2  C   UNL     1      -3.039  12.270  22.665  0.00  0.00    +0.000 A 
ATOM      3  N   UNL     1      -1.879  12.361  21.882  0.00  0.00    +0.000 N 
ATOM      4  C   UNL     1      -1.626  13.649  21.277  0.00  0.00    +0.000 A 
ATOM      5  C   UNL     1      -0.583  13.876  20.356  0.00  0.00    +0.000 A 
ATOM      6  C   UNL     1      -0.225  15.154  19.875  0.00  0.00    +0.000 A 
ATOM      7  C   UNL     1      -1.047  16.228  20.248  0.00  0.00    +0.000 A 
ATOM      8  C   UNL     1      -2.156  16.030  21.067  0.00  0.00    +0.000 A 
ATOM      9  C   UNL     1      -2.436  14.757  21.580  0.00  0.00    +0.000 A 
ATOM     10  C   UNL     1      -3.630  14.593  22.435  0.00  0.00    +0.000 A 
ATOM     11  O   UNL     1      -4.351  15.554  22.692  0.00  0.00    +0.000 OA
ENDROOT
BRANCH   3  12
ATOM     12  C   UNL     1      -0.996  11.214  21.803  0.00  0.00    +0.000 A 
ATOM     13  C   UNL     1      -0.475  10.760  20.573  0.00  0.00    +0.000 A 
ATOM     14  C   UNL     1       0.413   9.676  20.502  0.00  0.00    +0.000 A 
ATOM     15  C   UNL     1       0.824   9.050  21.670  0.00  0.00    +0.000 A 
ATOM     16  C   UNL     1       0.321   9.454  22.895  0.00  0.00    +0.000 A 
ATOM     17  C   UNL     1      -0.617  10.489  22.950  0.00  0.00    +0.000 A 
BRANCH  15  18
ATOM     18  O   UNL     1       1.716   8.021  21.657  0.00  0.00    +0.000 OA
ATOM     19  H   UNL     1       1.369   7.312  21.090  0.00  0.00    +0.000 HD
ENDBRANCH  15  18
ENDBRANCH   3  12
BRANCH   6  20
ATOM     20  C   UNL     1       0.997  15.348  19.056  0.00  0.00    +0.000 A 
ATOM     21  C   UNL     1       1.872  14.290  18.766  0.00  0.00    +0.000 A 
ATOM     22  C   UNL     1       3.035  14.536  18.049  0.00  0.00    +0.000 A 
ATOM     23  N   UNL     1       3.387  15.749  17.583  0.00  0.00    +0.000 NA
ATOM     24  C   UNL     1       2.542  16.762  17.855  0.00  0.00    +0.000 A 
ATOM     25  C   UNL     1       1.365  16.614  18.576  0.00  0.00    +0.000 A 
ENDBRANCH   6  20
BRANCH   1  28
ATOM     26  C   UNL     1      -7.476  13.375  24.232  0.00  0.00    +0.000 C 
ATOM     27  N   UNL     1      -6.245  13.598  23.525  0.00  0.00    +0.000 N 
ATOM     28  C   UNL     1      -5.092  12.915  23.824  0.00  0.00    +0.000 C 
ATOM     29  O   UNL     1      -5.014  12.088  24.727  0.00  0.00    +0.000 OA
ATOM     30  H   UNL     1      -6.257  14.179  22.684  0.00  0.00    +0.000 HD
ENDBRANCH   1  28
TORSDOF 4
ENDMDL
