MODEL 1
REMARK VINA RESULT:      -8.0      0.000      0.000
REMARK  Name = 
REMARK  3 active torsions:
REMARK  status: ('A' for Active; 'I' for Inactive)
REMARK    1  A    between atoms: C_6  and  O_7
REMARK    2  A    between atoms: O_7  and  S_8
REMARK    3  A    between atoms: S_8  and  C_11
REMARK                            x       y       z     vdW  Elec       q    Type
REMARK                         _______ _______ _______ _____ _____    ______ ____
ROOT
ATOM      1  O   UNL     1       1.560  11.651  17.830  0.00  0.00    +0.000 OA
ATOM      2  C   UNL     1       1.677  10.544  18.334  0.00  0.00    +0.000 A 
ATOM      3  O   UNL     1       2.446   9.555  17.687  0.00  0.00    +0.000 OA
ATOM      4  C   UNL     1       2.602   8.236  18.171  0.00  0.00    +0.000 A 
ATOM      5  C   UNL     1       3.366   7.286  17.430  0.00  0.00    +0.000 A 
ATOM      6  C   UNL     1       3.506   5.965  17.902  0.00  0.00    +0.000 A 
ATOM      7  C   UNL     1       2.883   5.630  19.099  0.00  0.00    +0.000 A 
ATOM      8  C   UNL     1       2.139   6.578  19.805  0.00  0.00    +0.000 A 
ATOM      9  C   UNL     1       1.996   7.907  19.370  0.00  0.00    +0.000 A 
ATOM     10  C   UNL     1       1.245   8.929  20.136  0.00  0.00    +0.000 A 
ATOM     11  C   UNL     1       1.038  10.204  19.671  0.00  0.00    +0.000 A 
ATOM     12  C   UNL     1       0.245  11.516  20.289  0.00  0.00    +0.000 C 
ATOM     13  C   UNL     1      -0.740  11.933  21.603  0.00  0.00    +0.000 C 
ATOM     14  C   UNL     1      -1.102  11.216  23.015  0.00  0.00    +0.000 C 
ATOM     15  C   UNL     1      -0.680   9.753  23.291  0.00  0.00    +0.000 C 
ATOM     16  C   UNL     1       0.089   9.522  22.074  0.00  0.00    +0.000 C 
ATOM     17  C   UNL     1       0.772   8.373  21.494  0.00  0.00    +0.000 C 
ENDROOT
BRANCH   6  18
ATOM     18  O   UNL     1       4.225   4.918  17.342  0.00  0.00    +0.000 OA
BRANCH  18  19
ATOM     19  S   UNL     1       5.760   4.630  17.792  0.00  0.00    +0.000 S 
ATOM     20  O   UNL     1       5.760   3.821  18.991  0.00  0.00    +0.000 OA
ATOM     21  O   UNL     1       6.525   4.251  16.625  0.00  0.00    +0.000 OA
BRANCH  19  22
ATOM     22  C   UNL     1       6.446   6.237  18.302  0.00  0.00    +0.000 C 
ATOM     23  C   UNL     1       7.870   6.206  18.789  0.00  0.00    +0.000 C 
ATOM     24  C   UNL     1       7.509   6.983  17.552  0.00  0.00    +0.000 C 
ENDBRANCH  19  22
ENDBRANCH  18  19
ENDBRANCH   6  18
TORSDOF 3
ENDMDL
MODEL 2
REMARK VINA RESULT:      -7.9      3.403      7.999
REMARK  Name = 
REMARK  3 active torsions:
REMARK  status: ('A' for Active; 'I' for Inactive)
REMARK    1  A    between atoms: C_6  and  O_7
REMARK    2  A    between atoms: O_7  and  S_8
REMARK    3  A    between atoms: S_8  and  C_11
REMARK                            x       y       z     vdW  Elec       q    Type
REMARK                         _______ _______ _______ _____ _____    ______ ____
ROOT
ATOM      1  O   UNL     1       2.187   4.756  21.079  0.00  0.00    +0.000 OA
ATOM      2  C   UNL     1       2.227   5.743  20.360  0.00  0.00    +0.000 A 
ATOM      3  O   UNL     1       1.534   6.913  20.733  0.00  0.00    +0.000 OA
ATOM      4  C   UNL     1       1.486   8.086  19.945  0.00  0.00    +0.000 A 
ATOM      5  C   UNL     1       0.726   9.211  20.380  0.00  0.00    +0.000 A 
ATOM      6  C   UNL     1       0.661  10.374  19.586  0.00  0.00    +0.000 A 
ATOM      7  C   UNL     1       1.358  10.382  18.383  0.00  0.00    +0.000 A 
ATOM      8  C   UNL     1       2.095   9.267  17.978  0.00  0.00    +0.000 A 
ATOM      9  C   UNL     1       2.193   8.100  18.756  0.00  0.00    +0.000 A 
ATOM     10  C   UNL     1       3.007   6.930  18.353  0.00  0.00    +0.000 A 
ATOM     11  C   UNL     1       3.038   5.762  19.074  0.00  0.00    +0.000 A 
ATOM     12  C   UNL     1       3.825   4.323  18.859  0.00  0.00    +0.000 C 
ATOM     13  C   UNL     1       4.798   3.538  17.717  0.00  0.00    +0.000 C 
ATOM     14  C   UNL     1       5.616   4.029  16.402  0.00  0.00    +0.000 C 
ATOM     15  C   UNL     1       5.419   5.455  15.835  0.00  0.00    +0.000 C 
ATOM     16  C   UNL     1       4.532   5.973  16.869  0.00  0.00    +0.000 C 
ATOM     17  C   UNL     1       3.805   7.221  17.068  0.00  0.00    +0.000 C 
ENDROOT
BRANCH   6  18
ATOM     18  O   UNL     1       0.003  11.567  19.851  0.00  0.00    +0.000 OA
BRANCH  18  19
ATOM     19  S   UNL     1      -1.362  11.956  19.061  0.00  0.00    +0.000 S 
ATOM     20  O   UNL     1      -2.375  12.340  20.020  0.00  0.00    +0.000 OA
ATOM     21  O   UNL     1      -1.026  12.804  17.938  0.00  0.00    +0.000 OA
BRANCH  19  22
ATOM     22  C   UNL     1      -1.973  10.412  18.317  0.00  0.00    +0.000 C 
ATOM     23  C   UNL     1      -3.340  10.492  17.691  0.00  0.00    +0.000 C 
ATOM     24  C   UNL     1      -2.135  10.184  16.843  0.00  0.00    +0.000 C 
ENDBRANCH  19  22
ENDBRANCH  18  19
ENDBRANCH   6  18
TORSDOF 3
ENDMDL
MODEL 3
REMARK VINA RESULT:      -7.9      3.130      7.358
REMARK  Name = 
REMARK  3 active torsions:
REMARK  status: ('A' for Active; 'I' for Inactive)
REMARK    1  A    between atoms: C_6  and  O_7
REMARK    2  A    between atoms: O_7  and  S_8
REMARK    3  A    between atoms: S_8  and  C_11
REMARK                            x       y       z     vdW  Elec       q    Type
REMARK                         _______ _______ _______ _____ _____    ______ ____
ROOT
ATOM      1  O   UNL     1       4.499   6.221  16.696  0.00  0.00    +0.000 OA
ATOM      2  C   UNL     1       3.731   6.606  17.565  0.00  0.00    +0.000 A 
ATOM      3  O   UNL     1       3.166   7.895  17.482  0.00  0.00    +0.000 OA
ATOM      4  C   UNL     1       2.304   8.442  18.460  0.00  0.00    +0.000 A 
ATOM      5  C   UNL     1       1.810   9.772  18.317  0.00  0.00    +0.000 A 
ATOM      6  C   UNL     1       0.966  10.326  19.302  0.00  0.00    +0.000 A 
ATOM      7  C   UNL     1       0.637   9.537  20.398  0.00  0.00    +0.000 A 
ATOM      8  C   UNL     1       1.134   8.237  20.516  0.00  0.00    +0.000 A 
ATOM      9  C   UNL     1       1.963   7.651  19.543  0.00  0.00    +0.000 A 
ATOM     10  C   UNL     1       2.459   6.259  19.640  0.00  0.00    +0.000 A 
ATOM     11  C   UNL     1       3.333   5.715  18.731  0.00  0.00    +0.000 A 
ATOM     12  C   UNL     1       4.047   4.230  18.601  0.00  0.00    +0.000 C 
ATOM     13  C   UNL     1       4.192   2.782  19.469  0.00  0.00    +0.000 C 
ATOM     14  C   UNL     1       3.411   2.147  20.744  0.00  0.00    +0.000 C 
ATOM     15  C   UNL     1       2.416   3.000  21.567  0.00  0.00    +0.000 C 
ATOM     16  C   UNL     1       2.444   4.206  20.749  0.00  0.00    +0.000 C 
ATOM     17  C   UNL     1       1.848   5.532  20.854  0.00  0.00    +0.000 C 
ENDROOT
BRANCH   6  18
ATOM     18  O   UNL     1       0.370  11.579  19.324  0.00  0.00    +0.000 OA
BRANCH  18  19
ATOM     19  S   UNL     1      -1.169  11.775  18.840  0.00  0.00    +0.000 S 
ATOM     20  O   UNL     1      -2.014  11.959  20.000  0.00  0.00    +0.000 OA
ATOM     21  O   UNL     1      -1.195  12.704  17.732  0.00  0.00    +0.000 OA
BRANCH  19  22
ATOM     22  C   UNL     1      -1.682  10.181  18.127  0.00  0.00    +0.000 C 
ATOM     23  C   UNL     1      -3.137  10.076  17.755  0.00  0.00    +0.000 C 
ATOM     24  C   UNL     1      -2.074   9.977  16.694  0.00  0.00    +0.000 C 
ENDBRANCH  19  22
ENDBRANCH  18  19
ENDBRANCH   6  18
TORSDOF 3
ENDMDL
MODEL 4
REMARK VINA RESULT:      -7.9      2.666      4.066
REMARK  Name = 
REMARK  3 active torsions:
REMARK  status: ('A' for Active; 'I' for Inactive)
REMARK    1  A    between atoms: C_6  and  O_7
REMARK    2  A    between atoms: O_7  and  S_8
REMARK    3  A    between atoms: S_8  and  C_11
REMARK                            x       y       z     vdW  Elec       q    Type
REMARK                         _______ _______ _______ _____ _____    ______ ____
ROOT
ATOM      1  O   UNL     1       0.212   9.773  23.380  0.00  0.00    +0.000 OA
ATOM      2  C   UNL     1       0.559   9.541  22.231  0.00  0.00    +0.000 A 
ATOM      3  O   UNL     1       1.107   8.284  21.904  0.00  0.00    +0.000 OA
ATOM      4  C   UNL     1       1.576   7.941  20.615  0.00  0.00    +0.000 A 
ATOM      5  C   UNL     1       2.155   6.658  20.381  0.00  0.00    +0.000 A 
ATOM      6  C   UNL     1       2.641   6.322  19.101  0.00  0.00    +0.000 A 
ATOM      7  C   UNL     1       2.535   7.272  18.092  0.00  0.00    +0.000 A 
ATOM      8  C   UNL     1       1.965   8.522  18.346  0.00  0.00    +0.000 A 
ATOM      9  C   UNL     1       1.456   8.881  19.607  0.00  0.00    +0.000 A 
ATOM     10  C   UNL     1       0.812  10.188  19.873  0.00  0.00    +0.000 A 
ATOM     11  C   UNL     1       0.387  10.567  21.123  0.00  0.00    +0.000 A 
ATOM     12  C   UNL     1      -0.334  11.938  21.702  0.00  0.00    +0.000 C 
ATOM     13  C   UNL     1      -0.773  13.488  21.182  0.00  0.00    +0.000 C 
ATOM     14  C   UNL     1      -0.905  14.195  19.724  0.00  0.00    +0.000 C 
ATOM     15  C   UNL     1      -0.378  13.489  18.452  0.00  0.00    +0.000 C 
ATOM     16  C   UNL     1       0.012  12.223  19.059  0.00  0.00    +0.000 C 
ATOM     17  C   UNL     1       0.670  11.014  18.580  0.00  0.00    +0.000 C 
ENDROOT
BRANCH   6  18
ATOM     18  O   UNL     1       3.206   5.127  18.677  0.00  0.00    +0.000 OA
BRANCH  18  19
ATOM     19  S   UNL     1       2.293   3.982  17.972  0.00  0.00    +0.000 S 
ATOM     20  O   UNL     1       1.037   4.565  17.553  0.00  0.00    +0.000 OA
ATOM     21  O   UNL     1       3.118   3.226  17.056  0.00  0.00    +0.000 OA
BRANCH  19  22
ATOM     22  C   UNL     1       1.853   2.804  19.288  0.00  0.00    +0.000 C 
ATOM     23  C   UNL     1       2.633   2.943  20.568  0.00  0.00    +0.000 C 
ATOM     24  C   UNL     1       1.146   3.173  20.558  0.00  0.00    +0.000 C 
ENDBRANCH  19  22
ENDBRANCH  18  19
ENDBRANCH   6  18
TORSDOF 3
ENDMDL
MODEL 5
REMARK VINA RESULT:      -7.8      2.529      4.024
REMARK  Name = 
REMARK  3 active torsions:
REMARK  status: ('A' for Active; 'I' for Inactive)
REMARK    1  A    between atoms: C_6  and  O_7
REMARK    2  A    between atoms: O_7  and  S_8
REMARK    3  A    between atoms: S_8  and  C_11
REMARK                            x       y       z     vdW  Elec       q    Type
REMARK                         _______ _______ _______ _____ _____    ______ ____
ROOT
ATOM      1  O   UNL     1       0.420   9.499  23.921  0.00  0.00    +0.000 OA
ATOM      2  C   UNL     1       0.462   9.514  22.700  0.00  0.00    +0.000 A 
ATOM      3  O   UNL     1       1.270   8.584  22.013  0.00  0.00    +0.000 OA
ATOM      4  C   UNL     1       1.415   8.553  20.608  0.00  0.00    +0.000 A 
ATOM      5  C   UNL     1       2.287   7.603  19.998  0.00  0.00    +0.000 A 
ATOM      6  C   UNL     1       2.448   7.585  18.597  0.00  0.00    +0.000 A 
ATOM      7  C   UNL     1       1.736   8.512  17.846  0.00  0.00    +0.000 A 
ATOM      8  C   UNL     1       0.889   9.433  18.466  0.00  0.00    +0.000 A 
ATOM      9  C   UNL     1       0.693   9.466  19.858  0.00  0.00    +0.000 A 
ATOM     10  C   UNL     1      -0.235  10.411  20.520  0.00  0.00    +0.000 A 
ATOM     11  C   UNL     1      -0.365  10.494  21.884  0.00  0.00    +0.000 A 
ATOM     12  C   UNL     1      -1.289  11.443  22.874  0.00  0.00    +0.000 C 
ATOM     13  C   UNL     1      -2.352  12.759  22.784  0.00  0.00    +0.000 C 
ATOM     14  C   UNL     1      -3.141  13.491  21.567  0.00  0.00    +0.000 C 
ATOM     15  C   UNL     1      -2.819  13.146  20.093  0.00  0.00    +0.000 C 
ATOM     16  C   UNL     1      -1.869  12.066  20.332  0.00  0.00    +0.000 C 
ATOM     17  C   UNL     1      -1.024  11.236  19.484  0.00  0.00    +0.000 C 
ENDROOT
BRANCH   6  18
ATOM     18  O   UNL     1       3.221   6.727  17.827  0.00  0.00    +0.000 OA
BRANCH  18  19
ATOM     19  S   UNL     1       3.323   5.147  18.194  0.00  0.00    +0.000 S 
ATOM     20  O   UNL     1       3.681   4.404  17.005  0.00  0.00    +0.000 OA
ATOM     21  O   UNL     1       4.064   5.001  19.427  0.00  0.00    +0.000 OA
BRANCH  19  22
ATOM     22  C   UNL     1       1.631   4.611  18.596  0.00  0.00    +0.000 C 
ATOM     23  C   UNL     1       1.444   3.127  18.761  0.00  0.00    +0.000 C 
ATOM     24  C   UNL     1       1.208   4.054  19.923  0.00  0.00    +0.000 C 
ENDBRANCH  19  22
ENDBRANCH  18  19
ENDBRANCH   6  18
TORSDOF 3
ENDMDL
MODEL 6
REMARK VINA RESULT:      -7.8      1.351      1.530
REMARK  Name = 
REMARK  3 active torsions:
REMARK  status: ('A' for Active; 'I' for Inactive)
REMARK    1  A    between atoms: C_6  and  O_7
REMARK    2  A    between atoms: O_7  and  S_8
REMARK    3  A    between atoms: S_8  and  C_11
REMARK                            x       y       z     vdW  Elec       q    Type
REMARK                         _______ _______ _______ _____ _____    ______ ____
ROOT
ATOM      1  O   UNL     1       1.282  11.890  17.882  0.00  0.00    +0.000 OA
ATOM      2  C   UNL     1       1.478  10.787  18.370  0.00  0.00    +0.000 A 
ATOM      3  O   UNL     1       2.305   9.861  17.703  0.00  0.00    +0.000 OA
ATOM      4  C   UNL     1       2.554   8.550  18.168  0.00  0.00    +0.000 A 
ATOM      5  C   UNL     1       3.372   7.662  17.407  0.00  0.00    +0.000 A 
ATOM      6  C   UNL     1       3.605   6.348  17.861  0.00  0.00    +0.000 A 
ATOM      7  C   UNL     1       3.019   5.957  19.058  0.00  0.00    +0.000 A 
ATOM      8  C   UNL     1       2.222   6.843  19.785  0.00  0.00    +0.000 A 
ATOM      9  C   UNL     1       1.984   8.165  19.369  0.00  0.00    +0.000 A 
ATOM     10  C   UNL     1       1.175   9.125  20.155  0.00  0.00    +0.000 A 
ATOM     11  C   UNL     1       0.878  10.389  19.709  0.00  0.00    +0.000 A 
ATOM     12  C   UNL     1       0.005  11.637  20.353  0.00  0.00    +0.000 C 
ATOM     13  C   UNL     1      -0.991  11.971  21.681  0.00  0.00    +0.000 C 
ATOM     14  C   UNL     1      -1.288  11.213  23.087  0.00  0.00    +0.000 C 
ATOM     15  C   UNL     1      -0.767   9.778  23.340  0.00  0.00    +0.000 C 
ATOM     16  C   UNL     1       0.003   9.615  22.112  0.00  0.00    +0.000 C 
ATOM     17  C   UNL     1       0.756   8.522  21.510  0.00  0.00    +0.000 C 
ENDROOT
BRANCH   6  18
ATOM     18  O   UNL     1       4.387   5.359  17.279  0.00  0.00    +0.000 OA
BRANCH  18  19
ATOM     19  S   UNL     1       5.931   5.144  17.737  0.00  0.00    +0.000 S 
ATOM     20  O   UNL     1       6.528   6.432  18.015  0.00  0.00    +0.000 OA
ATOM     21  O   UNL     1       5.987   4.063  18.696  0.00  0.00    +0.000 OA
BRANCH  19  22
ATOM     22  C   UNL     1       6.811   4.519  16.272  0.00  0.00    +0.000 C 
ATOM     23  C   UNL     1       5.999   3.647  15.352  0.00  0.00    +0.000 C 
ATOM     24  C   UNL     1       6.543   4.963  14.865  0.00  0.00    +0.000 C 
ENDBRANCH  19  22
ENDBRANCH  18  19
ENDBRANCH   6  18
TORSDOF 3
ENDMDL
MODEL 7
REMARK VINA RESULT:      -7.8      3.226      8.011
REMARK  Name = 
REMARK  3 active torsions:
REMARK  status: ('A' for Active; 'I' for Inactive)
REMARK    1  A    between atoms: C_6  and  O_7
REMARK    2  A    between atoms: O_7  and  S_8
REMARK    3  A    between atoms: S_8  and  C_11
REMARK                            x       y       z     vdW  Elec       q    Type
REMARK                         _______ _______ _______ _____ _____    ______ ____
ROOT
ATOM      1  O   UNL     1       2.213   4.858  21.159  0.00  0.00    +0.000 OA
ATOM      2  C   UNL     1       2.205   5.844  20.438  0.00  0.00    +0.000 A 
ATOM      3  O   UNL     1       1.463   6.982  20.813  0.00  0.00    +0.000 OA
ATOM      4  C   UNL     1       1.359   8.151  20.024  0.00  0.00    +0.000 A 
ATOM      5  C   UNL     1       0.552   9.242  20.461  0.00  0.00    +0.000 A 
ATOM      6  C   UNL     1       0.431  10.400  19.665  0.00  0.00    +0.000 A 
ATOM      7  C   UNL     1       1.120  10.437  18.459  0.00  0.00    +0.000 A 
ATOM      8  C   UNL     1       1.904   9.355  18.052  0.00  0.00    +0.000 A 
ATOM      9  C   UNL     1       2.058   8.195  18.830  0.00  0.00    +0.000 A 
ATOM     10  C   UNL     1       2.922   7.061  18.425  0.00  0.00    +0.000 A 
ATOM     11  C   UNL     1       3.008   5.897  19.148  0.00  0.00    +0.000 A 
ATOM     12  C   UNL     1       3.857   4.494  18.931  0.00  0.00    +0.000 C 
ATOM     13  C   UNL     1       4.859   3.751  17.785  0.00  0.00    +0.000 C 
ATOM     14  C   UNL     1       5.647   4.277  16.465  0.00  0.00    +0.000 C 
ATOM     15  C   UNL     1       5.384   5.691  15.896  0.00  0.00    +0.000 C 
ATOM     16  C   UNL     1       4.480   6.171  16.934  0.00  0.00    +0.000 C 
ATOM     17  C   UNL     1       3.700   7.385  17.135  0.00  0.00    +0.000 C 
ENDROOT
BRANCH   6  18
ATOM     18  O   UNL     1      -0.278  11.563  19.933  0.00  0.00    +0.000 OA
BRANCH  18  19
ATOM     19  S   UNL     1       0.307  12.672  20.966  0.00  0.00    +0.000 S 
ATOM     20  O   UNL     1       1.649  12.298  21.357  0.00  0.00    +0.000 OA
ATOM     21  O   UNL     1       0.011  13.991  20.452  0.00  0.00    +0.000 OA
BRANCH  19  22
ATOM     22  C   UNL     1      -0.688  12.525  22.483  0.00  0.00    +0.000 C 
ATOM     23  C   UNL     1      -2.148  12.228  22.272  0.00  0.00    +0.000 C 
ATOM     24  C   UNL     1      -1.271  11.243  22.996  0.00  0.00    +0.000 C 
ENDBRANCH  19  22
ENDBRANCH  18  19
ENDBRANCH   6  18
TORSDOF 3
ENDMDL
MODEL 8
REMARK VINA RESULT:      -7.7      2.125      3.163
REMARK  Name = 
REMARK  3 active torsions:
REMARK  status: ('A' for Active; 'I' for Inactive)
REMARK    1  A    between atoms: C_6  and  O_7
REMARK    2  A    between atoms: O_7  and  S_8
REMARK    3  A    between atoms: S_8  and  C_11
REMARK                            x       y       z     vdW  Elec       q    Type
REMARK                         _______ _______ _______ _____ _____    ______ ____
ROOT
ATOM      1  O   UNL     1       0.496   9.597  23.278  0.00  0.00    +0.000 OA
ATOM      2  C   UNL     1       0.795   9.354  22.118  0.00  0.00    +0.000 A 
ATOM      3  O   UNL     1       1.325   8.093  21.778  0.00  0.00    +0.000 OA
ATOM      4  C   UNL     1       1.739   7.737  20.474  0.00  0.00    +0.000 A 
ATOM      5  C   UNL     1       2.304   6.451  20.227  0.00  0.00    +0.000 A 
ATOM      6  C   UNL     1       2.736   6.103  18.931  0.00  0.00    +0.000 A 
ATOM      7  C   UNL     1       2.590   7.045  17.919  0.00  0.00    +0.000 A 
ATOM      8  C   UNL     1       2.035   8.298  18.187  0.00  0.00    +0.000 A 
ATOM      9  C   UNL     1       1.579   8.669  19.464  0.00  0.00    +0.000 A 
ATOM     10  C   UNL     1       0.950   9.980  19.746  0.00  0.00    +0.000 A 
ATOM     11  C   UNL     1       0.579  10.371  21.009  0.00  0.00    +0.000 A 
ATOM     12  C   UNL     1      -0.113  11.749  21.606  0.00  0.00    +0.000 C 
ATOM     13  C   UNL     1      -0.569  13.297  21.091  0.00  0.00    +0.000 C 
ATOM     14  C   UNL     1      -0.760  13.991  19.635  0.00  0.00    +0.000 C 
ATOM     15  C   UNL     1      -0.288  13.274  18.348  0.00  0.00    +0.000 C 
ATOM     16  C   UNL     1       0.123  12.011  18.949  0.00  0.00    +0.000 C 
ATOM     17  C   UNL     1       0.758  10.796  18.453  0.00  0.00    +0.000 C 
ENDROOT
BRANCH   6  18
ATOM     18  O   UNL     1       3.279   4.902  18.494  0.00  0.00    +0.000 OA
BRANCH  18  19
ATOM     19  S   UNL     1       4.841   4.549  18.769  0.00  0.00    +0.000 S 
ATOM     20  O   UNL     1       5.516   5.729  19.263  0.00  0.00    +0.000 OA
ATOM     21  O   UNL     1       4.917   3.286  19.469  0.00  0.00    +0.000 OA
BRANCH  19  22
ATOM     22  C   UNL     1       5.581   4.226  17.138  0.00  0.00    +0.000 C 
ATOM     23  C   UNL     1       5.250   5.231  16.067  0.00  0.00    +0.000 C 
ATOM     24  C   UNL     1       6.673   5.050  16.522  0.00  0.00    +0.000 C 
ENDBRANCH  19  22
ENDBRANCH  18  19
ENDBRANCH   6  18
TORSDOF 3
ENDMDL
MODEL 9
REMARK VINA RESULT:      -7.7      1.351      1.567
REMARK  Name = 
REMARK  3 active torsions:
REMARK  status: ('A' for Active; 'I' for Inactive)
REMARK    1  A    between atoms: C_6  and  O_7
REMARK    2  A    between atoms: O_7  and  S_8
REMARK    3  A    between atoms: S_8  and  C_11
REMARK                            x       y       z     vdW  Elec       q    Type
REMARK                         _______ _______ _______ _____ _____    ______ ____
ROOT
ATOM      1  O   UNL     1       1.547  11.533  17.873  0.00  0.00    +0.000 OA
ATOM      2  C   UNL     1       1.523  10.507  18.536  0.00  0.00    +0.000 A 
ATOM      3  O   UNL     1       2.232   9.370  18.097  0.00  0.00    +0.000 OA
ATOM      4  C   UNL     1       2.227   8.129  18.774  0.00  0.00    +0.000 A 
ATOM      5  C   UNL     1       2.940   7.017  18.237  0.00  0.00    +0.000 A 
ATOM      6  C   UNL     1       2.920   5.773  18.900  0.00  0.00    +0.000 A 
ATOM      7  C   UNL     1       2.192   5.674  20.080  0.00  0.00    +0.000 A 
ATOM      8  C   UNL     1       1.501   6.778  20.586  0.00  0.00    +0.000 A 
ATOM      9  C   UNL     1       1.516   8.035  19.957  0.00  0.00    +0.000 A 
ATOM     10  C   UNL     1       0.821   9.221  20.510  0.00  0.00    +0.000 A 
ATOM     11  C   UNL     1       0.770  10.426  19.854  0.00  0.00    +0.000 A 
ATOM     12  C   UNL     1       0.071  11.880  20.218  0.00  0.00    +0.000 C 
ATOM     13  C   UNL     1      -0.950  12.571  21.379  0.00  0.00    +0.000 C 
ATOM     14  C   UNL     1      -1.470  12.105  22.846  0.00  0.00    +0.000 C 
ATOM     15  C   UNL     1      -1.212  10.668  23.358  0.00  0.00    +0.000 C 
ATOM     16  C   UNL     1      -0.393  10.194  22.249  0.00  0.00    +0.000 C 
ATOM     17  C   UNL     1       0.211   8.916  21.892  0.00  0.00    +0.000 C 
ENDROOT
BRANCH   6  18
ATOM     18  O   UNL     1       3.567   4.596  18.550  0.00  0.00    +0.000 OA
BRANCH  18  19
ATOM     19  S   UNL     1       5.140   4.379  18.897  0.00  0.00    +0.000 S 
ATOM     20  O   UNL     1       5.622   5.515  19.653  0.00  0.00    +0.000 OA
ATOM     21  O   UNL     1       5.332   3.025  19.366  0.00  0.00    +0.000 OA
BRANCH  19  22
ATOM     22  C   UNL     1       6.024   4.456  17.308  0.00  0.00    +0.000 C 
ATOM     23  C   UNL     1       5.224   4.042  16.102  0.00  0.00    +0.000 C 
ATOM     24  C   UNL     1       5.737   5.451  16.223  0.00  0.00    +0.000 C 
ENDBRANCH  19  22
ENDBRANCH  18  19
ENDBRANCH   6  18
TORSDOF 3
ENDMDL
