MODEL 1
REMARK VINA RESULT:      -6.4      0.000      0.000
REMARK  Name = 
REMARK  9 active torsions:
REMARK  status: ('A' for Active; 'I' for Inactive)
REMARK    1  A    between atoms: C_1  and  C_2
REMARK    2  A    between atoms: C_2  and  C_3
REMARK    3  A    between atoms: C_2  and  N_4
REMARK    4  A    between atoms: C_9  and  C_10
REMARK    5  A    between atoms: C_10  and  O_11
REMARK    6  A    between atoms: O_11  and  C_12
REMARK    7  A    between atoms: C_15  and  C_16
REMARK    8  A    between atoms: C_16  and  C_17
REMARK    9  A    between atoms: C_17  and  O_18
REMARK                            x       y       z     vdW  Elec       q    Type
REMARK                         _______ _______ _______ _____ _____    ______ ____
ROOT
ATOM      1  O   UNL     1       3.058   7.434  17.452  0.00  0.00    +0.000 OA
ENDROOT
BRANCH   1   2
ATOM      2  C   UNL     1       2.568   6.435  18.269  0.00  0.00    +0.000 A 
ATOM      3  C   UNL     1       2.475   6.543  19.660  0.00  0.00    +0.000 A 
ATOM      4  C   UNL     1       1.935   5.517  20.431  0.00  0.00    +0.000 A 
ATOM      5  C   UNL     1       1.486   4.348  19.826  0.00  0.00    +0.000 A 
ATOM      6  C   UNL     1       1.592   4.219  18.431  0.00  0.00    +0.000 A 
ATOM      7  C   UNL     1       2.130   5.255  17.653  0.00  0.00    +0.000 A 
BRANCH   5   8
ATOM      8  C   UNL     1       0.892   3.266  20.694  0.00  0.00    +0.000 C 
BRANCH   8   9
ATOM      9  C   UNL     1       1.924   2.218  21.126  0.00  0.00    +0.000 C 
BRANCH   9  10
ATOM     10  O   UNL     1       2.715   2.681  22.214  0.00  0.00    +0.000 OA
ATOM     11  H   UNL     1       2.593   2.042  22.940  0.00  0.00    +0.000 HD
ENDBRANCH   9  10
ENDBRANCH   8   9
ENDBRANCH   5   8
ENDBRANCH   1   2
BRANCH   1  12
ATOM     12  C   UNL     1       4.491   7.473  17.348  0.00  0.00    +0.000 C 
BRANCH  12  18
ATOM     13  N   UNL     1       6.462   5.790  17.458  0.00  0.00    +0.000 NA
ATOM     14  C   UNL     1       7.019   4.583  16.810  0.00  0.00    +0.000 C 
ATOM     15  C   UNL     1       7.095   4.672  15.291  0.00  0.00    +0.000 C 
ATOM     16  C   UNL     1       5.721   4.923  14.711  0.00  0.00    +0.000 C 
ATOM     17  C   UNL     1       5.153   6.193  15.320  0.00  0.00    +0.000 C 
ATOM     18  C   UNL     1       5.136   6.147  16.866  0.00  0.00    +0.000 C 
BRANCH  13  20
ATOM     19  C   UNL     1       5.567   4.471  19.454  0.00  0.00    +0.000 C 
ATOM     20  C   UNL     1       6.439   5.634  18.946  0.00  0.00    +0.000 C 
ATOM     21  C   UNL     1       7.844   5.481  19.559  0.00  0.00    +0.000 C 
ENDBRANCH  13  20
ENDBRANCH  12  18
ENDBRANCH   1  12
TORSDOF 7
ENDMDL
MODEL 2
REMARK VINA RESULT:      -6.4      0.273      1.104
REMARK  Name = 
REMARK  9 active torsions:
REMARK  status: ('A' for Active; 'I' for Inactive)
REMARK    1  A    between atoms: C_1  and  C_2
REMARK    2  A    between atoms: C_2  and  C_3
REMARK    3  A    between atoms: C_2  and  N_4
REMARK    4  A    between atoms: C_9  and  C_10
REMARK    5  A    between atoms: C_10  and  O_11
REMARK    6  A    between atoms: O_11  and  C_12
REMARK    7  A    between atoms: C_15  and  C_16
REMARK    8  A    between atoms: C_16  and  C_17
REMARK    9  A    between atoms: C_17  and  O_18
REMARK                            x       y       z     vdW  Elec       q    Type
REMARK                         _______ _______ _______ _____ _____    ______ ____
ROOT
ATOM      1  O   UNL     1       2.994   7.408  17.371  0.00  0.00    +0.000 OA
ENDROOT
BRANCH   1   2
ATOM      2  C   UNL     1       2.515   6.446  18.236  0.00  0.00    +0.000 A 
ATOM      3  C   UNL     1       2.122   5.164  17.837  0.00  0.00    +0.000 A 
ATOM      4  C   UNL     1       1.684   4.220  18.761  0.00  0.00    +0.000 A 
ATOM      5  C   UNL     1       1.614   4.542  20.112  0.00  0.00    +0.000 A 
ATOM      6  C   UNL     1       1.986   5.832  20.525  0.00  0.00    +0.000 A 
ATOM      7  C   UNL     1       2.434   6.782  19.595  0.00  0.00    +0.000 A 
BRANCH   5   8
ATOM      8  C   UNL     1       1.148   3.486  21.084  0.00  0.00    +0.000 C 
BRANCH   8   9
ATOM      9  C   UNL     1       1.989   2.206  21.019  0.00  0.00    +0.000 C 
BRANCH   9  10
ATOM     10  O   UNL     1       3.236   2.366  21.684  0.00  0.00    +0.000 OA
ATOM     11  H   UNL     1       3.091   2.114  22.614  0.00  0.00    +0.000 HD
ENDBRANCH   9  10
ENDBRANCH   8   9
ENDBRANCH   5   8
ENDBRANCH   1   2
BRANCH   1  12
ATOM     12  C   UNL     1       4.427   7.463  17.273  0.00  0.00    +0.000 C 
BRANCH  12  18
ATOM     13  N   UNL     1       6.396   5.785  17.457  0.00  0.00    +0.000 NA
ATOM     14  C   UNL     1       6.978   4.576  16.834  0.00  0.00    +0.000 C 
ATOM     15  C   UNL     1       7.105   4.659  15.318  0.00  0.00    +0.000 C 
ATOM     16  C   UNL     1       5.752   4.904  14.691  0.00  0.00    +0.000 C 
ATOM     17  C   UNL     1       5.160   6.176  15.274  0.00  0.00    +0.000 C 
ATOM     18  C   UNL     1       5.091   6.136  16.819  0.00  0.00    +0.000 C 
BRANCH  13  20
ATOM     19  C   UNL     1       5.473   4.445  19.427  0.00  0.00    +0.000 C 
ATOM     20  C   UNL     1       6.323   5.635  18.945  0.00  0.00    +0.000 C 
ATOM     21  C   UNL     1       7.708   5.534  19.611  0.00  0.00    +0.000 C 
ENDBRANCH  13  20
ENDBRANCH  12  18
ENDBRANCH   1  12
TORSDOF 7
ENDMDL
MODEL 3
REMARK VINA RESULT:      -6.3      2.640      6.315
REMARK  Name = 
REMARK  9 active torsions:
REMARK  status: ('A' for Active; 'I' for Inactive)
REMARK    1  A    between atoms: C_1  and  C_2
REMARK    2  A    between atoms: C_2  and  C_3
REMARK    3  A    between atoms: C_2  and  N_4
REMARK    4  A    between atoms: C_9  and  C_10
REMARK    5  A    between atoms: C_10  and  O_11
REMARK    6  A    between atoms: O_11  and  C_12
REMARK    7  A    between atoms: C_15  and  C_16
REMARK    8  A    between atoms: C_16  and  C_17
REMARK    9  A    between atoms: C_17  and  O_18
REMARK                            x       y       z     vdW  Elec       q    Type
REMARK                         _______ _______ _______ _____ _____    ______ ____
ROOT
ATOM      1  O   UNL     1       5.270   5.684  19.290  0.00  0.00    +0.000 OA
ENDROOT
BRANCH   1   2
ATOM      2  C   UNL     1       5.706   5.454  18.001  0.00  0.00    +0.000 A 
ATOM      3  C   UNL     1       6.750   4.581  17.676  0.00  0.00    +0.000 A 
ATOM      4  C   UNL     1       7.121   4.358  16.352  0.00  0.00    +0.000 A 
ATOM      5  C   UNL     1       6.462   5.016  15.320  0.00  0.00    +0.000 A 
ATOM      6  C   UNL     1       5.425   5.910  15.633  0.00  0.00    +0.000 A 
ATOM      7  C   UNL     1       5.047   6.131  16.966  0.00  0.00    +0.000 A 
BRANCH   5   8
ATOM      8  C   UNL     1       6.883   4.734  13.898  0.00  0.00    +0.000 C 
BRANCH   8   9
ATOM      9  C   UNL     1       5.947   3.753  13.184  0.00  0.00    +0.000 C 
BRANCH   9  10
ATOM     10  O   UNL     1       6.655   2.929  12.266  0.00  0.00    +0.000 OA
ATOM     11  H   UNL     1       6.206   3.019  11.406  0.00  0.00    +0.000 HD
ENDBRANCH   9  10
ENDBRANCH   8   9
ENDBRANCH   5   8
ENDBRANCH   1   2
BRANCH   1  12
ATOM     12  C   UNL     1       3.842   5.652  19.453  0.00  0.00    +0.000 C 
BRANCH  12  18
ATOM     13  N   UNL     1       2.594   3.414  19.048  0.00  0.00    +0.000 NA
ATOM     14  C   UNL     1       2.002   2.251  19.745  0.00  0.00    +0.000 C 
ATOM     15  C   UNL     1       1.094   2.622  20.911  0.00  0.00    +0.000 C 
ATOM     16  C   UNL     1       1.856   3.440  21.929  0.00  0.00    +0.000 C 
ATOM     17  C   UNL     1       2.424   4.672  21.247  0.00  0.00    +0.000 C 
ATOM     18  C   UNL     1       3.291   4.315  20.016  0.00  0.00    +0.000 C 
BRANCH  13  20
ATOM     19  C   UNL     1       3.803   1.471  17.913  0.00  0.00    +0.000 C 
ATOM     20  C   UNL     1       3.453   2.971  17.906  0.00  0.00    +0.000 C 
ATOM     21  C   UNL     1       2.853   3.316  16.530  0.00  0.00    +0.000 C 
ENDBRANCH  13  20
ENDBRANCH  12  18
ENDBRANCH   1  12
TORSDOF 7
ENDMDL
MODEL 4
REMARK VINA RESULT:      -6.3      2.594      6.368
REMARK  Name = 
REMARK  9 active torsions:
REMARK  status: ('A' for Active; 'I' for Inactive)
REMARK    1  A    between atoms: C_1  and  C_2
REMARK    2  A    between atoms: C_2  and  C_3
REMARK    3  A    between atoms: C_2  and  N_4
REMARK    4  A    between atoms: C_9  and  C_10
REMARK    5  A    between atoms: C_10  and  O_11
REMARK    6  A    between atoms: O_11  and  C_12
REMARK    7  A    between atoms: C_15  and  C_16
REMARK    8  A    between atoms: C_16  and  C_17
REMARK    9  A    between atoms: C_17  and  O_18
REMARK                            x       y       z     vdW  Elec       q    Type
REMARK                         _______ _______ _______ _____ _____    ______ ____
ROOT
ATOM      1  O   UNL     1       5.418   5.517  18.441  0.00  0.00    +0.000 OA
ENDROOT
BRANCH   1   2
ATOM      2  C   UNL     1       5.776   5.181  17.152  0.00  0.00    +0.000 A 
ATOM      3  C   UNL     1       7.097   5.142  16.694  0.00  0.00    +0.000 A 
ATOM      4  C   UNL     1       7.402   4.756  15.392  0.00  0.00    +0.000 A 
ATOM      5  C   UNL     1       6.385   4.412  14.507  0.00  0.00    +0.000 A 
ATOM      6  C   UNL     1       5.053   4.465  14.947  0.00  0.00    +0.000 A 
ATOM      7  C   UNL     1       4.745   4.847  16.262  0.00  0.00    +0.000 A 
BRANCH   5   8
ATOM      8  C   UNL     1       6.758   3.984  13.109  0.00  0.00    +0.000 C 
BRANCH   8   9
ATOM      9  C   UNL     1       5.609   3.281  12.377  0.00  0.00    +0.000 C 
BRANCH   9  10
ATOM     10  O   UNL     1       6.026   2.040  11.819  0.00  0.00    +0.000 OA
ATOM     11  H   UNL     1       5.324   1.394  12.019  0.00  0.00    +0.000 HD
ENDBRANCH   9  10
ENDBRANCH   8   9
ENDBRANCH   5   8
ENDBRANCH   1   2
BRANCH   1  12
ATOM     12  C   UNL     1       5.034   4.403  19.265  0.00  0.00    +0.000 C 
BRANCH  12  18
ATOM     13  N   UNL     1       2.644   4.965  20.103  0.00  0.00    +0.000 NA
ATOM     14  C   UNL     1       1.250   4.471  20.108  0.00  0.00    +0.000 C 
ATOM     15  C   UNL     1       1.112   3.004  20.497  0.00  0.00    +0.000 C 
ATOM     16  C   UNL     1       1.913   2.135  19.555  0.00  0.00    +0.000 C 
ATOM     17  C   UNL     1       3.363   2.586  19.579  0.00  0.00    +0.000 C 
ATOM     18  C   UNL     1       3.514   4.092  19.256  0.00  0.00    +0.000 C 
BRANCH  13  20
ATOM     19  C   UNL     1       2.342   6.711  18.263  0.00  0.00    +0.000 C 
ATOM     20  C   UNL     1       2.696   6.414  19.732  0.00  0.00    +0.000 C 
ATOM     21  C   UNL     1       1.806   7.298  20.627  0.00  0.00    +0.000 C 
ENDBRANCH  13  20
ENDBRANCH  12  18
ENDBRANCH   1  12
TORSDOF 7
ENDMDL
MODEL 5
REMARK VINA RESULT:      -6.1      2.621      4.500
REMARK  Name = 
REMARK  9 active torsions:
REMARK  status: ('A' for Active; 'I' for Inactive)
REMARK    1  A    between atoms: C_1  and  C_2
REMARK    2  A    between atoms: C_2  and  C_3
REMARK    3  A    between atoms: C_2  and  N_4
REMARK    4  A    between atoms: C_9  and  C_10
REMARK    5  A    between atoms: C_10  and  O_11
REMARK    6  A    between atoms: O_11  and  C_12
REMARK    7  A    between atoms: C_15  and  C_16
REMARK    8  A    between atoms: C_16  and  C_17
REMARK    9  A    between atoms: C_17  and  O_18
REMARK                            x       y       z     vdW  Elec       q    Type
REMARK                         _______ _______ _______ _____ _____    ______ ____
ROOT
ATOM      1  O   UNL     1       2.931   5.675  19.065  0.00  0.00    +0.000 OA
ENDROOT
BRANCH   1   2
ATOM      2  C   UNL     1       2.405   6.951  19.032  0.00  0.00    +0.000 A 
ATOM      3  C   UNL     1       1.812   7.577  20.134  0.00  0.00    +0.000 A 
ATOM      4  C   UNL     1       1.333   8.882  20.054  0.00  0.00    +0.000 A 
ATOM      5  C   UNL     1       1.424   9.589  18.860  0.00  0.00    +0.000 A 
ATOM      6  C   UNL     1       1.999   8.966  17.741  0.00  0.00    +0.000 A 
ATOM      7  C   UNL     1       2.487   7.653  17.822  0.00  0.00    +0.000 A 
BRANCH   5   8
ATOM      8  C   UNL     1       0.907  11.007  18.818  0.00  0.00    +0.000 C 
BRANCH   8   9
ATOM      9  C   UNL     1       2.030  12.045  18.718  0.00  0.00    +0.000 C 
BRANCH   9  10
ATOM     10  O   UNL     1       2.317  12.376  17.364  0.00  0.00    +0.000 OA
ATOM     11  H   UNL     1       3.133  11.899  17.126  0.00  0.00    +0.000 HD
ENDBRANCH   9  10
ENDBRANCH   8   9
ENDBRANCH   5   8
ENDBRANCH   1   2
BRANCH   1  12
ATOM     12  C   UNL     1       4.346   5.619  19.317  0.00  0.00    +0.000 C 
BRANCH  12  18
ATOM     13  N   UNL     1       6.052   6.140  17.434  0.00  0.00    +0.000 NA
ATOM     14  C   UNL     1       6.690   5.567  16.229  0.00  0.00    +0.000 C 
ATOM     15  C   UNL     1       5.712   4.925  15.254  0.00  0.00    +0.000 C 
ATOM     16  C   UNL     1       4.933   3.826  15.939  0.00  0.00    +0.000 C 
ATOM     17  C   UNL     1       4.220   4.406  17.148  0.00  0.00    +0.000 C 
ATOM     18  C   UNL     1       5.192   5.124  18.114  0.00  0.00    +0.000 C 
BRANCH  13  20
ATOM     19  C   UNL     1       8.052   5.772  18.981  0.00  0.00    +0.000 C 
ATOM     20  C   UNL     1       7.073   6.768  18.331  0.00  0.00    +0.000 C 
ATOM     21  C   UNL     1       7.900   7.863  17.631  0.00  0.00    +0.000 C 
ENDBRANCH  13  20
ENDBRANCH  12  18
ENDBRANCH   1  12
TORSDOF 7
ENDMDL
MODEL 6
REMARK VINA RESULT:      -6.1      2.409      4.083
REMARK  Name = 
REMARK  9 active torsions:
REMARK  status: ('A' for Active; 'I' for Inactive)
REMARK    1  A    between atoms: C_1  and  C_2
REMARK    2  A    between atoms: C_2  and  C_3
REMARK    3  A    between atoms: C_2  and  N_4
REMARK    4  A    between atoms: C_9  and  C_10
REMARK    5  A    between atoms: C_10  and  O_11
REMARK    6  A    between atoms: O_11  and  C_12
REMARK    7  A    between atoms: C_15  and  C_16
REMARK    8  A    between atoms: C_16  and  C_17
REMARK    9  A    between atoms: C_17  and  O_18
REMARK                            x       y       z     vdW  Elec       q    Type
REMARK                         _______ _______ _______ _____ _____    ______ ____
ROOT
ATOM      1  O   UNL     1       3.179   5.106  19.023  0.00  0.00    +0.000 OA
ENDROOT
BRANCH   1   2
ATOM      2  C   UNL     1       2.595   6.353  19.106  0.00  0.00    +0.000 A 
ATOM      3  C   UNL     1       2.078   6.894  20.289  0.00  0.00    +0.000 A 
ATOM      4  C   UNL     1       1.536   8.176  20.322  0.00  0.00    +0.000 A 
ATOM      5  C   UNL     1       1.485   8.945  19.164  0.00  0.00    +0.000 A 
ATOM      6  C   UNL     1       1.982   8.407  17.966  0.00  0.00    +0.000 A 
ATOM      7  C   UNL     1       2.534   7.117  17.933  0.00  0.00    +0.000 A 
BRANCH   5   8
ATOM      8  C   UNL     1       0.903  10.336  19.245  0.00  0.00    +0.000 C 
BRANCH   8   9
ATOM      9  C   UNL     1      -0.593  10.374  18.914  0.00  0.00    +0.000 C 
BRANCH   9  10
ATOM     10  O   UNL     1      -0.816  10.604  17.529  0.00  0.00    +0.000 OA
ATOM     11  H   UNL     1      -1.395   9.886  17.215  0.00  0.00    +0.000 HD
ENDBRANCH   9  10
ENDBRANCH   8   9
ENDBRANCH   5   8
ENDBRANCH   1   2
BRANCH   1  12
ATOM     12  C   UNL     1       4.593   5.088  19.285  0.00  0.00    +0.000 C 
BRANCH  12  18
ATOM     13  N   UNL     1       6.130   5.996  17.403  0.00  0.00    +0.000 NA
ATOM     14  C   UNL     1       6.818   5.608  16.152  0.00  0.00    +0.000 C 
ATOM     15  C   UNL     1       5.931   4.867  15.160  0.00  0.00    +0.000 C 
ATOM     16  C   UNL     1       5.369   3.614  15.793  0.00  0.00    +0.000 C 
ATOM     17  C   UNL     1       4.606   3.996  17.050  0.00  0.00    +0.000 C 
ATOM     18  C   UNL     1       5.473   4.813  18.037  0.00  0.00    +0.000 C 
BRANCH  13  20
ATOM     19  C   UNL     1       8.072   5.844  19.055  0.00  0.00    +0.000 C 
ATOM     20  C   UNL     1       7.057   6.736  18.315  0.00  0.00    +0.000 C 
ATOM     21  C   UNL     1       7.837   7.858  17.604  0.00  0.00    +0.000 C 
ENDBRANCH  13  20
ENDBRANCH  12  18
ENDBRANCH   1  12
TORSDOF 7
ENDMDL
MODEL 7
REMARK VINA RESULT:      -6.1      3.761      6.240
REMARK  Name = 
REMARK  9 active torsions:
REMARK  status: ('A' for Active; 'I' for Inactive)
REMARK    1  A    between atoms: C_1  and  C_2
REMARK    2  A    between atoms: C_2  and  C_3
REMARK    3  A    between atoms: C_2  and  N_4
REMARK    4  A    between atoms: C_9  and  C_10
REMARK    5  A    between atoms: C_10  and  O_11
REMARK    6  A    between atoms: O_11  and  C_12
REMARK    7  A    between atoms: C_15  and  C_16
REMARK    8  A    between atoms: C_16  and  C_17
REMARK    9  A    between atoms: C_17  and  O_18
REMARK                            x       y       z     vdW  Elec       q    Type
REMARK                         _______ _______ _______ _____ _____    ______ ____
ROOT
ATOM      1  O   UNL     1       1.818   7.380  20.673  0.00  0.00    +0.000 OA
ENDROOT
BRANCH   1   2
ATOM      2  C   UNL     1       1.200   8.552  20.287  0.00  0.00    +0.000 A 
ATOM      3  C   UNL     1       1.438   9.193  19.066  0.00  0.00    +0.000 A 
ATOM      4  C   UNL     1       0.754  10.353  18.713  0.00  0.00    +0.000 A 
ATOM      5  C   UNL     1      -0.178  10.910  19.582  0.00  0.00    +0.000 A 
ATOM      6  C   UNL     1      -0.412  10.287  20.819  0.00  0.00    +0.000 A 
ATOM      7  C   UNL     1       0.272   9.115  21.174  0.00  0.00    +0.000 A 
BRANCH   5   8
ATOM      8  C   UNL     1      -0.909  12.159  19.155  0.00  0.00    +0.000 C 
BRANCH   8   9
ATOM      9  C   UNL     1      -2.090  11.867  18.223  0.00  0.00    +0.000 C 
BRANCH   9  10
ATOM     10  O   UNL     1      -1.768  12.153  16.867  0.00  0.00    +0.000 OA
ATOM     11  H   UNL     1      -1.604  13.112  16.814  0.00  0.00    +0.000 HD
ENDBRANCH   9  10
ENDBRANCH   8   9
ENDBRANCH   5   8
ENDBRANCH   1   2
BRANCH   1  12
ATOM     12  C   UNL     1       2.483   6.676  19.610  0.00  0.00    +0.000 C 
BRANCH  12  18
ATOM     13  N   UNL     1       2.894   4.316  18.616  0.00  0.00    +0.000 NA
ATOM     14  C   UNL     1       2.825   2.874  18.935  0.00  0.00    +0.000 C 
ATOM     15  C   UNL     1       1.516   2.443  19.585  0.00  0.00    +0.000 C 
ATOM     16  C   UNL     1       1.286   3.217  20.863  0.00  0.00    +0.000 C 
ATOM     17  C   UNL     1       1.294   4.703  20.548  0.00  0.00    +0.000 C 
ATOM     18  C   UNL     1       2.587   5.143  19.823  0.00  0.00    +0.000 C 
BRANCH  13  20
ATOM     19  C   UNL     1       5.427   4.520  18.881  0.00  0.00    +0.000 C 
ATOM     20  C   UNL     1       4.197   4.657  17.964  0.00  0.00    +0.000 C 
ATOM     21  C   UNL     1       4.463   3.842  16.683  0.00  0.00    +0.000 C 
ENDBRANCH  13  20
ENDBRANCH  12  18
ENDBRANCH   1  12
TORSDOF 7
ENDMDL
MODEL 8
REMARK VINA RESULT:      -6.1      2.367      6.227
REMARK  Name = 
REMARK  9 active torsions:
REMARK  status: ('A' for Active; 'I' for Inactive)
REMARK    1  A    between atoms: C_1  and  C_2
REMARK    2  A    between atoms: C_2  and  C_3
REMARK    3  A    between atoms: C_2  and  N_4
REMARK    4  A    between atoms: C_9  and  C_10
REMARK    5  A    between atoms: C_10  and  O_11
REMARK    6  A    between atoms: O_11  and  C_12
REMARK    7  A    between atoms: C_15  and  C_16
REMARK    8  A    between atoms: C_16  and  C_17
REMARK    9  A    between atoms: C_17  and  O_18
REMARK                            x       y       z     vdW  Elec       q    Type
REMARK                         _______ _______ _______ _____ _____    ______ ____
ROOT
ATOM      1  O   UNL     1       6.066   6.051  18.439  0.00  0.00    +0.000 OA
ENDROOT
BRANCH   1   2
ATOM      2  C   UNL     1       6.042   5.557  17.151  0.00  0.00    +0.000 A 
ATOM      3  C   UNL     1       5.235   6.075  16.132  0.00  0.00    +0.000 A 
ATOM      4  C   UNL     1       5.283   5.561  14.839  0.00  0.00    +0.000 A 
ATOM      5  C   UNL     1       6.133   4.504  14.536  0.00  0.00    +0.000 A 
ATOM      6  C   UNL     1       6.935   3.962  15.553  0.00  0.00    +0.000 A 
ATOM      7  C   UNL     1       6.892   4.482  16.856  0.00  0.00    +0.000 A 
BRANCH   5   8
ATOM      8  C   UNL     1       6.167   3.986  13.119  0.00  0.00    +0.000 C 
BRANCH   8   9
ATOM      9  C   UNL     1       7.471   4.331  12.391  0.00  0.00    +0.000 C 
BRANCH   9  10
ATOM     10  O   UNL     1       7.944   5.623  12.751  0.00  0.00    +0.000 OA
ATOM     11  H   UNL     1       8.732   5.488  13.308  0.00  0.00    +0.000 HD
ENDBRANCH   9  10
ENDBRANCH   8   9
ENDBRANCH   5   8
ENDBRANCH   1   2
BRANCH   1  12
ATOM     12  C   UNL     1       5.513   5.167  19.429  0.00  0.00    +0.000 C 
BRANCH  12  18
ATOM     13  N   UNL     1       2.948   5.125  19.811  0.00  0.00    +0.000 NA
ATOM     14  C   UNL     1       1.716   4.385  19.462  0.00  0.00    +0.000 C 
ATOM     15  C   UNL     1       1.831   2.875  19.627  0.00  0.00    +0.000 C 
ATOM     16  C   UNL     1       2.957   2.338  18.774  0.00  0.00    +0.000 C 
ATOM     17  C   UNL     1       4.246   3.043  19.156  0.00  0.00    +0.000 C 
ATOM     18  C   UNL     1       4.123   4.583  19.063  0.00  0.00    +0.000 C 
BRANCH  13  20
ATOM     19  C   UNL     1       2.392   7.037  18.211  0.00  0.00    +0.000 C 
ATOM     20  C   UNL     1       2.751   6.599  19.643  0.00  0.00    +0.000 C 
ATOM     21  C   UNL     1       1.692   7.180  20.600  0.00  0.00    +0.000 C 
ENDBRANCH  13  20
ENDBRANCH  12  18
ENDBRANCH   1  12
TORSDOF 7
ENDMDL
MODEL 9
REMARK VINA RESULT:      -6.1      2.890      6.576
REMARK  Name = 
REMARK  9 active torsions:
REMARK  status: ('A' for Active; 'I' for Inactive)
REMARK    1  A    between atoms: C_1  and  C_2
REMARK    2  A    between atoms: C_2  and  C_3
REMARK    3  A    between atoms: C_2  and  N_4
REMARK    4  A    between atoms: C_9  and  C_10
REMARK    5  A    between atoms: C_10  and  O_11
REMARK    6  A    between atoms: O_11  and  C_12
REMARK    7  A    between atoms: C_15  and  C_16
REMARK    8  A    between atoms: C_16  and  C_17
REMARK    9  A    between atoms: C_17  and  O_18
REMARK                            x       y       z     vdW  Elec       q    Type
REMARK                         _______ _______ _______ _____ _____    ______ ____
ROOT
ATOM      1  O   UNL     1       5.664   4.509  17.926  0.00  0.00    +0.000 OA
ENDROOT
BRANCH   1   2
ATOM      2  C   UNL     1       6.376   5.690  17.958  0.00  0.00    +0.000 A 
ATOM      3  C   UNL     1       7.496   5.903  18.768  0.00  0.00    +0.000 A 
ATOM      4  C   UNL     1       8.201   7.103  18.729  0.00  0.00    +0.000 A 
ATOM      5  C   UNL     1       7.791   8.129  17.884  0.00  0.00    +0.000 A 
ATOM      6  C   UNL     1       6.656   7.936  17.079  0.00  0.00    +0.000 A 
ATOM      7  C   UNL     1       5.949   6.724  17.113  0.00  0.00    +0.000 A 
BRANCH   5   8
ATOM      8  C   UNL     1       8.590   9.409  17.859  0.00  0.00    +0.000 C 
BRANCH   8   9
ATOM      9  C   UNL     1       9.103   9.816  19.245  0.00  0.00    +0.000 C 
BRANCH   9  10
ATOM     10  O   UNL     1       9.259  11.226  19.351  0.00  0.00    +0.000 OA
ATOM     11  H   UNL     1      10.151  11.382  19.712  0.00  0.00    +0.000 HD
ENDBRANCH   9  10
ENDBRANCH   8   9
ENDBRANCH   5   8
ENDBRANCH   1   2
BRANCH   1  12
ATOM     12  C   UNL     1       5.094   4.120  19.187  0.00  0.00    +0.000 C 
BRANCH  12  18
ATOM     13  N   UNL     1       2.716   4.829  19.944  0.00  0.00    +0.000 NA
ATOM     14  C   UNL     1       1.300   4.404  19.934  0.00  0.00    +0.000 C 
ATOM     15  C   UNL     1       1.081   2.962  20.375  0.00  0.00    +0.000 C 
ATOM     16  C   UNL     1       1.860   2.018  19.488  0.00  0.00    +0.000 C 
ATOM     17  C   UNL     1       3.329   2.400  19.530  0.00  0.00    +0.000 C 
ATOM     18  C   UNL     1       3.561   3.883  19.153  0.00  0.00    +0.000 C 
BRANCH  13  20
ATOM     19  C   UNL     1       2.493   6.522  18.043  0.00  0.00    +0.000 C 
ATOM     20  C   UNL     1       2.847   6.258  19.519  0.00  0.00    +0.000 C 
ATOM     21  C   UNL     1       2.022   7.225  20.389  0.00  0.00    +0.000 C 
ENDBRANCH  13  20
ENDBRANCH  12  18
ENDBRANCH   1  12
TORSDOF 7
ENDMDL
