MODEL 1
REMARK VINA RESULT:      -8.6      0.000      0.000
REMARK  Name = 
REMARK  8 active torsions:
REMARK  status: ('A' for Active; 'I' for Inactive)
REMARK    1  A    between atoms: C_1  and  C_2
REMARK    2  A    between atoms: C_5  and  C_6
REMARK    3  A    between atoms: C_6  and  N_7
REMARK    4  A    between atoms: C_8  and  S_9
REMARK    5  A    between atoms: S_9  and  C_10
REMARK    6  A    between atoms: C_10  and  C_11
REMARK    7  A    between atoms: N_13  and  C_14
REMARK    8  A    between atoms: C_14  and  C_15
REMARK                            x       y       z     vdW  Elec       q    Type
REMARK                         _______ _______ _______ _____ _____    ______ ____
ROOT
ATOM      1  N   UNL     1       4.540   5.309  18.707  0.00  0.00    +0.000 N 
ATOM      2  C   UNL     1       3.399   6.120  18.645  0.00  0.00    +0.000 A 
ATOM      3  N   UNL     1       2.254   5.873  19.203  0.00  0.00    +0.000 NA
ATOM      4  C   UNL     1       2.195   4.693  19.936  0.00  0.00    +0.000 A 
ATOM      5  C   UNL     1       1.076   4.282  20.691  0.00  0.00    +0.000 A 
ATOM      6  C   UNL     1       1.310   3.061  21.292  0.00  0.00    +0.000 A 
ATOM      7  S   UNL     1       2.875   2.446  20.923  0.00  0.00    +0.000 S 
ATOM      8  C   UNL     1       3.232   3.813  19.987  0.00  0.00    +0.000 A 
ATOM      9  C   UNL     1       4.474   4.046  19.318  0.00  0.00    +0.000 A 
ATOM     10  O   UNL     1       5.380   3.216  19.259  0.00  0.00    +0.000 OA
ENDROOT
BRANCH   1  11
ATOM     11  C   UNL     1       5.828   5.630  18.086  0.00  0.00    +0.000 C 
BRANCH  11  16
ATOM     12  C   UNL     1       6.490   3.590  12.664  0.00  0.00    +0.000 C 
ATOM     13  C   UNL     1       6.269   4.234  14.001  0.00  0.00    +0.000 A 
ATOM     14  C   UNL     1       7.246   5.048  14.578  0.00  0.00    +0.000 A 
ATOM     15  C   UNL     1       7.077   5.547  15.874  0.00  0.00    +0.000 A 
ATOM     16  C   UNL     1       5.930   5.240  16.623  0.00  0.00    +0.000 A 
ATOM     17  C   UNL     1       4.923   4.480  16.011  0.00  0.00    +0.000 A 
ATOM     18  C   UNL     1       5.093   3.980  14.716  0.00  0.00    +0.000 A 
ENDBRANCH  11  16
ENDBRANCH   1  11
BRANCH   2  19
ATOM     19  S   UNL     1       3.505   7.612  17.709  0.00  0.00    +0.000 S 
BRANCH  19  20
ATOM     20  C   UNL     1       1.782   8.213  17.734  0.00  0.00    +0.000 C 
BRANCH  20  21
ATOM     21  C   UNL     1       1.636   9.680  18.117  0.00  0.00    +0.000 C 
ATOM     22  O   UNL     1       2.441  10.528  17.730  0.00  0.00    +0.000 OA
ATOM     23  N   UNL     1       0.635   9.960  19.018  0.00  0.00    +0.000 N 
ATOM     24  H   UNL     1      -0.058   9.243  19.191  0.00  0.00    +0.000 HD
BRANCH  23  25
ATOM     25  C   UNL     1       0.361  11.291  19.494  0.00  0.00    +0.000 C 
BRANCH  25  26
ATOM     26  C   UNL     1      -0.399  11.294  20.795  0.00  0.00    +0.000 A 
ATOM     27  C   UNL     1      -1.473  12.189  20.946  0.00  0.00    +0.000 A 
ATOM     28  C   UNL     1      -2.181  12.269  22.145  0.00  0.00    +0.000 A 
ATOM     29  C   UNL     1      -1.835  11.446  23.213  0.00  0.00    +0.000 A 
ATOM     30  C   UNL     1      -0.795  10.528  23.071  0.00  0.00    +0.000 A 
ATOM     31  C   UNL     1      -0.088  10.443  21.866  0.00  0.00    +0.000 A 
ATOM     32 CL   UNL     1       1.168   9.260  21.755  0.00  0.00    +0.000 Cl
ENDBRANCH  25  26
ENDBRANCH  23  25
ENDBRANCH  20  21
ENDBRANCH  19  20
ENDBRANCH   2  19
TORSDOF 7
ENDMDL
MODEL 2
REMARK VINA RESULT:      -8.6      2.128      2.630
REMARK  Name = 
REMARK  8 active torsions:
REMARK  status: ('A' for Active; 'I' for Inactive)
REMARK    1  A    between atoms: C_1  and  C_2
REMARK    2  A    between atoms: C_5  and  C_6
REMARK    3  A    between atoms: C_6  and  N_7
REMARK    4  A    between atoms: C_8  and  S_9
REMARK    5  A    between atoms: S_9  and  C_10
REMARK    6  A    between atoms: C_10  and  C_11
REMARK    7  A    between atoms: N_13  and  C_14
REMARK    8  A    between atoms: C_14  and  C_15
REMARK                            x       y       z     vdW  Elec       q    Type
REMARK                         _______ _______ _______ _____ _____    ______ ____
ROOT
ATOM      1  N   UNL     1       4.405   5.551  18.740  0.00  0.00    +0.000 N 
ATOM      2  C   UNL     1       3.173   6.216  18.780  0.00  0.00    +0.000 A 
ATOM      3  N   UNL     1       2.095   5.794  19.366  0.00  0.00    +0.000 NA
ATOM      4  C   UNL     1       2.216   4.573  20.020  0.00  0.00    +0.000 A 
ATOM      5  C   UNL     1       1.193   3.981  20.790  0.00  0.00    +0.000 A 
ATOM      6  C   UNL     1       1.603   2.763  21.297  0.00  0.00    +0.000 A 
ATOM      7  S   UNL     1       3.210   2.371  20.823  0.00  0.00    +0.000 S 
ATOM      8  C   UNL     1       3.353   3.827  19.968  0.00  0.00    +0.000 A 
ATOM      9  C   UNL     1       4.523   4.254  19.266  0.00  0.00    +0.000 A 
ATOM     10  O   UNL     1       5.518   3.548  19.113  0.00  0.00    +0.000 OA
ENDROOT
BRANCH   1  11
ATOM     11  C   UNL     1       5.612   6.067  18.089  0.00  0.00    +0.000 C 
BRANCH  11  16
ATOM     12  C   UNL     1       6.481   3.613  12.871  0.00  0.00    +0.000 C 
ATOM     13  C   UNL     1       6.246   4.368  14.147  0.00  0.00    +0.000 A 
ATOM     14  C   UNL     1       7.306   4.957  14.840  0.00  0.00    +0.000 A 
ATOM     15  C   UNL     1       7.090   5.557  16.085  0.00  0.00    +0.000 A 
ATOM     16  C   UNL     1       5.813   5.578  16.666  0.00  0.00    +0.000 A 
ATOM     17  C   UNL     1       4.743   5.048  15.933  0.00  0.00    +0.000 A 
ATOM     18  C   UNL     1       4.958   4.446  14.688  0.00  0.00    +0.000 A 
ENDBRANCH  11  16
ENDBRANCH   1  11
BRANCH   2  19
ATOM     19  S   UNL     1       3.051   7.765  17.944  0.00  0.00    +0.000 S 
BRANCH  19  20
ATOM     20  C   UNL     1       1.747   8.621  18.892  0.00  0.00    +0.000 C 
BRANCH  20  21
ATOM     21  C   UNL     1       1.341   9.972  18.320  0.00  0.00    +0.000 C 
ATOM     22  O   UNL     1       2.183  10.786  17.936  0.00  0.00    +0.000 OA
ATOM     23  N   UNL     1      -0.001  10.264  18.386  0.00  0.00    +0.000 N 
ATOM     24  H   UNL     1      -0.639   9.506  18.593  0.00  0.00    +0.000 HD
BRANCH  23  25
ATOM     25  C   UNL     1      -0.558  11.500  17.898  0.00  0.00    +0.000 C 
BRANCH  25  26
ATOM     26  C   UNL     1      -2.043  11.409  17.661  0.00  0.00    +0.000 A 
ATOM     27  C   UNL     1      -2.499  10.936  16.418  0.00  0.00    +0.000 A 
ATOM     28  C   UNL     1      -3.862  10.876  16.125  0.00  0.00    +0.000 A 
ATOM     29  C   UNL     1      -4.794  11.279  17.076  0.00  0.00    +0.000 A 
ATOM     30  C   UNL     1      -4.363  11.719  18.326  0.00  0.00    +0.000 A 
ATOM     31  C   UNL     1      -2.997  11.773  18.624  0.00  0.00    +0.000 A 
ATOM     32 CL   UNL     1      -2.539  12.301  20.205  0.00  0.00    +0.000 Cl
ENDBRANCH  25  26
ENDBRANCH  23  25
ENDBRANCH  20  21
ENDBRANCH  19  20
ENDBRANCH   2  19
TORSDOF 7
ENDMDL
MODEL 3
REMARK VINA RESULT:      -8.6      5.203      6.462
REMARK  Name = 
REMARK  8 active torsions:
REMARK  status: ('A' for Active; 'I' for Inactive)
REMARK    1  A    between atoms: C_1  and  C_2
REMARK    2  A    between atoms: C_5  and  C_6
REMARK    3  A    between atoms: C_6  and  N_7
REMARK    4  A    between atoms: C_8  and  S_9
REMARK    5  A    between atoms: S_9  and  C_10
REMARK    6  A    between atoms: C_10  and  C_11
REMARK    7  A    between atoms: N_13  and  C_14
REMARK    8  A    between atoms: C_14  and  C_15
REMARK                            x       y       z     vdW  Elec       q    Type
REMARK                         _______ _______ _______ _____ _____    ______ ____
ROOT
ATOM      1  N   UNL     1       4.849   5.108  17.553  0.00  0.00    +0.000 N 
ATOM      2  C   UNL     1       5.832   4.541  18.375  0.00  0.00    +0.000 A 
ATOM      3  N   UNL     1       5.622   3.792  19.414  0.00  0.00    +0.000 NA
ATOM      4  C   UNL     1       4.285   3.535  19.697  0.00  0.00    +0.000 A 
ATOM      5  C   UNL     1       3.843   2.676  20.724  0.00  0.00    +0.000 A 
ATOM      6  C   UNL     1       2.463   2.637  20.774  0.00  0.00    +0.000 A 
ATOM      7  S   UNL     1       1.744   3.644  19.577  0.00  0.00    +0.000 S 
ATOM      8  C   UNL     1       3.268   4.105  18.996  0.00  0.00    +0.000 A 
ATOM      9  C   UNL     1       3.492   4.987  17.893  0.00  0.00    +0.000 A 
ATOM     10  O   UNL     1       2.592   5.598  17.319  0.00  0.00    +0.000 OA
ENDROOT
BRANCH   1  11
ATOM     11  C   UNL     1       5.121   5.931  16.371  0.00  0.00    +0.000 C 
BRANCH  11  16
ATOM     12  C   UNL     1       7.010   3.427  11.456  0.00  0.00    +0.000 C 
ATOM     13  C   UNL     1       6.574   3.958  12.790  0.00  0.00    +0.000 A 
ATOM     14  C   UNL     1       5.330   3.620  13.327  0.00  0.00    +0.000 A 
ATOM     15  C   UNL     1       4.886   4.212  14.514  0.00  0.00    +0.000 A 
ATOM     16  C   UNL     1       5.674   5.158  15.187  0.00  0.00    +0.000 A 
ATOM     17  C   UNL     1       6.950   5.440  14.680  0.00  0.00    +0.000 A 
ATOM     18  C   UNL     1       7.393   4.849  13.491  0.00  0.00    +0.000 A 
ENDBRANCH  11  16
ENDBRANCH   1  11
BRANCH   2  19
ATOM     19  S   UNL     1       7.519   4.883  17.989  0.00  0.00    +0.000 S 
BRANCH  19  20
ATOM     20  C   UNL     1       7.859   6.368  18.995  0.00  0.00    +0.000 C 
BRANCH  20  21
ATOM     21  C   UNL     1       8.072   7.639  18.184  0.00  0.00    +0.000 C 
ATOM     22  O   UNL     1       7.825   7.680  16.977  0.00  0.00    +0.000 OA
ATOM     23  N   UNL     1       8.675   8.676  18.856  0.00  0.00    +0.000 N 
ATOM     24  H   UNL     1       8.732   8.615  19.864  0.00  0.00    +0.000 HD
BRANCH  23  25
ATOM     25  C   UNL     1       8.958   9.948  18.240  0.00  0.00    +0.000 C 
BRANCH  25  26
ATOM     26  C   UNL     1       9.461  10.968  19.229  0.00  0.00    +0.000 A 
ATOM     27  C   UNL     1       9.130  10.810  20.587  0.00  0.00    +0.000 A 
ATOM     28  C   UNL     1       9.526  11.749  21.539  0.00  0.00    +0.000 A 
ATOM     29  C   UNL     1      10.271  12.858  21.151  0.00  0.00    +0.000 A 
ATOM     30  C   UNL     1      10.639  13.014  19.816  0.00  0.00    +0.000 A 
ATOM     31  C   UNL     1      10.247  12.070  18.860  0.00  0.00    +0.000 A 
ATOM     32 CL   UNL     1      10.765  12.315  17.230  0.00  0.00    +0.000 Cl
ENDBRANCH  25  26
ENDBRANCH  23  25
ENDBRANCH  20  21
ENDBRANCH  19  20
ENDBRANCH   2  19
TORSDOF 7
ENDMDL
MODEL 4
REMARK VINA RESULT:      -8.5      1.920      2.453
REMARK  Name = 
REMARK  8 active torsions:
REMARK  status: ('A' for Active; 'I' for Inactive)
REMARK    1  A    between atoms: C_1  and  C_2
REMARK    2  A    between atoms: C_5  and  C_6
REMARK    3  A    between atoms: C_6  and  N_7
REMARK    4  A    between atoms: C_8  and  S_9
REMARK    5  A    between atoms: S_9  and  C_10
REMARK    6  A    between atoms: C_10  and  C_11
REMARK    7  A    between atoms: N_13  and  C_14
REMARK    8  A    between atoms: C_14  and  C_15
REMARK                            x       y       z     vdW  Elec       q    Type
REMARK                         _______ _______ _______ _____ _____    ______ ____
ROOT
ATOM      1  N   UNL     1       4.446   5.617  18.615  0.00  0.00    +0.000 N 
ATOM      2  C   UNL     1       3.237   6.326  18.620  0.00  0.00    +0.000 A 
ATOM      3  N   UNL     1       2.149   5.978  19.236  0.00  0.00    +0.000 NA
ATOM      4  C   UNL     1       2.234   4.796  19.963  0.00  0.00    +0.000 A 
ATOM      5  C   UNL     1       1.197   4.287  20.774  0.00  0.00    +0.000 A 
ATOM      6  C   UNL     1       1.568   3.089  21.353  0.00  0.00    +0.000 A 
ATOM      7  S   UNL     1       3.158   2.614  20.896  0.00  0.00    +0.000 S 
ATOM      8  C   UNL     1       3.344   4.010  19.952  0.00  0.00    +0.000 A 
ATOM      9  C   UNL     1       4.523   4.352  19.219  0.00  0.00    +0.000 A 
ATOM     10  O   UNL     1       5.493   3.604  19.106  0.00  0.00    +0.000 OA
ENDROOT
BRANCH   1  11
ATOM     11  C   UNL     1       5.665   6.051  17.928  0.00  0.00    +0.000 C 
BRANCH  11  16
ATOM     12  C   UNL     1       6.604   3.866  12.604  0.00  0.00    +0.000 C 
ATOM     13  C   UNL     1       6.375   4.296  14.023  0.00  0.00    +0.000 A 
ATOM     14  C   UNL     1       5.095   4.281  14.582  0.00  0.00    +0.000 A 
ATOM     15  C   UNL     1       4.876   4.793  15.865  0.00  0.00    +0.000 A 
ATOM     16  C   UNL     1       5.931   5.336  16.616  0.00  0.00    +0.000 A 
ATOM     17  C   UNL     1       7.224   5.283  16.076  0.00  0.00    +0.000 A 
ATOM     18  C   UNL     1       7.442   4.773  14.792  0.00  0.00    +0.000 A 
ENDBRANCH  11  16
ENDBRANCH   1  11
BRANCH   2  19
ATOM     19  S   UNL     1       3.162   7.824  17.691  0.00  0.00    +0.000 S 
BRANCH  19  20
ATOM     20  C   UNL     1       1.421   8.329  17.901  0.00  0.00    +0.000 C 
BRANCH  20  21
ATOM     21  C   UNL     1       1.214   9.834  18.005  0.00  0.00    +0.000 C 
ATOM     22  O   UNL     1       2.168  10.612  18.063  0.00  0.00    +0.000 OA
ATOM     23  N   UNL     1      -0.090  10.243  18.162  0.00  0.00    +0.000 N 
ATOM     24  H   UNL     1      -0.821   9.568  17.979  0.00  0.00    +0.000 HD
BRANCH  23  25
ATOM     25  C   UNL     1      -0.466  11.628  18.283  0.00  0.00    +0.000 C 
BRANCH  25  26
ATOM     26  C   UNL     1      -1.943  11.806  18.521  0.00  0.00    +0.000 A 
ATOM     27  C   UNL     1      -2.365  12.369  19.739  0.00  0.00    +0.000 A 
ATOM     28  C   UNL     1      -3.721  12.513  20.034  0.00  0.00    +0.000 A 
ATOM     29  C   UNL     1      -4.680  12.106  19.111  0.00  0.00    +0.000 A 
ATOM     30  C   UNL     1      -4.281  11.577  17.885  0.00  0.00    +0.000 A 
ATOM     31  C   UNL     1      -2.921  11.438  17.585  0.00  0.00    +0.000 A 
ATOM     32 CL   UNL     1      -2.502  10.802  16.033  0.00  0.00    +0.000 Cl
ENDBRANCH  25  26
ENDBRANCH  23  25
ENDBRANCH  20  21
ENDBRANCH  19  20
ENDBRANCH   2  19
TORSDOF 7
ENDMDL
MODEL 5
REMARK VINA RESULT:      -8.5      1.109      1.652
REMARK  Name = 
REMARK  8 active torsions:
REMARK  status: ('A' for Active; 'I' for Inactive)
REMARK    1  A    between atoms: C_1  and  C_2
REMARK    2  A    between atoms: C_5  and  C_6
REMARK    3  A    between atoms: C_6  and  N_7
REMARK    4  A    between atoms: C_8  and  S_9
REMARK    5  A    between atoms: S_9  and  C_10
REMARK    6  A    between atoms: C_10  and  C_11
REMARK    7  A    between atoms: N_13  and  C_14
REMARK    8  A    between atoms: C_14  and  C_15
REMARK                            x       y       z     vdW  Elec       q    Type
REMARK                         _______ _______ _______ _____ _____    ______ ____
ROOT
ATOM      1  N   UNL     1       4.361   5.569  18.640  0.00  0.00    +0.000 N 
ATOM      2  C   UNL     1       3.159   6.288  18.582  0.00  0.00    +0.000 A 
ATOM      3  N   UNL     1       2.041   5.956  19.149  0.00  0.00    +0.000 NA
ATOM      4  C   UNL     1       2.081   4.780  19.891  0.00  0.00    +0.000 A 
ATOM      5  C   UNL     1       1.002   4.288  20.656  0.00  0.00    +0.000 A 
ATOM      6  C   UNL     1       1.335   3.093  21.263  0.00  0.00    +0.000 A 
ATOM      7  S   UNL     1       2.941   2.600  20.886  0.00  0.00    +0.000 S 
ATOM      8  C   UNL     1       3.183   3.984  19.938  0.00  0.00    +0.000 A 
ATOM      9  C   UNL     1       4.398   4.309  19.259  0.00  0.00    +0.000 A 
ATOM     10  O   UNL     1       5.366   3.552  19.198  0.00  0.00    +0.000 OA
ENDROOT
BRANCH   1  11
ATOM     11  C   UNL     1       5.615   5.986  18.006  0.00  0.00    +0.000 C 
BRANCH  11  16
ATOM     12  C   UNL     1       6.608   3.914  12.647  0.00  0.00    +0.000 C 
ATOM     13  C   UNL     1       6.373   4.316  14.074  0.00  0.00    +0.000 A 
ATOM     14  C   UNL     1       5.103   4.222  14.648  0.00  0.00    +0.000 A 
ATOM     15  C   UNL     1       4.872   4.707  15.939  0.00  0.00    +0.000 A 
ATOM     16  C   UNL     1       5.904   5.301  16.683  0.00  0.00    +0.000 A 
ATOM     17  C   UNL     1       7.190   5.328  16.127  0.00  0.00    +0.000 A 
ATOM     18  C   UNL     1       7.421   4.845  14.835  0.00  0.00    +0.000 A 
ENDBRANCH  11  16
ENDBRANCH   1  11
BRANCH   2  19
ATOM     19  S   UNL     1       3.141   7.777  17.636  0.00  0.00    +0.000 S 
BRANCH  19  20
ATOM     20  C   UNL     1       1.521   8.497  18.068  0.00  0.00    +0.000 C 
BRANCH  20  21
ATOM     21  C   UNL     1       1.587   9.932  18.572  0.00  0.00    +0.000 C 
ATOM     22  O   UNL     1       2.197  10.804  17.950  0.00  0.00    +0.000 OA
ATOM     23  N   UNL     1       1.040  10.150  19.815  0.00  0.00    +0.000 N 
ATOM     24  H   UNL     1       0.451   9.425  20.205  0.00  0.00    +0.000 HD
BRANCH  23  25
ATOM     25  C   UNL     1       1.022  11.445  20.446  0.00  0.00    +0.000 C 
BRANCH  25  26
ATOM     26  C   UNL     1      -0.352  11.832  20.929  0.00  0.00    +0.000 A 
ATOM     27  C   UNL     1      -0.666  11.641  22.287  0.00  0.00    +0.000 A 
ATOM     28  C   UNL     1      -1.937  11.936  22.780  0.00  0.00    +0.000 A 
ATOM     29  C   UNL     1      -2.915  12.438  21.925  0.00  0.00    +0.000 A 
ATOM     30  C   UNL     1      -2.612  12.666  20.584  0.00  0.00    +0.000 A 
ATOM     31  C   UNL     1      -1.335  12.376  20.089  0.00  0.00    +0.000 A 
ATOM     32 CL   UNL     1      -1.024  12.713  18.423  0.00  0.00    +0.000 Cl
ENDBRANCH  25  26
ENDBRANCH  23  25
ENDBRANCH  20  21
ENDBRANCH  19  20
ENDBRANCH   2  19
TORSDOF 7
ENDMDL
MODEL 6
REMARK VINA RESULT:      -8.4      1.058      1.718
REMARK  Name = 
REMARK  8 active torsions:
REMARK  status: ('A' for Active; 'I' for Inactive)
REMARK    1  A    between atoms: C_1  and  C_2
REMARK    2  A    between atoms: C_5  and  C_6
REMARK    3  A    between atoms: C_6  and  N_7
REMARK    4  A    between atoms: C_8  and  S_9
REMARK    5  A    between atoms: S_9  and  C_10
REMARK    6  A    between atoms: C_10  and  C_11
REMARK    7  A    between atoms: N_13  and  C_14
REMARK    8  A    between atoms: C_14  and  C_15
REMARK                            x       y       z     vdW  Elec       q    Type
REMARK                         _______ _______ _______ _____ _____    ______ ____
ROOT
ATOM      1  N   UNL     1       4.511   5.444  18.657  0.00  0.00    +0.000 N 
ATOM      2  C   UNL     1       3.344   6.215  18.561  0.00  0.00    +0.000 A 
ATOM      3  N   UNL     1       2.202   5.947  19.116  0.00  0.00    +0.000 NA
ATOM      4  C   UNL     1       2.176   4.788  19.884  0.00  0.00    +0.000 A 
ATOM      5  C   UNL     1       1.064   4.363  20.641  0.00  0.00    +0.000 A 
ATOM      6  C   UNL     1       1.331   3.168  21.281  0.00  0.00    +0.000 A 
ATOM      7  S   UNL     1       2.919   2.595  20.944  0.00  0.00    +0.000 S 
ATOM      8  C   UNL     1       3.240   3.945  19.970  0.00  0.00    +0.000 A 
ATOM      9  C   UNL     1       4.480   4.199  19.305  0.00  0.00    +0.000 A 
ATOM     10  O   UNL     1       5.413   3.398  19.279  0.00  0.00    +0.000 OA
ENDROOT
BRANCH   1  11
ATOM     11  C   UNL     1       5.793   5.789  18.038  0.00  0.00    +0.000 C 
BRANCH  11  16
ATOM     12  C   UNL     1       6.494   3.857  12.581  0.00  0.00    +0.000 C 
ATOM     13  C   UNL     1       6.351   4.225  14.029  0.00  0.00    +0.000 A 
ATOM     14  C   UNL     1       5.152   4.005  14.712  0.00  0.00    +0.000 A 
ATOM     15  C   UNL     1       4.993   4.458  16.026  0.00  0.00    +0.000 A 
ATOM     16  C   UNL     1       6.026   5.144  16.684  0.00  0.00    +0.000 A 
ATOM     17  C   UNL     1       7.249   5.298  16.017  0.00  0.00    +0.000 A 
ATOM     18  C   UNL     1       7.407   4.847  14.702  0.00  0.00    +0.000 A 
ENDBRANCH  11  16
ENDBRANCH   1  11
BRANCH   2  19
ATOM     19  S   UNL     1       3.410   7.681  17.582  0.00  0.00    +0.000 S 
BRANCH  19  20
ATOM     20  C   UNL     1       1.694   8.295  17.680  0.00  0.00    +0.000 C 
BRANCH  20  21
ATOM     21  C   UNL     1       1.542   9.612  18.429  0.00  0.00    +0.000 C 
ATOM     22  O   UNL     1       2.152  10.625  18.079  0.00  0.00    +0.000 OA
ATOM     23  N   UNL     1       0.794   9.556  19.582  0.00  0.00    +0.000 N 
ATOM     24  H   UNL     1       0.226   8.732  19.735  0.00  0.00    +0.000 HD
BRANCH  23  25
ATOM     25  C   UNL     1       0.553  10.705  20.416  0.00  0.00    +0.000 C 
BRANCH  25  26
ATOM     26  C   UNL     1      -0.817  11.296  20.202  0.00  0.00    +0.000 A 
ATOM     27  C   UNL     1      -1.448  11.102  18.961  0.00  0.00    +0.000 A 
ATOM     28  C   UNL     1      -2.694  11.666  18.690  0.00  0.00    +0.000 A 
ATOM     29  C   UNL     1      -3.338  12.426  19.662  0.00  0.00    +0.000 A 
ATOM     30  C   UNL     1      -2.744  12.601  20.911  0.00  0.00    +0.000 A 
ATOM     31  C   UNL     1      -1.496  12.031  21.186  0.00  0.00    +0.000 A 
ATOM     32 CL   UNL     1      -0.836  12.266  22.766  0.00  0.00    +0.000 Cl
ENDBRANCH  25  26
ENDBRANCH  23  25
ENDBRANCH  20  21
ENDBRANCH  19  20
ENDBRANCH   2  19
TORSDOF 7
ENDMDL
MODEL 7
REMARK VINA RESULT:      -8.3      3.605      9.990
REMARK  Name = 
REMARK  8 active torsions:
REMARK  status: ('A' for Active; 'I' for Inactive)
REMARK    1  A    between atoms: C_1  and  C_2
REMARK    2  A    between atoms: C_5  and  C_6
REMARK    3  A    between atoms: C_6  and  N_7
REMARK    4  A    between atoms: C_8  and  S_9
REMARK    5  A    between atoms: S_9  and  C_10
REMARK    6  A    between atoms: C_10  and  C_11
REMARK    7  A    between atoms: N_13  and  C_14
REMARK    8  A    between atoms: C_14  and  C_15
REMARK                            x       y       z     vdW  Elec       q    Type
REMARK                         _______ _______ _______ _____ _____    ______ ____
ROOT
ATOM      1  N   UNL     1       0.978  11.910  20.483  0.00  0.00    +0.000 N 
ATOM      2  C   UNL     1       1.165  11.577  19.135  0.00  0.00    +0.000 A 
ATOM      3  N   UNL     1       1.847  12.257  18.266  0.00  0.00    +0.000 NA
ATOM      4  C   UNL     1       2.451  13.409  18.759  0.00  0.00    +0.000 A 
ATOM      5  C   UNL     1       3.306  14.240  18.006  0.00  0.00    +0.000 A 
ATOM      6  C   UNL     1       3.734  15.317  18.759  0.00  0.00    +0.000 A 
ATOM      7  S   UNL     1       3.085  15.290  20.353  0.00  0.00    +0.000 S 
ATOM      8  C   UNL     1       2.260  13.844  20.034  0.00  0.00    +0.000 A 
ATOM      9  C   UNL     1       1.453  13.136  20.978  0.00  0.00    +0.000 A 
ATOM     10  O   UNL     1       1.179  13.568  22.096  0.00  0.00    +0.000 OA
ENDROOT
BRANCH   1  11
ATOM     11  C   UNL     1       0.221  11.106  21.446  0.00  0.00    +0.000 C 
BRANCH  11  16
ATOM     12  C   UNL     1      -4.934  13.597  22.551  0.00  0.00    +0.000 C 
ATOM     13  C   UNL     1      -3.677  12.833  22.253  0.00  0.00    +0.000 A 
ATOM     14  C   UNL     1      -2.957  12.207  23.273  0.00  0.00    +0.000 A 
ATOM     15  C   UNL     1      -1.728  11.598  23.001  0.00  0.00    +0.000 A 
ATOM     16  C   UNL     1      -1.189  11.606  21.705  0.00  0.00    +0.000 A 
ATOM     17  C   UNL     1      -1.949  12.175  20.675  0.00  0.00    +0.000 A 
ATOM     18  C   UNL     1      -3.178  12.785  20.947  0.00  0.00    +0.000 A 
ENDBRANCH  11  16
ENDBRANCH   1  11
BRANCH   2  19
ATOM     19  S   UNL     1       0.389  10.108  18.540  0.00  0.00    +0.000 S 
BRANCH  19  20
ATOM     20  C   UNL     1       1.816   9.086  18.041  0.00  0.00    +0.000 C 
BRANCH  20  21
ATOM     21  C   UNL     1       2.164   7.973  19.020  0.00  0.00    +0.000 C 
ATOM     22  O   UNL     1       1.788   8.009  20.193  0.00  0.00    +0.000 OA
ATOM     23  N   UNL     1       3.024   7.011  18.543  0.00  0.00    +0.000 N 
ATOM     24  H   UNL     1       3.187   6.977  17.545  0.00  0.00    +0.000 HD
BRANCH  23  25
ATOM     25  C   UNL     1       3.463   5.892  19.336  0.00  0.00    +0.000 C 
BRANCH  25  26
ATOM     26  C   UNL     1       2.620   4.662  19.114  0.00  0.00    +0.000 A 
ATOM     27  C   UNL     1       1.562   4.401  20.002  0.00  0.00    +0.000 A 
ATOM     28  C   UNL     1       0.780   3.253  19.874  0.00  0.00    +0.000 A 
ATOM     29  C   UNL     1       1.036   2.350  18.846  0.00  0.00    +0.000 A 
ATOM     30  C   UNL     1       2.058   2.609  17.935  0.00  0.00    +0.000 A 
ATOM     31  C   UNL     1       2.840   3.763  18.059  0.00  0.00    +0.000 A 
ATOM     32 CL   UNL     1       4.069   4.032  16.874  0.00  0.00    +0.000 Cl
ENDBRANCH  25  26
ENDBRANCH  23  25
ENDBRANCH  20  21
ENDBRANCH  19  20
ENDBRANCH   2  19
TORSDOF 7
ENDMDL
MODEL 8
REMARK VINA RESULT:      -8.2      1.872      2.644
REMARK  Name = 
REMARK  8 active torsions:
REMARK  status: ('A' for Active; 'I' for Inactive)
REMARK    1  A    between atoms: C_1  and  C_2
REMARK    2  A    between atoms: C_5  and  C_6
REMARK    3  A    between atoms: C_6  and  N_7
REMARK    4  A    between atoms: C_8  and  S_9
REMARK    5  A    between atoms: S_9  and  C_10
REMARK    6  A    between atoms: C_10  and  C_11
REMARK    7  A    between atoms: N_13  and  C_14
REMARK    8  A    between atoms: C_14  and  C_15
REMARK                            x       y       z     vdW  Elec       q    Type
REMARK                         _______ _______ _______ _____ _____    ______ ____
ROOT
ATOM      1  N   UNL     1       4.445   5.613  18.674  0.00  0.00    +0.000 N 
ATOM      2  C   UNL     1       3.267   6.371  18.664  0.00  0.00    +0.000 A 
ATOM      3  N   UNL     1       2.148   6.054  19.239  0.00  0.00    +0.000 NA
ATOM      4  C   UNL     1       2.162   4.850  19.936  0.00  0.00    +0.000 A 
ATOM      5  C   UNL     1       1.081   4.365  20.702  0.00  0.00    +0.000 A 
ATOM      6  C   UNL     1       1.386   3.137  21.258  0.00  0.00    +0.000 A 
ATOM      7  S   UNL     1       2.968   2.608  20.834  0.00  0.00    +0.000 S 
ATOM      8  C   UNL     1       3.238   4.019  19.934  0.00  0.00    +0.000 A 
ATOM      9  C   UNL     1       4.452   4.330  19.245  0.00  0.00    +0.000 A 
ATOM     10  O   UNL     1       5.393   3.546  19.138  0.00  0.00    +0.000 OA
ENDROOT
BRANCH   1  11
ATOM     11  C   UNL     1       5.701   6.013  18.033  0.00  0.00    +0.000 C 
BRANCH  11  16
ATOM     12  C   UNL     1       6.627   3.980  12.648  0.00  0.00    +0.000 C 
ATOM     13  C   UNL     1       6.404   4.370  14.079  0.00  0.00    +0.000 A 
ATOM     14  C   UNL     1       5.129   4.321  14.648  0.00  0.00    +0.000 A 
ATOM     15  C   UNL     1       4.914   4.796  15.945  0.00  0.00    +0.000 A 
ATOM     16  C   UNL     1       5.966   5.336  16.701  0.00  0.00    +0.000 A 
ATOM     17  C   UNL     1       7.255   5.318  16.150  0.00  0.00    +0.000 A 
ATOM     18  C   UNL     1       7.470   4.843  14.852  0.00  0.00    +0.000 A 
ENDBRANCH  11  16
ENDBRANCH   1  11
BRANCH   2  19
ATOM     19  S   UNL     1       3.281   7.895  17.774  0.00  0.00    +0.000 S 
BRANCH  19  20
ATOM     20  C   UNL     1       1.510   8.331  17.716  0.00  0.00    +0.000 C 
BRANCH  20  21
ATOM     21  C   UNL     1       1.112   9.463  18.653  0.00  0.00    +0.000 C 
ATOM     22  O   UNL     1       1.165   9.332  19.878  0.00  0.00    +0.000 OA
ATOM     23  N   UNL     1       0.571  10.573  18.047  0.00  0.00    +0.000 N 
ATOM     24  H   UNL     1       0.675  10.660  17.044  0.00  0.00    +0.000 HD
BRANCH  23  25
ATOM     25  C   UNL     1       0.135  11.732  18.782  0.00  0.00    +0.000 C 
BRANCH  25  26
ATOM     26  C   UNL     1       1.270  12.667  19.112  0.00  0.00    +0.000 A 
ATOM     27  C   UNL     1       2.202  12.974  18.106  0.00  0.00    +0.000 A 
ATOM     28  C   UNL     1       3.299  13.795  18.367  0.00  0.00    +0.000 A 
ATOM     29  C   UNL     1       3.478  14.332  19.638  0.00  0.00    +0.000 A 
ATOM     30  C   UNL     1       2.545  14.067  20.639  0.00  0.00    +0.000 A 
ATOM     31  C   UNL     1       1.441  13.248  20.377  0.00  0.00    +0.000 A 
ATOM     32 CL   UNL     1       0.311  12.989  21.660  0.00  0.00    +0.000 Cl
ENDBRANCH  25  26
ENDBRANCH  23  25
ENDBRANCH  20  21
ENDBRANCH  19  20
ENDBRANCH   2  19
TORSDOF 7
ENDMDL
MODEL 9
REMARK VINA RESULT:      -8.2      1.958      2.764
REMARK  Name = 
REMARK  8 active torsions:
REMARK  status: ('A' for Active; 'I' for Inactive)
REMARK    1  A    between atoms: C_1  and  C_2
REMARK    2  A    between atoms: C_5  and  C_6
REMARK    3  A    between atoms: C_6  and  N_7
REMARK    4  A    between atoms: C_8  and  S_9
REMARK    5  A    between atoms: S_9  and  C_10
REMARK    6  A    between atoms: C_10  and  C_11
REMARK    7  A    between atoms: N_13  and  C_14
REMARK    8  A    between atoms: C_14  and  C_15
REMARK                            x       y       z     vdW  Elec       q    Type
REMARK                         _______ _______ _______ _____ _____    ______ ____
ROOT
ATOM      1  N   UNL     1       4.504   5.491  18.727  0.00  0.00    +0.000 N 
ATOM      2  C   UNL     1       3.348   6.283  18.703  0.00  0.00    +0.000 A 
ATOM      3  N   UNL     1       2.208   5.990  19.249  0.00  0.00    +0.000 NA
ATOM      4  C   UNL     1       2.173   4.776  19.927  0.00  0.00    +0.000 A 
ATOM      5  C   UNL     1       1.062   4.311  20.662  0.00  0.00    +0.000 A 
ATOM      6  C   UNL     1       1.319   3.068  21.207  0.00  0.00    +0.000 A 
ATOM      7  S   UNL     1       2.894   2.500  20.810  0.00  0.00    +0.000 S 
ATOM      8  C   UNL     1       3.225   3.915  19.937  0.00  0.00    +0.000 A 
ATOM      9  C   UNL     1       4.462   4.201  19.279  0.00  0.00    +0.000 A 
ATOM     10  O   UNL     1       5.383   3.391  19.182  0.00  0.00    +0.000 OA
ENDROOT
BRANCH   1  11
ATOM     11  C   UNL     1       5.785   5.865  18.121  0.00  0.00    +0.000 C 
BRANCH  11  16
ATOM     12  C   UNL     1       6.514   3.659  12.772  0.00  0.00    +0.000 C 
ATOM     13  C   UNL     1       6.304   4.352  14.087  0.00  0.00    +0.000 A 
ATOM     14  C   UNL     1       7.363   4.978  14.748  0.00  0.00    +0.000 A 
ATOM     15  C   UNL     1       7.180   5.518  16.025  0.00  0.00    +0.000 A 
ATOM     16  C   UNL     1       5.936   5.441  16.671  0.00  0.00    +0.000 A 
ATOM     17  C   UNL     1       4.862   4.874  15.973  0.00  0.00    +0.000 A 
ATOM     18  C   UNL     1       5.045   4.331  14.697  0.00  0.00    +0.000 A 
ENDBRANCH  11  16
ENDBRANCH   1  11
BRANCH   2  19
ATOM     19  S   UNL     1       3.425   7.818  17.836  0.00  0.00    +0.000 S 
BRANCH  19  20
ATOM     20  C   UNL     1       1.668   8.301  17.736  0.00  0.00    +0.000 C 
BRANCH  20  21
ATOM     21  C   UNL     1       1.251   9.363  18.744  0.00  0.00    +0.000 C 
ATOM     22  O   UNL     1       1.242   9.131  19.954  0.00  0.00    +0.000 OA
ATOM     23  N   UNL     1       0.767  10.533  18.206  0.00  0.00    +0.000 N 
ATOM     24  H   UNL     1       0.922  10.698  17.220  0.00  0.00    +0.000 HD
BRANCH  23  25
ATOM     25  C   UNL     1       0.323  11.639  19.013  0.00  0.00    +0.000 C 
BRANCH  25  26
ATOM     26  C   UNL     1       1.261  12.817  18.945  0.00  0.00    +0.000 A 
ATOM     27  C   UNL     1       2.426  12.705  18.166  0.00  0.00    +0.000 A 
ATOM     28  C   UNL     1       3.354  13.744  18.104  0.00  0.00    +0.000 A 
ATOM     29  C   UNL     1       3.128  14.920  18.812  0.00  0.00    +0.000 A 
ATOM     30  C   UNL     1       1.962  15.063  19.563  0.00  0.00    +0.000 A 
ATOM     31  C   UNL     1       1.027  14.024  19.621  0.00  0.00    +0.000 A 
ATOM     32 CL   UNL     1      -0.409  14.286  20.547  0.00  0.00    +0.000 Cl
ENDBRANCH  25  26
ENDBRANCH  23  25
ENDBRANCH  20  21
ENDBRANCH  19  20
ENDBRANCH   2  19
TORSDOF 7
ENDMDL
