MODEL 1
REMARK VINA RESULT:      -7.5      0.000      0.000
REMARK  Name = 
REMARK  3 active torsions:
REMARK  status: ('A' for Active; 'I' for Inactive)
REMARK    1  A    between atoms: C_1  and  C_2
REMARK    2  A    between atoms: C_7  and  C_8
REMARK    3  A    between atoms: C_8  and  N_9
REMARK                            x       y       z     vdW  Elec       q    Type
REMARK                         _______ _______ _______ _____ _____    ______ ____
ROOT
ATOM      1  C   UNL     1      -0.829  11.621  20.121  0.00  0.00    +0.000 C 
ATOM      2  C   UNL     1       0.209  10.610  19.719  0.00  0.00    +0.000 A 
ATOM      3  C   UNL     1       0.989  10.805  18.571  0.00  0.00    +0.000 A 
ATOM      4  C   UNL     1       1.871   9.809  18.123  0.00  0.00    +0.000 A 
ATOM      5  C   UNL     1       1.977   8.605  18.832  0.00  0.00    +0.000 A 
ATOM      6  C   UNL     1       2.686   7.437  18.288  0.00  0.00    +0.000 A 
ATOM      7  C   UNL     1       2.741   6.273  18.978  0.00  0.00    +0.000 A 
ATOM      8  C   UNL     1       2.244   6.244  20.385  0.00  0.00    +0.000 A 
ATOM      9  O   UNL     1       2.460   5.308  21.138  0.00  0.00    +0.000 OA
ATOM     10  N   UNL     1       1.424   7.274  20.765  0.00  0.00    +0.000 N 
ATOM     11  C   UNL     1       1.250   8.440  20.013  0.00  0.00    +0.000 A 
ATOM     12  C   UNL     1       0.357   9.422  20.448  0.00  0.00    +0.000 A 
ATOM     13  H   UNL     1       1.009   7.193  21.681  0.00  0.00    +0.000 HD
ENDROOT
BRANCH   7  14
ATOM     14  C   UNL     1       2.778   4.956  18.241  0.00  0.00    +0.000 C 
BRANCH  14  15
ATOM     15  N   UNL     1       3.864   3.960  18.292  0.00  0.00    +0.000 NA
ATOM     16  C   UNL     1       5.091   4.389  19.006  0.00  0.00    +0.000 C 
ATOM     17  C   UNL     1       6.420   4.425  18.164  0.00  0.00    +0.000 C 
ATOM     18  N   UNL     1       6.292   5.102  16.856  0.00  0.00    +0.000 NA
ATOM     19  C   UNL     1       7.344   4.739  15.906  0.00  0.00    +0.000 C 
ATOM     20  C   UNL     1       6.709   4.783  14.521  0.00  0.00    +0.000 C 
ATOM     21  C   UNL     1       5.217   4.678  14.732  0.00  0.00    +0.000 C 
ATOM     22  C   UNL     1       4.997   4.817  16.226  0.00  0.00    +0.000 C 
ATOM     23  C   UNL     1       4.229   3.640  16.884  0.00  0.00    +0.000 C 
ENDBRANCH  14  15
ENDBRANCH   7  14
TORSDOF 2
ENDMDL
MODEL 2
REMARK VINA RESULT:      -7.3      2.078      2.973
REMARK  Name = 
REMARK  3 active torsions:
REMARK  status: ('A' for Active; 'I' for Inactive)
REMARK    1  A    between atoms: C_1  and  C_2
REMARK    2  A    between atoms: C_7  and  C_8
REMARK    3  A    between atoms: C_8  and  N_9
REMARK                            x       y       z     vdW  Elec       q    Type
REMARK                         _______ _______ _______ _____ _____    ______ ____
ROOT
ATOM      1  C   UNL     1      -1.047  12.933  22.949  0.00  0.00    +0.000 C 
ATOM      2  C   UNL     1      -0.683  11.588  22.383  0.00  0.00    +0.000 A 
ATOM      3  C   UNL     1      -0.886  10.420  23.129  0.00  0.00    +0.000 A 
ATOM      4  C   UNL     1      -0.435   9.176  22.656  0.00  0.00    +0.000 A 
ATOM      5  C   UNL     1       0.224   9.100  21.422  0.00  0.00    +0.000 A 
ATOM      6  C   UNL     1       0.933   7.887  20.989  0.00  0.00    +0.000 A 
ATOM      7  C   UNL     1       1.595   7.853  19.807  0.00  0.00    +0.000 A 
ATOM      8  C   UNL     1       1.436   8.993  18.857  0.00  0.00    +0.000 A 
ATOM      9  O   UNL     1       1.814   8.939  17.698  0.00  0.00    +0.000 OA
ATOM     10  N   UNL     1       0.947  10.161  19.381  0.00  0.00    +0.000 N 
ATOM     11  C   UNL     1       0.367  10.255  20.650  0.00  0.00    +0.000 A 
ATOM     12  C   UNL     1      -0.063  11.495  21.128  0.00  0.00    +0.000 A 
ATOM     13  H   UNL     1       0.941  10.955  18.758  0.00  0.00    +0.000 HD
ENDROOT
BRANCH   7  14
ATOM     14  C   UNL     1       2.841   7.013  19.661  0.00  0.00    +0.000 C 
BRANCH  14  15
ATOM     15  N   UNL     1       2.927   5.688  19.020  0.00  0.00    +0.000 NA
ATOM     16  C   UNL     1       3.697   4.665  19.769  0.00  0.00    +0.000 C 
ATOM     17  C   UNL     1       4.961   4.066  19.049  0.00  0.00    +0.000 C 
ATOM     18  N   UNL     1       5.854   5.079  18.447  0.00  0.00    +0.000 NA
ATOM     19  C   UNL     1       6.736   4.539  17.413  0.00  0.00    +0.000 C 
ATOM     20  C   UNL     1       6.939   5.652  16.393  0.00  0.00    +0.000 C 
ATOM     21  C   UNL     1       5.795   6.620  16.585  0.00  0.00    +0.000 C 
ATOM     22  C   UNL     1       5.092   6.187  17.857  0.00  0.00    +0.000 C 
ATOM     23  C   UNL     1       3.579   5.886  17.694  0.00  0.00    +0.000 C 
ENDBRANCH  14  15
ENDBRANCH   7  14
TORSDOF 2
ENDMDL
MODEL 3
REMARK VINA RESULT:      -7.2      3.666      7.290
REMARK  Name = 
REMARK  3 active torsions:
REMARK  status: ('A' for Active; 'I' for Inactive)
REMARK    1  A    between atoms: C_1  and  C_2
REMARK    2  A    between atoms: C_7  and  C_8
REMARK    3  A    between atoms: C_8  and  N_9
REMARK                            x       y       z     vdW  Elec       q    Type
REMARK                         _______ _______ _______ _____ _____    ______ ____
ROOT
ATOM      1  C   UNL     1       7.520   4.732  10.747  0.00  0.00    +0.000 C 
ATOM      2  C   UNL     1       7.027   4.488  12.146  0.00  0.00    +0.000 A 
ATOM      3  C   UNL     1       5.982   3.586  12.388  0.00  0.00    +0.000 A 
ATOM      4  C   UNL     1       5.435   3.447  13.674  0.00  0.00    +0.000 A 
ATOM      5  C   UNL     1       5.940   4.216  14.731  0.00  0.00    +0.000 A 
ATOM      6  C   UNL     1       5.259   4.301  16.031  0.00  0.00    +0.000 A 
ATOM      7  C   UNL     1       5.748   5.083  17.023  0.00  0.00    +0.000 A 
ATOM      8  C   UNL     1       7.094   5.706  16.854  0.00  0.00    +0.000 A 
ATOM      9  O   UNL     1       7.695   6.232  17.778  0.00  0.00    +0.000 OA
ATOM     10  N   UNL     1       7.584   5.765  15.575  0.00  0.00    +0.000 N 
ATOM     11  C   UNL     1       7.026   5.065  14.502  0.00  0.00    +0.000 A 
ATOM     12  C   UNL     1       7.557   5.219  13.219  0.00  0.00    +0.000 A 
ATOM     13  H   UNL     1       8.444   6.280  15.456  0.00  0.00    +0.000 HD
ENDROOT
BRANCH   7  14
ATOM     14  C   UNL     1       4.807   5.749  17.998  0.00  0.00    +0.000 C 
BRANCH  14  15
ATOM     15  N   UNL     1       4.440   5.247  19.334  0.00  0.00    +0.000 NA
ATOM     16  C   UNL     1       5.054   3.955  19.723  0.00  0.00    +0.000 C 
ATOM     17  C   UNL     1       4.067   2.767  20.026  0.00  0.00    +0.000 C 
ATOM     18  N   UNL     1       3.013   2.579  19.007  0.00  0.00    +0.000 NA
ATOM     19  C   UNL     1       1.859   1.823  19.493  0.00  0.00    +0.000 C 
ATOM     20  C   UNL     1       0.641   2.377  18.765  0.00  0.00    +0.000 C 
ATOM     21  C   UNL     1       1.031   3.746  18.261  0.00  0.00    +0.000 C 
ATOM     22  C   UNL     1       2.525   3.864  18.491  0.00  0.00    +0.000 C 
ATOM     23  C   UNL     1       2.959   5.084  19.347  0.00  0.00    +0.000 C 
ENDBRANCH  14  15
ENDBRANCH   7  14
TORSDOF 2
ENDMDL
MODEL 4
REMARK VINA RESULT:      -7.2      2.102      7.472
REMARK  Name = 
REMARK  3 active torsions:
REMARK  status: ('A' for Active; 'I' for Inactive)
REMARK    1  A    between atoms: C_1  and  C_2
REMARK    2  A    between atoms: C_7  and  C_8
REMARK    3  A    between atoms: C_8  and  N_9
REMARK                            x       y       z     vdW  Elec       q    Type
REMARK                         _______ _______ _______ _____ _____    ______ ____
ROOT
ATOM      1  C   UNL     1       7.784   4.639  17.886  0.00  0.00    +0.000 C 
ATOM      2  C   UNL     1       6.431   5.289  17.808  0.00  0.00    +0.000 A 
ATOM      3  C   UNL     1       6.072   6.062  16.696  0.00  0.00    +0.000 A 
ATOM      4  C   UNL     1       4.860   6.771  16.673  0.00  0.00    +0.000 A 
ATOM      5  C   UNL     1       3.995   6.705  17.774  0.00  0.00    +0.000 A 
ATOM      6  C   UNL     1       2.843   7.607  17.918  0.00  0.00    +0.000 A 
ATOM      7  C   UNL     1       2.045   7.547  19.011  0.00  0.00    +0.000 A 
ATOM      8  C   UNL     1       2.229   6.425  19.978  0.00  0.00    +0.000 A 
ATOM      9  O   UNL     1       1.418   6.177  20.856  0.00  0.00    +0.000 OA
ATOM     10  N   UNL     1       3.419   5.749  19.910  0.00  0.00    +0.000 N 
ATOM     11  C   UNL     1       4.323   5.881  18.853  0.00  0.00    +0.000 A 
ATOM     12  C   UNL     1       5.538   5.192  18.885  0.00  0.00    +0.000 A 
ATOM     13  H   UNL     1       3.578   5.063  20.633  0.00  0.00    +0.000 HD
ENDROOT
BRANCH   7  14
ATOM     14  C   UNL     1       1.385   8.799  19.537  0.00  0.00    +0.000 C 
BRANCH  14  15
ATOM     15  N   UNL     1       1.319  10.102  18.852  0.00  0.00    +0.000 NA
ATOM     16  C   UNL     1       1.157  11.282  19.736  0.00  0.00    +0.000 C 
ATOM     17  C   UNL     1      -0.137  12.151  19.523  0.00  0.00    +0.000 C 
ATOM     18  N   UNL     1      -1.387  11.367  19.436  0.00  0.00    +0.000 NA
ATOM     19  C   UNL     1      -2.485  12.087  18.791  0.00  0.00    +0.000 C 
ATOM     20  C   UNL     1      -3.315  11.042  18.057  0.00  0.00    +0.000 C 
ATOM     21  C   UNL     1      -2.422   9.837  17.875  0.00  0.00    +0.000 C 
ATOM     22  C   UNL     1      -1.184  10.108  18.708  0.00  0.00    +0.000 C 
ATOM     23  C   UNL     1       0.154  10.049  17.925  0.00  0.00    +0.000 C 
ENDBRANCH  14  15
ENDBRANCH   7  14
TORSDOF 2
ENDMDL
MODEL 5
REMARK VINA RESULT:      -7.2      1.952      7.819
REMARK  Name = 
REMARK  3 active torsions:
REMARK  status: ('A' for Active; 'I' for Inactive)
REMARK    1  A    between atoms: C_1  and  C_2
REMARK    2  A    between atoms: C_7  and  C_8
REMARK    3  A    between atoms: C_8  and  N_9
REMARK                            x       y       z     vdW  Elec       q    Type
REMARK                         _______ _______ _______ _____ _____    ______ ____
ROOT
ATOM      1  C   UNL     1       7.691   4.416  17.301  0.00  0.00    +0.000 C 
ATOM      2  C   UNL     1       6.392   5.171  17.330  0.00  0.00    +0.000 A 
ATOM      3  C   UNL     1       6.019   5.994  16.259  0.00  0.00    +0.000 A 
ATOM      4  C   UNL     1       4.868   6.796  16.333  0.00  0.00    +0.000 A 
ATOM      5  C   UNL     1       4.080   6.772  17.491  0.00  0.00    +0.000 A 
ATOM      6  C   UNL     1       3.015   7.758  17.731  0.00  0.00    +0.000 A 
ATOM      7  C   UNL     1       2.293   7.736  18.877  0.00  0.00    +0.000 A 
ATOM      8  C   UNL     1       2.453   6.582  19.810  0.00  0.00    +0.000 A 
ATOM      9  O   UNL     1       1.688   6.378  20.739  0.00  0.00    +0.000 OA
ATOM     10  N   UNL     1       3.578   5.816  19.647  0.00  0.00    +0.000 N 
ATOM     11  C   UNL     1       4.415   5.902  18.531  0.00  0.00    +0.000 A 
ATOM     12  C   UNL     1       5.570   5.119  18.465  0.00  0.00    +0.000 A 
ATOM     13  H   UNL     1       3.732   5.104  20.346  0.00  0.00    +0.000 HD
ENDROOT
BRANCH   7  14
ATOM     14  C   UNL     1       1.772   9.024  19.470  0.00  0.00    +0.000 C 
BRANCH  14  15
ATOM     15  N   UNL     1       0.514   9.701  19.109  0.00  0.00    +0.000 NA
ATOM     16  C   UNL     1       0.631  11.150  18.811  0.00  0.00    +0.000 C 
ATOM     17  C   UNL     1      -0.190  12.128  19.731  0.00  0.00    +0.000 C 
ATOM     18  N   UNL     1      -0.049  11.862  21.178  0.00  0.00    +0.000 NA
ATOM     19  C   UNL     1      -1.129  12.431  21.984  0.00  0.00    +0.000 C 
ATOM     20  C   UNL     1      -1.338  11.483  23.158  0.00  0.00    +0.000 C 
ATOM     21  C   UNL     1      -0.739  10.158  22.748  0.00  0.00    +0.000 C 
ATOM     22  C   UNL     1       0.013  10.422  21.458  0.00  0.00    +0.000 C 
ATOM     23  C   UNL     1      -0.418   9.535  20.260  0.00  0.00    +0.000 C 
ENDBRANCH  14  15
ENDBRANCH   7  14
TORSDOF 2
ENDMDL
MODEL 6
REMARK VINA RESULT:      -7.1      1.443      1.946
REMARK  Name = 
REMARK  3 active torsions:
REMARK  status: ('A' for Active; 'I' for Inactive)
REMARK    1  A    between atoms: C_1  and  C_2
REMARK    2  A    between atoms: C_7  and  C_8
REMARK    3  A    between atoms: C_8  and  N_9
REMARK                            x       y       z     vdW  Elec       q    Type
REMARK                         _______ _______ _______ _____ _____    ______ ____
ROOT
ATOM      1  C   UNL     1      -0.570   9.943  20.492  0.00  0.00    +0.000 C 
ATOM      2  C   UNL     1       0.596   9.330  19.769  0.00  0.00    +0.000 A 
ATOM      3  C   UNL     1       1.007   9.825  18.524  0.00  0.00    +0.000 A 
ATOM      4  C   UNL     1       2.015   9.179  17.789  0.00  0.00    +0.000 A 
ATOM      5  C   UNL     1       2.621   8.026  18.306  0.00  0.00    +0.000 A 
ATOM      6  C   UNL     1       3.494   7.170  17.491  0.00  0.00    +0.000 A 
ATOM      7  C   UNL     1       4.037   6.040  18.004  0.00  0.00    +0.000 A 
ATOM      8  C   UNL     1       3.899   5.773  19.466  0.00  0.00    +0.000 A 
ATOM      9  O   UNL     1       4.540   4.906  20.038  0.00  0.00    +0.000 OA
ATOM     10  N   UNL     1       2.925   6.475  20.126  0.00  0.00    +0.000 N 
ATOM     11  C   UNL     1       2.257   7.573  19.576  0.00  0.00    +0.000 A 
ATOM     12  C   UNL     1       1.241   8.203  20.299  0.00  0.00    +0.000 A 
ATOM     13  H   UNL     1       2.768   6.213  21.089  0.00  0.00    +0.000 HD
ENDROOT
BRANCH   7  14
ATOM     14  C   UNL     1       4.285   4.846  17.114  0.00  0.00    +0.000 C 
BRANCH  14  15
ATOM     15  N   UNL     1       5.571   4.149  16.932  0.00  0.00    +0.000 NA
ATOM     16  C   UNL     1       6.772   5.018  16.906  0.00  0.00    +0.000 C 
ATOM     17  C   UNL     1       7.633   4.993  15.590  0.00  0.00    +0.000 C 
ATOM     18  N   UNL     1       6.845   5.124  14.346  0.00  0.00    +0.000 NA
ATOM     19  C   UNL     1       7.547   4.645  13.156  0.00  0.00    +0.000 C 
ATOM     20  C   UNL     1       6.483   4.077  12.225  0.00  0.00    +0.000 C 
ATOM     21  C   UNL     1       5.275   3.785  13.085  0.00  0.00    +0.000 C 
ATOM     22  C   UNL     1       5.568   4.404  14.437  0.00  0.00    +0.000 C 
ATOM     23  C   UNL     1       5.493   3.420  15.635  0.00  0.00    +0.000 C 
ENDBRANCH  14  15
ENDBRANCH   7  14
TORSDOF 2
ENDMDL
MODEL 7
REMARK VINA RESULT:      -7.0      1.269      1.585
REMARK  Name = 
REMARK  3 active torsions:
REMARK  status: ('A' for Active; 'I' for Inactive)
REMARK    1  A    between atoms: C_1  and  C_2
REMARK    2  A    between atoms: C_7  and  C_8
REMARK    3  A    between atoms: C_8  and  N_9
REMARK                            x       y       z     vdW  Elec       q    Type
REMARK                         _______ _______ _______ _____ _____    ______ ____
ROOT
ATOM      1  C   UNL     1      -0.901  11.515  20.923  0.00  0.00    +0.000 C 
ATOM      2  C   UNL     1       0.075  10.590  20.250  0.00  0.00    +0.000 A 
ATOM      3  C   UNL     1       0.623  10.915  19.002  0.00  0.00    +0.000 A 
ATOM      4  C   UNL     1       1.437  10.001  18.313  0.00  0.00    +0.000 A 
ATOM      5  C   UNL     1       1.709   8.748  18.881  0.00  0.00    +0.000 A 
ATOM      6  C   UNL     1       2.340   7.664  18.114  0.00  0.00    +0.000 A 
ATOM      7  C   UNL     1       2.556   6.450  18.676  0.00  0.00    +0.000 A 
ATOM      8  C   UNL     1       2.328   6.282  20.141  0.00  0.00    +0.000 A 
ATOM      9  O   UNL     1       2.708   5.297  20.756  0.00  0.00    +0.000 OA
ATOM     10  N   UNL     1       1.562   7.238  20.755  0.00  0.00    +0.000 N 
ATOM     11  C   UNL     1       1.217   8.453  20.154  0.00  0.00    +0.000 A 
ATOM     12  C   UNL     1       0.391   9.354  20.830  0.00  0.00    +0.000 A 
ATOM     13  H   UNL     1       1.325   7.062  21.720  0.00  0.00    +0.000 HD
ENDROOT
BRANCH   7  14
ATOM     14  C   UNL     1       2.496   5.201  17.829  0.00  0.00    +0.000 C 
BRANCH  14  15
ATOM     15  N   UNL     1       3.631   4.324  17.491  0.00  0.00    +0.000 NA
ATOM     16  C   UNL     1       4.277   3.644  18.639  0.00  0.00    +0.000 C 
ATOM     17  C   UNL     1       5.799   3.963  18.882  0.00  0.00    +0.000 C 
ATOM     18  N   UNL     1       6.129   5.403  18.854  0.00  0.00    +0.000 NA
ATOM     19  C   UNL     1       7.546   5.673  18.613  0.00  0.00    +0.000 C 
ATOM     20  C   UNL     1       7.612   6.976  17.827  0.00  0.00    +0.000 C 
ATOM     21  C   UNL     1       6.249   7.168  17.205  0.00  0.00    +0.000 C 
ATOM     22  C   UNL     1       5.355   6.114  17.828  0.00  0.00    +0.000 C 
ATOM     23  C   UNL     1       4.652   5.172  16.814  0.00  0.00    +0.000 C 
ENDBRANCH  14  15
ENDBRANCH   7  14
TORSDOF 2
ENDMDL
MODEL 8
REMARK VINA RESULT:      -6.9      2.836      7.390
REMARK  Name = 
REMARK  3 active torsions:
REMARK  status: ('A' for Active; 'I' for Inactive)
REMARK    1  A    between atoms: C_1  and  C_2
REMARK    2  A    between atoms: C_7  and  C_8
REMARK    3  A    between atoms: C_8  and  N_9
REMARK                            x       y       z     vdW  Elec       q    Type
REMARK                         _______ _______ _______ _____ _____    ______ ____
ROOT
ATOM      1  C   UNL     1       7.546   4.461  11.032  0.00  0.00    +0.000 C 
ATOM      2  C   UNL     1       6.977   4.332  12.418  0.00  0.00    +0.000 A 
ATOM      3  C   UNL     1       5.846   3.541  12.655  0.00  0.00    +0.000 A 
ATOM      4  C   UNL     1       5.238   3.516  13.921  0.00  0.00    +0.000 A 
ATOM      5  C   UNL     1       5.770   4.288  14.962  0.00  0.00    +0.000 A 
ATOM      6  C   UNL     1       5.049   4.499  16.226  0.00  0.00    +0.000 A 
ATOM      7  C   UNL     1       5.569   5.282  17.202  0.00  0.00    +0.000 A 
ATOM      8  C   UNL     1       6.972   5.771  17.063  0.00  0.00    +0.000 A 
ATOM      9  O   UNL     1       7.582   6.287  17.987  0.00  0.00    +0.000 OA
ATOM     10  N   UNL     1       7.515   5.723  15.806  0.00  0.00    +0.000 N 
ATOM     11  C   UNL     1       6.937   5.023  14.742  0.00  0.00    +0.000 A 
ATOM     12  C   UNL     1       7.530   5.065  13.478  0.00  0.00    +0.000 A 
ATOM     13  H   UNL     1       8.423   6.151  15.700  0.00  0.00    +0.000 HD
ENDROOT
BRANCH   7  14
ATOM     14  C   UNL     1       4.656   6.078  18.103  0.00  0.00    +0.000 C 
BRANCH  14  15
ATOM     15  N   UNL     1       3.194   5.928  18.212  0.00  0.00    +0.000 NA
ATOM     16  C   UNL     1       2.552   6.698  19.305  0.00  0.00    +0.000 C 
ATOM     17  C   UNL     1       1.786   5.866  20.398  0.00  0.00    +0.000 C 
ATOM     18  N   UNL     1       2.544   4.712  20.925  0.00  0.00    +0.000 NA
ATOM     19  C   UNL     1       1.701   3.700  21.561  0.00  0.00    +0.000 C 
ATOM     20  C   UNL     1       2.368   2.355  21.302  0.00  0.00    +0.000 C 
ATOM     21  C   UNL     1       3.289   2.557  20.121  0.00  0.00    +0.000 C 
ATOM     22  C   UNL     1       3.323   4.051  19.870  0.00  0.00    +0.000 C 
ATOM     23  C   UNL     1       2.918   4.481  18.435  0.00  0.00    +0.000 C 
ENDBRANCH  14  15
ENDBRANCH   7  14
TORSDOF 2
ENDMDL
MODEL 9
REMARK VINA RESULT:      -6.8      3.015      8.371
REMARK  Name = 
REMARK  3 active torsions:
REMARK  status: ('A' for Active; 'I' for Inactive)
REMARK    1  A    between atoms: C_1  and  C_2
REMARK    2  A    between atoms: C_7  and  C_8
REMARK    3  A    between atoms: C_8  and  N_9
REMARK                            x       y       z     vdW  Elec       q    Type
REMARK                         _______ _______ _______ _____ _____    ______ ____
ROOT
ATOM      1  C   UNL     1       2.521   2.307  17.862  0.00  0.00    +0.000 C 
ATOM      2  C   UNL     1       2.485   3.594  18.637  0.00  0.00    +0.000 A 
ATOM      3  C   UNL     1       2.437   3.584  20.038  0.00  0.00    +0.000 A 
ATOM      4  C   UNL     1       2.279   4.777  20.761  0.00  0.00    +0.000 A 
ATOM      5  C   UNL     1       2.171   5.995  20.077  0.00  0.00    +0.000 A 
ATOM      6  C   UNL     1       1.760   7.236  20.750  0.00  0.00    +0.000 A 
ATOM      7  C   UNL     1       1.626   8.392  20.057  0.00  0.00    +0.000 A 
ATOM      8  C   UNL     1       2.090   8.441  18.639  0.00  0.00    +0.000 A 
ATOM      9  O   UNL     1       2.209   9.489  18.023  0.00  0.00    +0.000 OA
ATOM     10  N   UNL     1       2.266   7.236  18.012  0.00  0.00    +0.000 N 
ATOM     11  C   UNL     1       2.287   6.010  18.685  0.00  0.00    +0.000 A 
ATOM     12  C   UNL     1       2.423   4.822  17.964  0.00  0.00    +0.000 A 
ATOM     13  H   UNL     1       2.477   7.278  17.025  0.00  0.00    +0.000 HD
ENDROOT
BRANCH   7  14
ATOM     14  C   UNL     1       0.589   9.408  20.470  0.00  0.00    +0.000 C 
BRANCH  14  15
ATOM     15  N   UNL     1       0.703  10.364  21.586  0.00  0.00    +0.000 NA
ATOM     16  C   UNL     1      -0.262  10.171  22.695  0.00  0.00    +0.000 C 
ATOM     17  C   UNL     1      -1.241  11.366  22.994  0.00  0.00    +0.000 C 
ATOM     18  N   UNL     1      -1.902  11.924  21.795  0.00  0.00    +0.000 NA
ATOM     19  C   UNL     1      -2.421  13.277  21.991  0.00  0.00    +0.000 C 
ATOM     20  C   UNL     1      -2.295  13.988  20.650  0.00  0.00    +0.000 C 
ATOM     21  C   UNL     1      -1.266  13.219  19.855  0.00  0.00    +0.000 C 
ATOM     22  C   UNL     1      -0.993  11.953  20.642  0.00  0.00    +0.000 C 
ATOM     23  C   UNL     1       0.496  11.726  21.017  0.00  0.00    +0.000 C 
ENDBRANCH  14  15
ENDBRANCH   7  14
TORSDOF 2
ENDMDL
