MODEL 1
REMARK VINA RESULT:      -8.4      0.000      0.000
REMARK  Name = 
REMARK  3 active torsions:
REMARK  status: ('A' for Active; 'I' for Inactive)
REMARK    1  A    between atoms: C_2  and  C_3
REMARK    2  A    between atoms: C_3  and  N_4
REMARK    3  A    between atoms: N_17  and  C_18
REMARK                            x       y       z     vdW  Elec       q    Type
REMARK                         _______ _______ _______ _____ _____    ______ ____
ROOT
ATOM      1  C   UNL     1       8.118   6.522  18.803  0.00  0.00    +0.000 C 
ENDROOT
BRANCH   1   2
ATOM      2  N   UNL     1       6.891   5.853  18.436  0.00  0.00    +0.000 N 
ATOM      3  N   UNL     1       5.760   5.825  19.238  0.00  0.00    +0.000 NA
ATOM      4  C   UNL     1       4.925   5.107  18.543  0.00  0.00    +0.000 A 
ATOM      5  C   UNL     1       3.599   4.708  18.839  0.00  0.00    +0.000 A 
ATOM      6  S   UNL     1       2.720   5.087  20.228  0.00  0.00    +0.000 S 
ATOM      7  C   UNL     1       1.374   4.166  19.670  0.00  0.00    +0.000 A 
ATOM      8  C   UNL     1       1.608   3.590  18.436  0.00  0.00    +0.000 A 
ATOM      9  C   UNL     1       2.901   3.914  17.965  0.00  0.00    +0.000 A 
ATOM     10  N   UNL     1       3.430   3.453  16.741  0.00  0.00    +0.000 NA
ATOM     11  C   UNL     1       4.651   3.848  16.513  0.00  0.00    +0.000 A 
ATOM     12  N   UNL     1       5.399   4.639  17.361  0.00  0.00    +0.000 N 
ATOM     13  C   UNL     1       6.693   5.100  17.265  0.00  0.00    +0.000 A 
ATOM     14  O   UNL     1       7.493   4.897  16.369  0.00  0.00    +0.000 OA
ENDBRANCH   1   2
BRANCH   1  16
ATOM     15  O   UNL     1       7.312   8.425  17.593  0.00  0.00    +0.000 OA
ATOM     16  C   UNL     1       8.170   7.985  18.364  0.00  0.00    +0.000 C 
ATOM     17  N   UNL     1       9.122   8.735  19.033  0.00  0.00    +0.000 N 
ATOM     18  H   UNL     1       9.728   8.196  19.650  0.00  0.00    +0.000 HD
BRANCH  17  19
ATOM     19  C   UNL     1       9.137  10.132  19.210  0.00  0.00    +0.000 A 
ATOM     20  C   UNL     1       9.174  10.753  20.476  0.00  0.00    +0.000 A 
ATOM     21  C   UNL     1       9.533  12.099  20.608  0.00  0.00    +0.000 A 
ATOM     22  C   UNL     1       9.862  12.772  19.457  0.00  0.00    +0.000 A 
ATOM     23  C   UNL     1       9.711  12.199  18.212  0.00  0.00    +0.000 A 
ATOM     24  C   UNL     1       9.307  10.895  18.050  0.00  0.00    +0.000 A 
ATOM     25  O   UNL     1      10.189  13.004  17.220  0.00  0.00    +0.000 OA
ATOM     26  C   UNL     1      11.007  13.869  18.035  0.00  0.00    +0.000 C 
ATOM     27  O   UNL     1      10.493  13.977  19.382  0.00  0.00    +0.000 OA
ENDBRANCH  17  19
ENDBRANCH   1  16
TORSDOF 3
ENDMDL
MODEL 2
REMARK VINA RESULT:      -8.0      5.382      7.250
REMARK  Name = 
REMARK  3 active torsions:
REMARK  status: ('A' for Active; 'I' for Inactive)
REMARK    1  A    between atoms: C_2  and  C_3
REMARK    2  A    between atoms: C_3  and  N_4
REMARK    3  A    between atoms: N_17  and  C_18
REMARK                            x       y       z     vdW  Elec       q    Type
REMARK                         _______ _______ _______ _____ _____    ______ ____
ROOT
ATOM      1  C   UNL     1       2.774   8.566  17.410  0.00  0.00    +0.000 C 
ENDROOT
BRANCH   1   2
ATOM      2  N   UNL     1       3.137   7.277  17.952  0.00  0.00    +0.000 N 
ATOM      3  N   UNL     1       2.321   6.539  18.797  0.00  0.00    +0.000 NA
ATOM      4  C   UNL     1       3.041   5.485  19.054  0.00  0.00    +0.000 A 
ATOM      5  C   UNL     1       2.758   4.365  19.872  0.00  0.00    +0.000 A 
ATOM      6  S   UNL     1       1.348   4.097  20.760  0.00  0.00    +0.000 S 
ATOM      7  C   UNL     1       1.979   2.618  21.381  0.00  0.00    +0.000 A 
ATOM      8  C   UNL     1       3.246   2.346  20.902  0.00  0.00    +0.000 A 
ATOM      9  C   UNL     1       3.685   3.366  20.028  0.00  0.00    +0.000 A 
ATOM     10  N   UNL     1       4.948   3.373  19.399  0.00  0.00    +0.000 NA
ATOM     11  C   UNL     1       5.160   4.421  18.655  0.00  0.00    +0.000 A 
ATOM     12  N   UNL     1       4.265   5.457  18.472  0.00  0.00    +0.000 N 
ATOM     13  C   UNL     1       4.367   6.625  17.750  0.00  0.00    +0.000 A 
ATOM     14  O   UNL     1       5.314   7.015  17.089  0.00  0.00    +0.000 OA
ENDBRANCH   1   2
BRANCH   1  16
ATOM     15  O   UNL     1       0.447   9.130  17.455  0.00  0.00    +0.000 OA
ATOM     16  C   UNL     1       1.526   9.169  18.054  0.00  0.00    +0.000 C 
ATOM     17  N   UNL     1       1.714   9.570  19.365  0.00  0.00    +0.000 N 
ATOM     18  H   UNL     1       2.676   9.507  19.693  0.00  0.00    +0.000 HD
BRANCH  17  19
ATOM     19  C   UNL     1       0.726   9.730  20.357  0.00  0.00    +0.000 A 
ATOM     20  C   UNL     1       0.646   8.919  21.509  0.00  0.00    +0.000 A 
ATOM     21  C   UNL     1      -0.111   9.316  22.617  0.00  0.00    +0.000 A 
ATOM     22  C   UNL     1      -0.746  10.530  22.535  0.00  0.00    +0.000 A 
ATOM     23  C   UNL     1      -0.764  11.264  21.368  0.00  0.00    +0.000 A 
ATOM     24  C   UNL     1      -0.075  10.871  20.246  0.00  0.00    +0.000 A 
ATOM     25  O   UNL     1      -1.365  12.477  21.538  0.00  0.00    +0.000 OA
ATOM     26  C   UNL     1      -1.292  12.542  22.977  0.00  0.00    +0.000 C 
ATOM     27  O   UNL     1      -1.295  11.224  23.572  0.00  0.00    +0.000 OA
ENDBRANCH  17  19
ENDBRANCH   1  16
TORSDOF 3
ENDMDL
MODEL 3
REMARK VINA RESULT:      -7.8      1.174      1.245
REMARK  Name = 
REMARK  3 active torsions:
REMARK  status: ('A' for Active; 'I' for Inactive)
REMARK    1  A    between atoms: C_2  and  C_3
REMARK    2  A    between atoms: C_3  and  N_4
REMARK    3  A    between atoms: N_17  and  C_18
REMARK                            x       y       z     vdW  Elec       q    Type
REMARK                         _______ _______ _______ _____ _____    ______ ____
ROOT
ATOM      1  C   UNL     1       7.284   6.948  16.786  0.00  0.00    +0.000 C 
ENDROOT
BRANCH   1   2
ATOM      2  N   UNL     1       6.211   6.063  17.177  0.00  0.00    +0.000 N 
ATOM      3  N   UNL     1       5.205   6.417  18.064  0.00  0.00    +0.000 NA
ATOM      4  C   UNL     1       4.489   5.333  18.144  0.00  0.00    +0.000 A 
ATOM      5  C   UNL     1       3.327   5.061  18.906  0.00  0.00    +0.000 A 
ATOM      6  S   UNL     1       2.534   6.126  19.947  0.00  0.00    +0.000 S 
ATOM      7  C   UNL     1       1.384   4.914  20.367  0.00  0.00    +0.000 A 
ATOM      8  C   UNL     1       1.613   3.721  19.708  0.00  0.00    +0.000 A 
ATOM      9  C   UNL     1       2.742   3.821  18.863  0.00  0.00    +0.000 A 
ATOM     10  N   UNL     1       3.232   2.757  18.076  0.00  0.00    +0.000 NA
ATOM     11  C   UNL     1       4.300   3.056  17.393  0.00  0.00    +0.000 A 
ATOM     12  N   UNL     1       4.932   4.284  17.406  0.00  0.00    +0.000 N 
ATOM     13  C   UNL     1       6.069   4.725  16.768  0.00  0.00    +0.000 A 
ATOM     14  O   UNL     1       6.797   4.096  16.019  0.00  0.00    +0.000 OA
ENDBRANCH   1   2
BRANCH   1  16
ATOM     15  O   UNL     1       8.440   7.231  18.864  0.00  0.00    +0.000 OA
ATOM     16  C   UNL     1       7.837   7.784  17.939  0.00  0.00    +0.000 C 
ATOM     17  N   UNL     1       7.738   9.150  17.736  0.00  0.00    +0.000 N 
ATOM     18  H   UNL     1       7.221   9.417  16.900  0.00  0.00    +0.000 HD
BRANCH  17  19
ATOM     19  C   UNL     1       8.514  10.160  18.337  0.00  0.00    +0.000 A 
ATOM     20  C   UNL     1       9.263   9.963  19.516  0.00  0.00    +0.000 A 
ATOM     21  C   UNL     1      10.275  10.857  19.884  0.00  0.00    +0.000 A 
ATOM     22  C   UNL     1      10.511  11.912  19.039  0.00  0.00    +0.000 A 
ATOM     23  C   UNL     1       9.702  12.169  17.953  0.00  0.00    +0.000 A 
ATOM     24  C   UNL     1       8.666  11.338  17.599  0.00  0.00    +0.000 A 
ATOM     25  O   UNL     1      10.175  13.203  17.198  0.00  0.00    +0.000 OA
ATOM     26  C   UNL     1      11.528  13.217  17.696  0.00  0.00    +0.000 C 
ATOM     27  O   UNL     1      11.603  12.728  19.055  0.00  0.00    +0.000 OA
ENDBRANCH  17  19
ENDBRANCH   1  16
TORSDOF 3
ENDMDL
MODEL 4
REMARK VINA RESULT:      -7.7      0.993      1.630
REMARK  Name = 
REMARK  3 active torsions:
REMARK  status: ('A' for Active; 'I' for Inactive)
REMARK    1  A    between atoms: C_2  and  C_3
REMARK    2  A    between atoms: C_3  and  N_4
REMARK    3  A    between atoms: N_17  and  C_18
REMARK                            x       y       z     vdW  Elec       q    Type
REMARK                         _______ _______ _______ _____ _____    ______ ____
ROOT
ATOM      1  C   UNL     1       8.059   6.568  18.951  0.00  0.00    +0.000 C 
ENDROOT
BRANCH   1   2
ATOM      2  N   UNL     1       6.850   5.896  18.532  0.00  0.00    +0.000 N 
ATOM      3  N   UNL     1       5.702   5.822  19.307  0.00  0.00    +0.000 NA
ATOM      4  C   UNL     1       4.893   5.119  18.567  0.00  0.00    +0.000 A 
ATOM      5  C   UNL     1       3.567   4.692  18.818  0.00  0.00    +0.000 A 
ATOM      6  S   UNL     1       2.653   5.004  20.201  0.00  0.00    +0.000 S 
ATOM      7  C   UNL     1       1.333   4.087  19.578  0.00  0.00    +0.000 A 
ATOM      8  C   UNL     1       1.602   3.562  18.329  0.00  0.00    +0.000 A 
ATOM      9  C   UNL     1       2.899   3.922  17.900  0.00  0.00    +0.000 A 
ATOM     10  N   UNL     1       3.461   3.516  16.671  0.00  0.00    +0.000 NA
ATOM     11  C   UNL     1       4.681   3.936  16.485  0.00  0.00    +0.000 A 
ATOM     12  N   UNL     1       5.399   4.705  17.379  0.00  0.00    +0.000 N 
ATOM     13  C   UNL     1       6.688   5.187  17.329  0.00  0.00    +0.000 A 
ATOM     14  O   UNL     1       7.510   5.029  16.443  0.00  0.00    +0.000 OA
ENDBRANCH   1   2
BRANCH   1  16
ATOM     15  O   UNL     1       7.386   8.389  17.550  0.00  0.00    +0.000 OA
ATOM     16  C   UNL     1       8.205   7.976  18.377  0.00  0.00    +0.000 C 
ATOM     17  N   UNL     1       9.190   8.730  18.991  0.00  0.00    +0.000 N 
ATOM     18  H   UNL     1       9.753   8.219  19.669  0.00  0.00    +0.000 HD
BRANCH  17  19
ATOM     19  C   UNL     1       9.285  10.135  19.035  0.00  0.00    +0.000 A 
ATOM     20  C   UNL     1       9.028  10.964  17.923  0.00  0.00    +0.000 A 
ATOM     21  C   UNL     1       8.794  12.335  18.085  0.00  0.00    +0.000 A 
ATOM     22  C   UNL     1       8.808  12.821  19.369  0.00  0.00    +0.000 A 
ATOM     23  C   UNL     1       9.175  12.035  20.440  0.00  0.00    +0.000 A 
ATOM     24  C   UNL     1       9.464  10.699  20.303  0.00  0.00    +0.000 A 
ATOM     25  O   UNL     1       9.024  12.689  21.628  0.00  0.00    +0.000 OA
ATOM     26  C   UNL     1       8.140  13.735  21.174  0.00  0.00    +0.000 C 
ATOM     27  O   UNL     1       8.343  14.036  19.775  0.00  0.00    +0.000 OA
ENDBRANCH  17  19
ENDBRANCH   1  16
TORSDOF 3
ENDMDL
MODEL 5
REMARK VINA RESULT:      -7.7      6.566      9.768
REMARK  Name = 
REMARK  3 active torsions:
REMARK  status: ('A' for Active; 'I' for Inactive)
REMARK    1  A    between atoms: C_2  and  C_3
REMARK    2  A    between atoms: C_3  and  N_4
REMARK    3  A    between atoms: N_17  and  C_18
REMARK                            x       y       z     vdW  Elec       q    Type
REMARK                         _______ _______ _______ _____ _____    ______ ____
ROOT
ATOM      1  C   UNL     1       2.023   9.524  17.889  0.00  0.00    +0.000 C 
ENDROOT
BRANCH   1   2
ATOM      2  N   UNL     1       0.820  10.206  18.308  0.00  0.00    +0.000 N 
ATOM      3  N   UNL     1      -0.450   9.875  17.858  0.00  0.00    +0.000 NA
ATOM      4  C   UNL     1      -1.210  10.744  18.459  0.00  0.00    +0.000 A 
ATOM      5  C   UNL     1      -2.612  10.929  18.393  0.00  0.00    +0.000 A 
ATOM      6  S   UNL     1      -3.706  10.023  17.482  0.00  0.00    +0.000 S 
ATOM      7  C   UNL     1      -5.018  11.001  18.020  0.00  0.00    +0.000 A 
ATOM      8  C   UNL     1      -4.610  11.997  18.887  0.00  0.00    +0.000 A 
ATOM      9  C   UNL     1      -3.214  11.942  19.095  0.00  0.00    +0.000 A 
ATOM     10  N   UNL     1      -2.506  12.845  19.917  0.00  0.00    +0.000 NA
ATOM     11  C   UNL     1      -1.221  12.633  19.947  0.00  0.00    +0.000 A 
ATOM     12  N   UNL     1      -0.566  11.634  19.254  0.00  0.00    +0.000 N 
ATOM     13  C   UNL     1       0.771  11.317  19.168  0.00  0.00    +0.000 A 
ATOM     14  O   UNL     1       1.708  11.877  19.711  0.00  0.00    +0.000 OA
ENDBRANCH   1   2
BRANCH   1  16
ATOM     15  O   UNL     1       1.717   8.044  19.747  0.00  0.00    +0.000 OA
ATOM     16  C   UNL     1       2.312   8.252  18.685  0.00  0.00    +0.000 C 
ATOM     17  N   UNL     1       3.127   7.351  18.022  0.00  0.00    +0.000 N 
ATOM     18  H   UNL     1       3.509   7.695  17.143  0.00  0.00    +0.000 HD
BRANCH  17  19
ATOM     19  C   UNL     1       3.219   5.963  18.241  0.00  0.00    +0.000 A 
ATOM     20  C   UNL     1       4.201   5.372  19.065  0.00  0.00    +0.000 A 
ATOM     21  C   UNL     1       4.055   4.060  19.531  0.00  0.00    +0.000 A 
ATOM     22  C   UNL     1       2.912   3.393  19.166  0.00  0.00    +0.000 A 
ATOM     23  C   UNL     1       2.014   3.928  18.268  0.00  0.00    +0.000 A 
ATOM     24  C   UNL     1       2.160   5.193  17.750  0.00  0.00    +0.000 A 
ATOM     25  O   UNL     1       0.907   3.143  18.125  0.00  0.00    +0.000 OA
ATOM     26  C   UNL     1       1.056   2.360  19.327  0.00  0.00    +0.000 C 
ATOM     27  O   UNL     1       2.443   2.239  19.717  0.00  0.00    +0.000 OA
ENDBRANCH  17  19
ENDBRANCH   1  16
TORSDOF 3
ENDMDL
MODEL 6
REMARK VINA RESULT:      -7.7      6.747     10.106
REMARK  Name = 
REMARK  3 active torsions:
REMARK  status: ('A' for Active; 'I' for Inactive)
REMARK    1  A    between atoms: C_2  and  C_3
REMARK    2  A    between atoms: C_3  and  N_4
REMARK    3  A    between atoms: N_17  and  C_18
REMARK                            x       y       z     vdW  Elec       q    Type
REMARK                         _______ _______ _______ _____ _____    ______ ____
ROOT
ATOM      1  C   UNL     1       1.674   9.370  19.561  0.00  0.00    +0.000 C 
ENDROOT
BRANCH   1   2
ATOM      2  N   UNL     1       0.399  10.051  19.535  0.00  0.00    +0.000 N 
ATOM      3  N   UNL     1      -0.530   9.905  18.516  0.00  0.00    +0.000 NA
ATOM      4  C   UNL     1      -1.493  10.703  18.880  0.00  0.00    +0.000 A 
ATOM      5  C   UNL     1      -2.721  11.002  18.242  0.00  0.00    +0.000 A 
ATOM      6  S   UNL     1      -3.278  10.365  16.782  0.00  0.00    +0.000 S 
ATOM      7  C   UNL     1      -4.708  11.322  16.871  0.00  0.00    +0.000 A 
ATOM      8  C   UNL     1      -4.746  12.106  18.008  0.00  0.00    +0.000 A 
ATOM      9  C   UNL     1      -3.589  11.909  18.794  0.00  0.00    +0.000 A 
ATOM     10  N   UNL     1      -3.336  12.588  20.005  0.00  0.00    +0.000 NA
ATOM     11  C   UNL     1      -2.197  12.278  20.555  0.00  0.00    +0.000 A 
ATOM     12  N   UNL     1      -1.285  11.379  20.038  0.00  0.00    +0.000 N 
ATOM     13  C   UNL     1      -0.046  10.984  20.488  0.00  0.00    +0.000 A 
ATOM     14  O   UNL     1       0.542  11.362  21.487  0.00  0.00    +0.000 OA
ENDBRANCH   1   2
BRANCH   1  16
ATOM     15  O   UNL     1       0.822   7.921  21.267  0.00  0.00    +0.000 OA
ATOM     16  C   UNL     1       1.655   8.073  20.369  0.00  0.00    +0.000 C 
ATOM     17  N   UNL     1       2.508   7.099  19.880  0.00  0.00    +0.000 N 
ATOM     18  H   UNL     1       3.108   7.406  19.116  0.00  0.00    +0.000 HD
BRANCH  17  19
ATOM     19  C   UNL     1       2.417   5.708  20.078  0.00  0.00    +0.000 A 
ATOM     20  C   UNL     1       1.226   5.056  20.463  0.00  0.00    +0.000 A 
ATOM     21  C   UNL     1       1.081   3.672  20.314  0.00  0.00    +0.000 A 
ATOM     22  C   UNL     1       2.138   2.991  19.763  0.00  0.00    +0.000 A 
ATOM     23  C   UNL     1       3.342   3.609  19.499  0.00  0.00    +0.000 A 
ATOM     24  C   UNL     1       3.530   4.957  19.687  0.00  0.00    +0.000 A 
ATOM     25  O   UNL     1       4.215   2.773  18.865  0.00  0.00    +0.000 OA
ATOM     26  C   UNL     1       3.263   1.790  18.409  0.00  0.00    +0.000 C 
ATOM     27  O   UNL     1       2.112   1.716  19.282  0.00  0.00    +0.000 OA
ENDBRANCH  17  19
ENDBRANCH   1  16
TORSDOF 3
ENDMDL
MODEL 7
REMARK VINA RESULT:      -7.7      6.385      9.789
REMARK  Name = 
REMARK  3 active torsions:
REMARK  status: ('A' for Active; 'I' for Inactive)
REMARK    1  A    between atoms: C_2  and  C_3
REMARK    2  A    between atoms: C_3  and  N_4
REMARK    3  A    between atoms: N_17  and  C_18
REMARK                            x       y       z     vdW  Elec       q    Type
REMARK                         _______ _______ _______ _____ _____    ______ ____
ROOT
ATOM      1  C   UNL     1       2.144   9.116  18.676  0.00  0.00    +0.000 C 
ENDROOT
BRANCH   1   2
ATOM      2  N   UNL     1       0.856   9.768  18.749  0.00  0.00    +0.000 N 
ATOM      3  N   UNL     1      -0.128   9.640  17.780  0.00  0.00    +0.000 NA
ATOM      4  C   UNL     1      -1.084  10.400  18.230  0.00  0.00    +0.000 A 
ATOM      5  C   UNL     1      -2.353  10.695  17.676  0.00  0.00    +0.000 A 
ATOM      6  S   UNL     1      -2.980  10.103  16.225  0.00  0.00    +0.000 S 
ATOM      7  C   UNL     1      -4.423  11.022  16.434  0.00  0.00    +0.000 A 
ATOM      8  C   UNL     1      -4.412  11.759  17.603  0.00  0.00    +0.000 A 
ATOM      9  C   UNL     1      -3.207  11.559  18.313  0.00  0.00    +0.000 A 
ATOM     10  N   UNL     1      -2.899  12.195  19.535  0.00  0.00    +0.000 NA
ATOM     11  C   UNL     1      -1.723  11.891  20.005  0.00  0.00    +0.000 A 
ATOM     12  N   UNL     1      -0.825  11.035  19.401  0.00  0.00    +0.000 N 
ATOM     13  C   UNL     1       0.447  10.652  19.763  0.00  0.00    +0.000 A 
ATOM     14  O   UNL     1       1.083  11.004  20.742  0.00  0.00    +0.000 OA
ENDBRANCH   1   2
BRANCH   1  16
ATOM     15  O   UNL     1       1.597   7.605  20.450  0.00  0.00    +0.000 OA
ATOM     16  C   UNL     1       2.181   7.757  19.373  0.00  0.00    +0.000 C 
ATOM     17  N   UNL     1       2.756   6.754  18.611  0.00  0.00    +0.000 N 
ATOM     18  H   UNL     1       3.169   7.072  17.736  0.00  0.00    +0.000 HD
BRANCH  17  19
ATOM     19  C   UNL     1       2.553   5.367  18.738  0.00  0.00    +0.000 A 
ATOM     20  C   UNL     1       1.777   4.611  17.834  0.00  0.00    +0.000 A 
ATOM     21  C   UNL     1       1.880   3.216  17.787  0.00  0.00    +0.000 A 
ATOM     22  C   UNL     1       2.780   2.629  18.642  0.00  0.00    +0.000 A 
ATOM     23  C   UNL     1       3.449   3.355  19.603  0.00  0.00    +0.000 A 
ATOM     24  C   UNL     1       3.324   4.720  19.709  0.00  0.00    +0.000 A 
ATOM     25  O   UNL     1       4.361   2.594  20.274  0.00  0.00    +0.000 OA
ATOM     26  C   UNL     1       4.459   1.511  19.326  0.00  0.00    +0.000 C 
ATOM     27  O   UNL     1       3.235   1.346  18.575  0.00  0.00    +0.000 OA
ENDBRANCH  17  19
ENDBRANCH   1  16
TORSDOF 3
ENDMDL
MODEL 8
REMARK VINA RESULT:      -7.7      1.317      1.864
REMARK  Name = 
REMARK  3 active torsions:
REMARK  status: ('A' for Active; 'I' for Inactive)
REMARK    1  A    between atoms: C_2  and  C_3
REMARK    2  A    between atoms: C_3  and  N_4
REMARK    3  A    between atoms: N_17  and  C_18
REMARK                            x       y       z     vdW  Elec       q    Type
REMARK                         _______ _______ _______ _____ _____    ______ ____
ROOT
ATOM      1  C   UNL     1       7.413   7.450  16.816  0.00  0.00    +0.000 C 
ENDROOT
BRANCH   1   2
ATOM      2  N   UNL     1       6.410   6.467  17.156  0.00  0.00    +0.000 N 
ATOM      3  N   UNL     1       5.332   6.723  17.990  0.00  0.00    +0.000 NA
ATOM      4  C   UNL     1       4.719   5.576  18.039  0.00  0.00    +0.000 A 
ATOM      5  C   UNL     1       3.551   5.195  18.743  0.00  0.00    +0.000 A 
ATOM      6  S   UNL     1       2.609   6.179  19.738  0.00  0.00    +0.000 S 
ATOM      7  C   UNL     1       1.559   4.863  20.105  0.00  0.00    +0.000 A 
ATOM      8  C   UNL     1       1.933   3.698  19.463  0.00  0.00    +0.000 A 
ATOM      9  C   UNL     1       3.088   3.905  18.676  0.00  0.00    +0.000 A 
ATOM     10  N   UNL     1       3.716   2.893  17.919  0.00  0.00    +0.000 NA
ATOM     11  C   UNL     1       4.784   3.292  17.289  0.00  0.00    +0.000 A 
ATOM     12  N   UNL     1       5.295   4.574  17.329  0.00  0.00    +0.000 N 
ATOM     13  C   UNL     1       6.416   5.122  16.747  0.00  0.00    +0.000 A 
ATOM     14  O   UNL     1       7.238   4.566  16.038  0.00  0.00    +0.000 OA
ENDBRANCH   1   2
BRANCH   1  16
ATOM     15  O   UNL     1       8.531   7.375  18.932  0.00  0.00    +0.000 OA
ATOM     16  C   UNL     1       8.078   8.091  18.033  0.00  0.00    +0.000 C 
ATOM     17  N   UNL     1       8.253   9.459  17.919  0.00  0.00    +0.000 N 
ATOM     18  H   UNL     1       7.827   9.872  17.091  0.00  0.00    +0.000 HD
BRANCH  17  19
ATOM     19  C   UNL     1       9.190  10.258  18.602  0.00  0.00    +0.000 A 
ATOM     20  C   UNL     1      10.171  11.034  17.948  0.00  0.00    +0.000 A 
ATOM     21  C   UNL     1      10.841  12.063  18.620  0.00  0.00    +0.000 A 
ATOM     22  C   UNL     1      10.487  12.288  19.926  0.00  0.00    +0.000 A 
ATOM     23  C   UNL     1       9.617  11.455  20.597  0.00  0.00    +0.000 A 
ATOM     24  C   UNL     1       8.985  10.404  19.978  0.00  0.00    +0.000 A 
ATOM     25  O   UNL     1       9.330  11.919  21.848  0.00  0.00    +0.000 OA
ATOM     26  C   UNL     1       9.757  13.284  21.662  0.00  0.00    +0.000 C 
ATOM     27  O   UNL     1      10.802  13.387  20.668  0.00  0.00    +0.000 OA
ENDBRANCH  17  19
ENDBRANCH   1  16
TORSDOF 3
ENDMDL
MODEL 9
REMARK VINA RESULT:      -7.6      6.268      8.824
REMARK  Name = 
REMARK  3 active torsions:
REMARK  status: ('A' for Active; 'I' for Inactive)
REMARK    1  A    between atoms: C_2  and  C_3
REMARK    2  A    between atoms: C_3  and  N_4
REMARK    3  A    between atoms: N_17  and  C_18
REMARK                            x       y       z     vdW  Elec       q    Type
REMARK                         _______ _______ _______ _____ _____    ______ ____
ROOT
ATOM      1  C   UNL     1       1.216   9.234  18.039  0.00  0.00    +0.000 C 
ENDROOT
BRANCH   1   2
ATOM      2  N   UNL     1       1.102  10.399  18.887  0.00  0.00    +0.000 N 
ATOM      3  N   UNL     1       0.211  10.496  19.945  0.00  0.00    +0.000 NA
ATOM      4  C   UNL     1       0.426  11.696  20.402  0.00  0.00    +0.000 A 
ATOM      5  C   UNL     1      -0.187  12.389  21.473  0.00  0.00    +0.000 A 
ATOM      6  S   UNL     1      -1.407  11.805  22.482  0.00  0.00    +0.000 S 
ATOM      7  C   UNL     1      -1.468  13.302  23.333  0.00  0.00    +0.000 A 
ATOM      8  C   UNL     1      -0.559  14.221  22.844  0.00  0.00    +0.000 A 
ATOM      9  C   UNL     1       0.177  13.678  21.768  0.00  0.00    +0.000 A 
ATOM     10  N   UNL     1       1.166  14.388  21.054  0.00  0.00    +0.000 NA
ATOM     11  C   UNL     1       1.703  13.708  20.080  0.00  0.00    +0.000 A 
ATOM     12  N   UNL     1       1.367  12.414  19.738  0.00  0.00    +0.000 N 
ATOM     13  C   UNL     1       1.822  11.596  18.728  0.00  0.00    +0.000 A 
ATOM     14  O   UNL     1       2.658  11.852  17.879  0.00  0.00    +0.000 OA
ENDBRANCH   1   2
BRANCH   1  16
ATOM     15  O   UNL     1       2.169   7.697  19.608  0.00  0.00    +0.000 OA
ATOM     16  C   UNL     1       2.279   8.241  18.505  0.00  0.00    +0.000 C 
ATOM     17  N   UNL     1       3.209   7.921  17.531  0.00  0.00    +0.000 N 
ATOM     18  H   UNL     1       3.126   8.462  16.673  0.00  0.00    +0.000 HD
BRANCH  17  19
ATOM     19  C   UNL     1       4.007   6.762  17.463  0.00  0.00    +0.000 A 
ATOM     20  C   UNL     1       3.487   5.455  17.577  0.00  0.00    +0.000 A 
ATOM     21  C   UNL     1       4.232   4.345  17.165  0.00  0.00    +0.000 A 
ATOM     22  C   UNL     1       5.472   4.591  16.630  0.00  0.00    +0.000 A 
ATOM     23  C   UNL     1       6.025   5.854  16.628  0.00  0.00    +0.000 A 
ATOM     24  C   UNL     1       5.338   6.955  17.078  0.00  0.00    +0.000 A 
ATOM     25  O   UNL     1       7.216   5.887  15.963  0.00  0.00    +0.000 OA
ATOM     26  C   UNL     1       7.073   4.655  15.226  0.00  0.00    +0.000 C 
ATOM     27  O   UNL     1       6.236   3.708  15.927  0.00  0.00    +0.000 OA
ENDBRANCH  17  19
ENDBRANCH   1  16
TORSDOF 3
ENDMDL
