MODEL 1
REMARK VINA RESULT:      -8.2      0.000      0.000
REMARK  Name = 
REMARK  5 active torsions:
REMARK  status: ('A' for Active; 'I' for Inactive)
REMARK    1  A    between atoms: C_1  and  C_2
REMARK    2  A    between atoms: C_2  and  C_3
REMARK    3  A    between atoms: C_2  and  C_4
REMARK    4  A    between atoms: C_2  and  C_5
REMARK    5  A    between atoms: C_10  and  C_12
REMARK                            x       y       z     vdW  Elec       q    Type
REMARK                         _______ _______ _______ _____ _____    ______ ____
ROOT
ATOM      1  C   UNL     1       6.642   5.529  17.162  0.00  0.00    +0.000 A 
ATOM      2  C   UNL     1       6.891   4.759  18.288  0.00  0.00    +0.000 A 
ATOM      3  S   UNL     1       7.920   5.603  19.375  0.00  0.00    +0.000 S 
ATOM      4  C   UNL     1       7.892   6.941  18.321  0.00  0.00    +0.000 A 
ATOM      5  N   UNL     1       8.586   8.037  18.762  0.00  0.00    +0.000 N 
ATOM      6  C   UNL     1       8.400   9.263  18.161  0.00  0.00    +0.000 C 
ATOM      7  O   UNL     1       7.614   9.526  17.257  0.00  0.00    +0.000 OA
ATOM      8  N   UNL     1       7.223   6.786  17.210  0.00  0.00    +0.000 NA
ATOM      9  H   UNL     1       9.106   7.933  19.614  0.00  0.00    +0.000 HD
ENDROOT
BRANCH   6  10
ATOM     10  C   UNL     1       9.201  10.392  18.704  0.00  0.00    +0.000 A 
ATOM     11  C   UNL     1       9.365  10.619  20.071  0.00  0.00    +0.000 A 
ATOM     12  C   UNL     1      10.204  11.655  20.496  0.00  0.00    +0.000 A 
ATOM     13  C   UNL     1      10.880  12.466  19.590  0.00  0.00    +0.000 A 
ATOM     14  N   UNL     1      11.695  13.437  20.042  0.00  0.00    +0.000 NA
ATOM     15  C   UNL     1      12.333  14.171  19.101  0.00  0.00    +0.000 A 
ATOM     16  C   UNL     1      12.157  13.956  17.753  0.00  0.00    +0.000 A 
ATOM     17  N   UNL     1      11.336  12.991  17.282  0.00  0.00    +0.000 NA
ATOM     18  C   UNL     1      10.705  12.242  18.204  0.00  0.00    +0.000 A 
ATOM     19  C   UNL     1       9.872  11.215  17.785  0.00  0.00    +0.000 A 
ENDBRANCH   6  10
BRANCH   1  21
ATOM     20  C   UNL     1       6.705   4.520  14.832  0.00  0.00    +0.000 C 
ATOM     21  C   UNL     1       5.834   5.170  15.923  0.00  0.00    +0.000 C 
ATOM     22  C   UNL     1       5.197   6.444  15.330  0.00  0.00    +0.000 C 
ATOM     23  C   UNL     1       4.709   4.183  16.294  0.00  0.00    +0.000 C 
ENDBRANCH   1  21
TORSDOF 2
ENDMDL
MODEL 2
REMARK VINA RESULT:      -8.1      0.294      1.001
REMARK  Name = 
REMARK  5 active torsions:
REMARK  status: ('A' for Active; 'I' for Inactive)
REMARK    1  A    between atoms: C_1  and  C_2
REMARK    2  A    between atoms: C_2  and  C_3
REMARK    3  A    between atoms: C_2  and  C_4
REMARK    4  A    between atoms: C_2  and  C_5
REMARK    5  A    between atoms: C_10  and  C_12
REMARK                            x       y       z     vdW  Elec       q    Type
REMARK                         _______ _______ _______ _____ _____    ______ ____
ROOT
ATOM      1  C   UNL     1       6.734   5.652  17.140  0.00  0.00    +0.000 A 
ATOM      2  C   UNL     1       6.984   4.868  18.257  0.00  0.00    +0.000 A 
ATOM      3  S   UNL     1       7.991   5.709  19.367  0.00  0.00    +0.000 S 
ATOM      4  C   UNL     1       7.953   7.063  18.334  0.00  0.00    +0.000 A 
ATOM      5  N   UNL     1       8.628   8.162  18.799  0.00  0.00    +0.000 N 
ATOM      6  C   UNL     1       8.430   9.394  18.216  0.00  0.00    +0.000 C 
ATOM      7  O   UNL     1       7.649   9.660  17.308  0.00  0.00    +0.000 OA
ATOM      8  N   UNL     1       7.297   6.917  17.214  0.00  0.00    +0.000 NA
ATOM      9  H   UNL     1       9.142   8.051  19.654  0.00  0.00    +0.000 HD
ENDROOT
BRANCH   6  10
ATOM     10  C   UNL     1       9.211  10.526  18.784  0.00  0.00    +0.000 A 
ATOM     11  C   UNL     1       9.541  10.616  20.137  0.00  0.00    +0.000 A 
ATOM     12  C   UNL     1      10.349  11.672  20.573  0.00  0.00    +0.000 A 
ATOM     13  C   UNL     1      10.834  12.633  19.693  0.00  0.00    +0.000 A 
ATOM     14  N   UNL     1      11.628  13.620  20.151  0.00  0.00    +0.000 NA
ATOM     15  C   UNL     1      12.076  14.506  19.232  0.00  0.00    +0.000 A 
ATOM     16  C   UNL     1      11.735  14.423  17.901  0.00  0.00    +0.000 A 
ATOM     17  N   UNL     1      10.933  13.444  17.424  0.00  0.00    +0.000 NA
ATOM     18  C   UNL     1      10.490  12.546  18.323  0.00  0.00    +0.000 A 
ATOM     19  C   UNL     1       9.688  11.500  17.893  0.00  0.00    +0.000 A 
ENDBRANCH   6  10
BRANCH   1  21
ATOM     20  C   UNL     1       5.118   6.497  15.372  0.00  0.00    +0.000 C 
ATOM     21  C   UNL     1       5.943   5.303  15.888  0.00  0.00    +0.000 C 
ATOM     22  C   UNL     1       4.968   4.146  16.194  0.00  0.00    +0.000 C 
ATOM     23  C   UNL     1       6.901   4.857  14.765  0.00  0.00    +0.000 C 
ENDBRANCH   1  21
TORSDOF 2
ENDMDL
MODEL 3
REMARK VINA RESULT:      -7.7      6.923      8.513
REMARK  Name = 
REMARK  5 active torsions:
REMARK  status: ('A' for Active; 'I' for Inactive)
REMARK    1  A    between atoms: C_1  and  C_2
REMARK    2  A    between atoms: C_2  and  C_3
REMARK    3  A    between atoms: C_2  and  C_4
REMARK    4  A    between atoms: C_2  and  C_5
REMARK    5  A    between atoms: C_10  and  C_12
REMARK                            x       y       z     vdW  Elec       q    Type
REMARK                         _______ _______ _______ _____ _____    ______ ____
ROOT
ATOM      1  C   UNL     1       4.564   5.147  17.772  0.00  0.00    +0.000 A 
ATOM      2  C   UNL     1       4.319   3.975  18.472  0.00  0.00    +0.000 A 
ATOM      3  S   UNL     1       3.318   4.287  19.833  0.00  0.00    +0.000 S 
ATOM      4  C   UNL     1       3.220   5.918  19.353  0.00  0.00    +0.000 A 
ATOM      5  N   UNL     1       2.421   6.704  20.142  0.00  0.00    +0.000 N 
ATOM      6  C   UNL     1       2.022   7.947  19.702  0.00  0.00    +0.000 C 
ATOM      7  O   UNL     1       2.266   8.455  18.613  0.00  0.00    +0.000 OA
ATOM      8  N   UNL     1       3.910   6.252  18.296  0.00  0.00    +0.000 NA
ATOM      9  H   UNL     1       2.033   6.278  20.964  0.00  0.00    +0.000 HD
ENDROOT
BRANCH   6  10
ATOM     10  C   UNL     1       1.161   8.730  20.630  0.00  0.00    +0.000 A 
ATOM     11  C   UNL     1       1.188   8.561  22.014  0.00  0.00    +0.000 A 
ATOM     12  C   UNL     1       0.406   9.397  22.820  0.00  0.00    +0.000 A 
ATOM     13  C   UNL     1      -0.395  10.395  22.276  0.00  0.00    +0.000 A 
ATOM     14  N   UNL     1      -1.114  11.193  23.088  0.00  0.00    +0.000 NA
ATOM     15  C   UNL     1      -1.854  12.152  22.486  0.00  0.00    +0.000 A 
ATOM     16  C   UNL     1      -1.890  12.307  21.119  0.00  0.00    +0.000 A 
ATOM     17  N   UNL     1      -1.182  11.510  20.288  0.00  0.00    +0.000 NA
ATOM     18  C   UNL     1      -0.429  10.560  20.870  0.00  0.00    +0.000 A 
ATOM     19  C   UNL     1       0.345   9.729  20.074  0.00  0.00    +0.000 A 
ENDBRANCH   6  10
BRANCH   1  21
ATOM     20  C   UNL     1       6.931   5.423  16.895  0.00  0.00    +0.000 C 
ATOM     21  C   UNL     1       5.434   5.358  16.541  0.00  0.00    +0.000 C 
ATOM     22  C   UNL     1       5.047   6.683  15.851  0.00  0.00    +0.000 C 
ATOM     23  C   UNL     1       5.224   4.201  15.542  0.00  0.00    +0.000 C 
ENDBRANCH   1  21
TORSDOF 2
ENDMDL
MODEL 4
REMARK VINA RESULT:      -7.6      6.439      9.294
REMARK  Name = 
REMARK  5 active torsions:
REMARK  status: ('A' for Active; 'I' for Inactive)
REMARK    1  A    between atoms: C_1  and  C_2
REMARK    2  A    between atoms: C_2  and  C_3
REMARK    3  A    between atoms: C_2  and  C_4
REMARK    4  A    between atoms: C_2  and  C_5
REMARK    5  A    between atoms: C_10  and  C_12
REMARK                            x       y       z     vdW  Elec       q    Type
REMARK                         _______ _______ _______ _____ _____    ______ ____
ROOT
ATOM      1  C   UNL     1      -0.126  11.109  20.201  0.00  0.00    +0.000 A 
ATOM      2  C   UNL     1      -0.018  10.773  21.542  0.00  0.00    +0.000 A 
ATOM      3  S   UNL     1       0.812   9.280  21.721  0.00  0.00    +0.000 S 
ATOM      4  C   UNL     1       1.035   9.232  20.033  0.00  0.00    +0.000 A 
ATOM      5  N   UNL     1       1.756   8.160  19.577  0.00  0.00    +0.000 N 
ATOM      6  C   UNL     1       2.257   8.157  18.293  0.00  0.00    +0.000 C 
ATOM      7  O   UNL     1       2.173   9.062  17.470  0.00  0.00    +0.000 OA
ATOM      8  N   UNL     1       0.498  10.208  19.352  0.00  0.00    +0.000 NA
ATOM      9  H   UNL     1       2.019   7.467  20.254  0.00  0.00    +0.000 HD
ENDROOT
BRANCH   6  10
ATOM     10  C   UNL     1       3.022   6.948  17.886  0.00  0.00    +0.000 A 
ATOM     11  C   UNL     1       2.550   5.650  18.082  0.00  0.00    +0.000 A 
ATOM     12  C   UNL     1       3.296   4.571  17.593  0.00  0.00    +0.000 A 
ATOM     13  C   UNL     1       4.495   4.759  16.915  0.00  0.00    +0.000 A 
ATOM     14  N   UNL     1       5.169   3.695  16.441  0.00  0.00    +0.000 NA
ATOM     15  C   UNL     1       6.317   3.959  15.774  0.00  0.00    +0.000 A 
ATOM     16  C   UNL     1       6.788   5.240  15.596  0.00  0.00    +0.000 A 
ATOM     17  N   UNL     1       6.128   6.320  16.073  0.00  0.00    +0.000 NA
ATOM     18  C   UNL     1       4.977   6.076  16.724  0.00  0.00    +0.000 A 
ATOM     19  C   UNL     1       4.238   7.143  17.211  0.00  0.00    +0.000 A 
ENDBRANCH   6  10
BRANCH   1  21
ATOM     20  C   UNL     1       0.143  13.486  19.347  0.00  0.00    +0.000 C 
ATOM     21  C   UNL     1      -0.823  12.307  19.571  0.00  0.00    +0.000 C 
ATOM     22  C   UNL     1      -1.962  12.791  20.493  0.00  0.00    +0.000 C 
ATOM     23  C   UNL     1      -1.426  11.911  18.208  0.00  0.00    +0.000 C 
ENDBRANCH   1  21
TORSDOF 2
ENDMDL
MODEL 5
REMARK VINA RESULT:      -7.5      7.019      8.450
REMARK  Name = 
REMARK  5 active torsions:
REMARK  status: ('A' for Active; 'I' for Inactive)
REMARK    1  A    between atoms: C_1  and  C_2
REMARK    2  A    between atoms: C_2  and  C_3
REMARK    3  A    between atoms: C_2  and  C_4
REMARK    4  A    between atoms: C_2  and  C_5
REMARK    5  A    between atoms: C_10  and  C_12
REMARK                            x       y       z     vdW  Elec       q    Type
REMARK                         _______ _______ _______ _____ _____    ______ ____
ROOT
ATOM      1  C   UNL     1       4.327   5.067  18.132  0.00  0.00    +0.000 A 
ATOM      2  C   UNL     1       3.987   3.920  18.833  0.00  0.00    +0.000 A 
ATOM      3  S   UNL     1       2.935   4.304  20.136  0.00  0.00    +0.000 S 
ATOM      4  C   UNL     1       2.945   5.930  19.630  0.00  0.00    +0.000 A 
ATOM      5  N   UNL     1       2.148   6.767  20.367  0.00  0.00    +0.000 N 
ATOM      6  C   UNL     1       1.836   8.022  19.891  0.00  0.00    +0.000 C 
ATOM      7  O   UNL     1       2.162   8.500  18.810  0.00  0.00    +0.000 OA
ATOM      8  N   UNL     1       3.705   6.212  18.607  0.00  0.00    +0.000 NA
ATOM      9  H   UNL     1       1.698   6.374  21.173  0.00  0.00    +0.000 HD
ENDROOT
BRANCH   6  10
ATOM     10  C   UNL     1       0.970   8.861  20.762  0.00  0.00    +0.000 A 
ATOM     11  C   UNL     1       0.296   8.357  21.875  0.00  0.00    +0.000 A 
ATOM     12  C   UNL     1      -0.430   9.233  22.689  0.00  0.00    +0.000 A 
ATOM     13  C   UNL     1      -0.497  10.595  22.419  0.00  0.00    +0.000 A 
ATOM     14  N   UNL     1      -1.188  11.407  23.241  0.00  0.00    +0.000 NA
ATOM     15  C   UNL     1      -1.190  12.722  22.924  0.00  0.00    +0.000 A 
ATOM     16  C   UNL     1      -0.538  13.215  21.817  0.00  0.00    +0.000 A 
ATOM     17  N   UNL     1       0.154  12.414  20.976  0.00  0.00    +0.000 NA
ATOM     18  C   UNL     1       0.179  11.105  21.285  0.00  0.00    +0.000 A 
ATOM     19  C   UNL     1       0.897  10.235  20.479  0.00  0.00    +0.000 A 
ENDBRANCH   6  10
BRANCH   1  21
ATOM     20  C   UNL     1       5.096   6.571  16.235  0.00  0.00    +0.000 C 
ATOM     21  C   UNL     1       5.269   5.215  16.945  0.00  0.00    +0.000 C 
ATOM     22  C   UNL     1       4.990   4.098  15.918  0.00  0.00    +0.000 C 
ATOM     23  C   UNL     1       6.733   5.100  17.415  0.00  0.00    +0.000 C 
ENDBRANCH   1  21
TORSDOF 2
ENDMDL
MODEL 6
REMARK VINA RESULT:      -7.5      7.387      8.630
REMARK  Name = 
REMARK  5 active torsions:
REMARK  status: ('A' for Active; 'I' for Inactive)
REMARK    1  A    between atoms: C_1  and  C_2
REMARK    2  A    between atoms: C_2  and  C_3
REMARK    3  A    between atoms: C_2  and  C_4
REMARK    4  A    between atoms: C_2  and  C_5
REMARK    5  A    between atoms: C_10  and  C_12
REMARK                            x       y       z     vdW  Elec       q    Type
REMARK                         _______ _______ _______ _____ _____    ______ ____
ROOT
ATOM      1  C   UNL     1       3.776   4.956  18.843  0.00  0.00    +0.000 A 
ATOM      2  C   UNL     1       3.312   3.890  19.600  0.00  0.00    +0.000 A 
ATOM      3  S   UNL     1       2.257   4.448  20.836  0.00  0.00    +0.000 S 
ATOM      4  C   UNL     1       2.429   6.031  20.233  0.00  0.00    +0.000 A 
ATOM      5  N   UNL     1       1.687   6.981  20.885  0.00  0.00    +0.000 N 
ATOM      6  C   UNL     1       1.505   8.224  20.323  0.00  0.00    +0.000 C 
ATOM      7  O   UNL     1       1.907   8.601  19.227  0.00  0.00    +0.000 OA
ATOM      8  N   UNL     1       3.245   6.179  19.223  0.00  0.00    +0.000 NA
ATOM      9  H   UNL     1       1.178   6.681  21.697  0.00  0.00    +0.000 HD
ENDROOT
BRANCH   6  10
ATOM     10  C   UNL     1       0.691   9.191  21.108  0.00  0.00    +0.000 A 
ATOM     11  C   UNL     1      -0.075   8.817  22.213  0.00  0.00    +0.000 A 
ATOM     12  C   UNL     1      -0.745   9.803  22.945  0.00  0.00    +0.000 A 
ATOM     13  C   UNL     1      -0.667  11.148  22.600  0.00  0.00    +0.000 A 
ATOM     14  N   UNL     1      -1.309  12.068  23.346  0.00  0.00    +0.000 NA
ATOM     15  C   UNL     1      -1.169  13.357  22.960  0.00  0.00    +0.000 A 
ATOM     16  C   UNL     1      -0.427  13.722  21.860  0.00  0.00    +0.000 A 
ATOM     17  N   UNL     1       0.217  12.812  21.095  0.00  0.00    +0.000 NA
ATOM     18  C   UNL     1       0.102  11.526  21.474  0.00  0.00    +0.000 A 
ATOM     19  C   UNL     1       0.764  10.546  20.749  0.00  0.00    +0.000 A 
ENDBRANCH   6  10
BRANCH   1  21
ATOM     20  C   UNL     1       6.200   4.638  18.155  0.00  0.00    +0.000 C 
ATOM     21  C   UNL     1       4.765   4.944  17.686  0.00  0.00    +0.000 C 
ATOM     22  C   UNL     1       4.772   6.322  16.993  0.00  0.00    +0.000 C 
ATOM     23  C   UNL     1       4.356   3.874  16.654  0.00  0.00    +0.000 C 
ENDBRANCH   1  21
TORSDOF 2
ENDMDL
MODEL 7
REMARK VINA RESULT:      -7.5      6.522      8.471
REMARK  Name = 
REMARK  5 active torsions:
REMARK  status: ('A' for Active; 'I' for Inactive)
REMARK    1  A    between atoms: C_1  and  C_2
REMARK    2  A    between atoms: C_2  and  C_3
REMARK    3  A    between atoms: C_2  and  C_4
REMARK    4  A    between atoms: C_2  and  C_5
REMARK    5  A    between atoms: C_10  and  C_12
REMARK                            x       y       z     vdW  Elec       q    Type
REMARK                         _______ _______ _______ _____ _____    ______ ____
ROOT
ATOM      1  C   UNL     1       4.693   4.999  17.598  0.00  0.00    +0.000 A 
ATOM      2  C   UNL     1       4.344   4.039  18.536  0.00  0.00    +0.000 A 
ATOM      3  S   UNL     1       3.246   4.695  19.684  0.00  0.00    +0.000 S 
ATOM      4  C   UNL     1       3.253   6.159  18.815  0.00  0.00    +0.000 A 
ATOM      5  N   UNL     1       2.423   7.130  19.313  0.00  0.00    +0.000 N 
ATOM      6  C   UNL     1       2.112   8.234  18.551  0.00  0.00    +0.000 C 
ATOM      7  O   UNL     1       2.467   8.454  17.397  0.00  0.00    +0.000 OA
ATOM      8  N   UNL     1       4.042   6.210  17.776  0.00  0.00    +0.000 NA
ATOM      9  H   UNL     1       1.952   6.925  20.176  0.00  0.00    +0.000 HD
ENDROOT
BRANCH   6  10
ATOM     10  C   UNL     1       1.209   9.236  19.178  0.00  0.00    +0.000 A 
ATOM     11  C   UNL     1       0.531  10.210  18.445  0.00  0.00    +0.000 A 
ATOM     12  C   UNL     1      -0.364  11.061  19.104  0.00  0.00    +0.000 A 
ATOM     13  C   UNL     1      -0.596  10.960  20.471  0.00  0.00    +0.000 A 
ATOM     14  N   UNL     1      -1.482  11.784  21.062  0.00  0.00    +0.000 NA
ATOM     15  C   UNL     1      -1.669  11.612  22.391  0.00  0.00    +0.000 A 
ATOM     16  C   UNL     1      -0.986  10.660  23.114  0.00  0.00    +0.000 A 
ATOM     17  N   UNL     1      -0.087   9.830  22.540  0.00  0.00    +0.000 NA
ATOM     18  C   UNL     1       0.100   9.978  21.216  0.00  0.00    +0.000 A 
ATOM     19  C   UNL     1       0.987   9.137  20.561  0.00  0.00    +0.000 A 
ENDBRANCH   6  10
BRANCH   1  21
ATOM     20  C   UNL     1       5.475   6.011  15.403  0.00  0.00    +0.000 C 
ATOM     21  C   UNL     1       5.670   4.885  16.436  0.00  0.00    +0.000 C 
ATOM     22  C   UNL     1       5.467   3.536  15.716  0.00  0.00    +0.000 C 
ATOM     23  C   UNL     1       7.119   4.954  16.957  0.00  0.00    +0.000 C 
ENDBRANCH   1  21
TORSDOF 2
ENDMDL
MODEL 8
REMARK VINA RESULT:      -7.4      7.460      8.916
REMARK  Name = 
REMARK  5 active torsions:
REMARK  status: ('A' for Active; 'I' for Inactive)
REMARK    1  A    between atoms: C_1  and  C_2
REMARK    2  A    between atoms: C_2  and  C_3
REMARK    3  A    between atoms: C_2  and  C_4
REMARK    4  A    between atoms: C_2  and  C_5
REMARK    5  A    between atoms: C_10  and  C_12
REMARK                            x       y       z     vdW  Elec       q    Type
REMARK                         _______ _______ _______ _____ _____    ______ ____
ROOT
ATOM      1  C   UNL     1       3.962   5.016  18.656  0.00  0.00    +0.000 A 
ATOM      2  C   UNL     1       3.541   3.908  19.375  0.00  0.00    +0.000 A 
ATOM      3  S   UNL     1       2.449   4.378  20.617  0.00  0.00    +0.000 S 
ATOM      4  C   UNL     1       2.553   5.985  20.062  0.00  0.00    +0.000 A 
ATOM      5  N   UNL     1       1.762   6.879  20.735  0.00  0.00    +0.000 N 
ATOM      6  C   UNL     1       1.526   8.130  20.207  0.00  0.00    +0.000 C 
ATOM      7  O   UNL     1       1.921   8.557  19.127  0.00  0.00    +0.000 OA
ATOM      8  N   UNL     1       3.370   6.201  19.066  0.00  0.00    +0.000 NA
ATOM      9  H   UNL     1       1.259   6.532  21.531  0.00  0.00    +0.000 HD
ENDROOT
BRANCH   6  10
ATOM     10  C   UNL     1       0.660   9.033  21.011  0.00  0.00    +0.000 A 
ATOM     11  C   UNL     1       0.512   8.910  22.393  0.00  0.00    +0.000 A 
ATOM     12  C   UNL     1      -0.256   9.854  23.084  0.00  0.00    +0.000 A 
ATOM     13  C   UNL     1      -0.875  10.913  22.429  0.00  0.00    +0.000 A 
ATOM     14  N   UNL     1      -1.587  11.812  23.135  0.00  0.00    +0.000 NA
ATOM     15  C   UNL     1      -2.142  12.825  22.431  0.00  0.00    +0.000 A 
ATOM     16  C   UNL     1      -2.008  12.935  21.066  0.00  0.00    +0.000 A 
ATOM     17  N   UNL     1      -1.304  12.037  20.340  0.00  0.00    +0.000 NA
ATOM     18  C   UNL     1      -0.732  11.032  21.026  0.00  0.00    +0.000 A 
ATOM     19  C   UNL     1       0.028  10.094  20.344  0.00  0.00    +0.000 A 
ENDBRANCH   6  10
BRANCH   1  21
ATOM     20  C   UNL     1       4.684   4.015  16.436  0.00  0.00    +0.000 C 
ATOM     21  C   UNL     1       4.961   5.085  17.509  0.00  0.00    +0.000 C 
ATOM     22  C   UNL     1       6.389   4.862  18.049  0.00  0.00    +0.000 C 
ATOM     23  C   UNL     1       4.897   6.471  16.836  0.00  0.00    +0.000 C 
ENDBRANCH   1  21
TORSDOF 2
ENDMDL
MODEL 9
REMARK VINA RESULT:      -7.3      6.788      8.610
REMARK  Name = 
REMARK  5 active torsions:
REMARK  status: ('A' for Active; 'I' for Inactive)
REMARK    1  A    between atoms: C_1  and  C_2
REMARK    2  A    between atoms: C_2  and  C_3
REMARK    3  A    between atoms: C_2  and  C_4
REMARK    4  A    between atoms: C_2  and  C_5
REMARK    5  A    between atoms: C_10  and  C_12
REMARK                            x       y       z     vdW  Elec       q    Type
REMARK                         _______ _______ _______ _____ _____    ______ ____
ROOT
ATOM      1  C   UNL     1       4.657   5.704  17.792  0.00  0.00    +0.000 A 
ATOM      2  C   UNL     1       4.176   4.686  18.602  0.00  0.00    +0.000 A 
ATOM      3  S   UNL     1       2.859   5.247  19.553  0.00  0.00    +0.000 S 
ATOM      4  C   UNL     1       2.972   6.755  18.770  0.00  0.00    +0.000 A 
ATOM      5  N   UNL     1       2.027   7.673  19.149  0.00  0.00    +0.000 N 
ATOM      6  C   UNL     1       1.820   8.807  18.394  0.00  0.00    +0.000 C 
ATOM      7  O   UNL     1       2.375   9.098  17.340  0.00  0.00    +0.000 OA
ATOM      8  N   UNL     1       3.938   6.885  17.902  0.00  0.00    +0.000 NA
ATOM      9  H   UNL     1       1.411   7.409  19.897  0.00  0.00    +0.000 HD
ENDROOT
BRANCH   6  10
ATOM     10  C   UNL     1       0.778   9.747  18.887  0.00  0.00    +0.000 A 
ATOM     11  C   UNL     1      -0.315  10.142  18.114  0.00  0.00    +0.000 A 
ATOM     12  C   UNL     1      -1.293  10.964  18.685  0.00  0.00    +0.000 A 
ATOM     13  C   UNL     1      -1.205  11.398  20.003  0.00  0.00    +0.000 A 
ATOM     14  N   UNL     1      -2.180  12.169  20.519  0.00  0.00    +0.000 NA
ATOM     15  C   UNL     1      -2.034  12.535  21.814  0.00  0.00    +0.000 A 
ATOM     16  C   UNL     1      -0.947  12.158  22.569  0.00  0.00    +0.000 A 
ATOM     17  N   UNL     1       0.045  11.390  22.065  0.00  0.00    +0.000 NA
ATOM     18  C   UNL     1      -0.091  11.005  20.783  0.00  0.00    +0.000 A 
ATOM     19  C   UNL     1       0.877  10.191  20.215  0.00  0.00    +0.000 A 
ENDBRANCH   6  10
BRANCH   1  21
ATOM     20  C   UNL     1       6.556   4.320  16.831  0.00  0.00    +0.000 C 
ATOM     21  C   UNL     1       5.837   5.681  16.831  0.00  0.00    +0.000 C 
ATOM     22  C   UNL     1       6.860   6.763  17.237  0.00  0.00    +0.000 C 
ATOM     23  C   UNL     1       5.354   5.972  15.396  0.00  0.00    +0.000 C 
ENDBRANCH   1  21
TORSDOF 2
ENDMDL
