MODEL 1
REMARK VINA RESULT:      -8.4      0.000      0.000
REMARK  Name = 
REMARK  7 active torsions:
REMARK  status: ('A' for Active; 'I' for Inactive)
REMARK    1  A    between atoms: C_1  and  O_2
REMARK    2  A    between atoms: O_2  and  C_3
REMARK    3  A    between atoms: C_3  and  C_5
REMARK    4  A    between atoms: C_9  and  C_12
REMARK    5  A    between atoms: N_10  and  O_11
REMARK    6  A    between atoms: C_17  and  O_18
REMARK    7  A    between atoms: O_18  and  C_19
REMARK                            x       y       z     vdW  Elec       q    Type
REMARK                         _______ _______ _______ _____ _____    ______ ____
ROOT
ATOM      1  C   UNL     1       3.425   4.374  19.324  0.00  0.00    +0.000 A 
ATOM      2  C   UNL     1       2.950   3.084  19.046  0.00  0.00    +0.000 A 
ATOM      3  C   UNL     1       1.641   2.736  19.367  0.00  0.00    +0.000 A 
ATOM      4  C   UNL     1       0.848   3.684  19.983  0.00  0.00    +0.000 A 
ATOM      5  N   UNL     1       1.268   4.928  20.280  0.00  0.00    +0.000 NA
ATOM      6  C   UNL     1       2.538   5.272  19.916  0.00  0.00    +0.000 A 
ENDROOT
BRANCH   1  11
ATOM      7  C   UNL     1       5.412   5.192  14.834  0.00  0.00    +0.000 C 
ATOM      8  C   UNL     1       5.474   6.353  15.843  0.00  0.00    +0.000 C 
ATOM      9  C   UNL     1       6.030   5.914  17.199  0.00  0.00    +0.000 C 
ATOM     10  N   UNL     1       5.227   4.788  17.669  0.00  0.00    +0.000 N 
ATOM     11  C   UNL     1       4.863   4.679  19.004  0.00  0.00    +0.000 C 
ATOM     12  N   UNL     1       5.637   4.821  20.048  0.00  0.00    +0.000 NA
ATOM     13  C   UNL     1       5.320   3.601  16.823  0.00  0.00    +0.000 C 
ATOM     14  C   UNL     1       4.765   3.938  15.441  0.00  0.00    +0.000 C 
BRANCH   7  15
ATOM     15  C   UNL     1       6.788   4.878  14.273  0.00  0.00    +0.000 C 
ATOM     16  O   UNL     1       7.773   5.595  14.379  0.00  0.00    +0.000 OA
BRANCH  15  18
ATOM     17  C   UNL     1       6.760   3.824  12.179  0.00  0.00    +0.000 C 
ATOM     18  O   UNL     1       6.758   3.694  13.600  0.00  0.00    +0.000 OA
ENDBRANCH  15  18
ENDBRANCH   7  15
BRANCH  12  19
ATOM     19  O   UNL     1       6.978   5.042  19.718  0.00  0.00    +0.000 OA
ATOM     20  H   UNL     1       6.929   5.180  18.757  0.00  0.00    +0.000 HD
ENDBRANCH  12  19
ENDBRANCH   1  11
BRANCH   6  21
ATOM     21  O   UNL     1       2.945   6.564  20.217  0.00  0.00    +0.000 OA
BRANCH  21  22
ATOM     22  C   UNL     1       2.209   7.591  19.665  0.00  0.00    +0.000 A 
ATOM     23  C   UNL     1       1.433   8.377  20.513  0.00  0.00    +0.000 A 
ATOM     24  F   UNL     1       1.415   8.137  21.832  0.00  0.00    +0.000 F 
ATOM     25  C   UNL     1       0.671   9.438  20.017  0.00  0.00    +0.000 A 
ATOM     26  C   UNL     1       0.686   9.728  18.652  0.00  0.00    +0.000 A 
ATOM     27  C   UNL     1       1.494   8.979  17.799  0.00  0.00    +0.000 A 
ATOM     28  C   UNL     1       2.265   7.937  18.310  0.00  0.00    +0.000 A 
ATOM     29  F   UNL     1       3.098   7.299  17.473  0.00  0.00    +0.000 F 
ENDBRANCH  21  22
ENDBRANCH   6  21
TORSDOF 6
ENDMDL
MODEL 2
REMARK VINA RESULT:      -8.3      0.115      1.564
REMARK  Name = 
REMARK  7 active torsions:
REMARK  status: ('A' for Active; 'I' for Inactive)
REMARK    1  A    between atoms: C_1  and  O_2
REMARK    2  A    between atoms: O_2  and  C_3
REMARK    3  A    between atoms: C_3  and  C_5
REMARK    4  A    between atoms: C_9  and  C_12
REMARK    5  A    between atoms: N_10  and  O_11
REMARK    6  A    between atoms: C_17  and  O_18
REMARK    7  A    between atoms: O_18  and  C_19
REMARK                            x       y       z     vdW  Elec       q    Type
REMARK                         _______ _______ _______ _____ _____    ______ ____
ROOT
ATOM      1  C   UNL     1       3.463   4.469  19.377  0.00  0.00    +0.000 A 
ATOM      2  C   UNL     1       2.961   3.177  19.165  0.00  0.00    +0.000 A 
ATOM      3  C   UNL     1       1.648   2.871  19.510  0.00  0.00    +0.000 A 
ATOM      4  C   UNL     1       0.877   3.862  20.084  0.00  0.00    +0.000 A 
ATOM      5  N   UNL     1       1.323   5.110  20.319  0.00  0.00    +0.000 NA
ATOM      6  C   UNL     1       2.596   5.412  19.931  0.00  0.00    +0.000 A 
ENDROOT
BRANCH   1  11
ATOM      7  C   UNL     1       5.404   5.218  14.856  0.00  0.00    +0.000 C 
ATOM      8  C   UNL     1       5.516   6.379  15.860  0.00  0.00    +0.000 C 
ATOM      9  C   UNL     1       6.079   5.926  17.209  0.00  0.00    +0.000 C 
ATOM     10  N   UNL     1       5.251   4.826  17.694  0.00  0.00    +0.000 N 
ATOM     11  C   UNL     1       4.904   4.730  19.035  0.00  0.00    +0.000 C 
ATOM     12  N   UNL     1       5.698   4.852  20.067  0.00  0.00    +0.000 NA
ATOM     13  C   UNL     1       5.295   3.635  16.850  0.00  0.00    +0.000 C 
ATOM     14  C   UNL     1       4.729   3.985  15.475  0.00  0.00    +0.000 C 
BRANCH   7  15
ATOM     15  C   UNL     1       6.761   4.862  14.275  0.00  0.00    +0.000 C 
ATOM     16  O   UNL     1       7.766   5.552  14.358  0.00  0.00    +0.000 OA
BRANCH  15  18
ATOM     17  C   UNL     1       6.713   3.788  12.191  0.00  0.00    +0.000 C 
ATOM     18  O   UNL     1       6.688   3.673  13.613  0.00  0.00    +0.000 OA
ENDBRANCH  15  18
ENDBRANCH   7  15
BRANCH  12  19
ATOM     19  O   UNL     1       7.040   5.032  19.715  0.00  0.00    +0.000 OA
ATOM     20  H   UNL     1       7.499   4.756  20.525  0.00  0.00    +0.000 HD
ENDBRANCH  12  19
ENDBRANCH   1  11
BRANCH   6  21
ATOM     21  O   UNL     1       3.030   6.709  20.167  0.00  0.00    +0.000 OA
BRANCH  21  22
ATOM     22  C   UNL     1       2.235   7.727  19.685  0.00  0.00    +0.000 A 
ATOM     23  C   UNL     1       2.248   7.983  18.316  0.00  0.00    +0.000 A 
ATOM     24  F   UNL     1       3.013   7.247  17.496  0.00  0.00    +0.000 F 
ATOM     25  C   UNL     1       1.458   8.994  17.764  0.00  0.00    +0.000 A 
ATOM     26  C   UNL     1       0.634   9.762  18.588  0.00  0.00    +0.000 A 
ATOM     27  C   UNL     1       0.577   9.486  19.952  0.00  0.00    +0.000 A 
ATOM     28  C   UNL     1       1.354   8.461  20.486  0.00  0.00    +0.000 A 
ATOM     29  F   UNL     1       1.203   8.167  21.788  0.00  0.00    +0.000 F 
ENDBRANCH  21  22
ENDBRANCH   6  21
TORSDOF 6
ENDMDL
MODEL 3
REMARK VINA RESULT:      -6.9      0.820      1.614
REMARK  Name = 
REMARK  7 active torsions:
REMARK  status: ('A' for Active; 'I' for Inactive)
REMARK    1  A    between atoms: C_1  and  O_2
REMARK    2  A    between atoms: O_2  and  C_3
REMARK    3  A    between atoms: C_3  and  C_5
REMARK    4  A    between atoms: C_9  and  C_12
REMARK    5  A    between atoms: N_10  and  O_11
REMARK    6  A    between atoms: C_17  and  O_18
REMARK    7  A    between atoms: O_18  and  C_19
REMARK                            x       y       z     vdW  Elec       q    Type
REMARK                         _______ _______ _______ _____ _____    ______ ____
ROOT
ATOM      1  C   UNL     1       3.555   4.218  19.100  0.00  0.00    +0.000 A 
ATOM      2  C   UNL     1       3.290   2.928  19.583  0.00  0.00    +0.000 A 
ATOM      3  C   UNL     1       1.988   2.555  19.904  0.00  0.00    +0.000 A 
ATOM      4  C   UNL     1       0.987   3.494  19.757  0.00  0.00    +0.000 A 
ATOM      5  N   UNL     1       1.199   4.747  19.312  0.00  0.00    +0.000 NA
ATOM      6  C   UNL     1       2.472   5.085  18.954  0.00  0.00    +0.000 A 
ENDROOT
BRANCH   1  11
ATOM      7  C   UNL     1       5.609   5.195  14.673  0.00  0.00    +0.000 C 
ATOM      8  C   UNL     1       5.602   6.338  15.703  0.00  0.00    +0.000 C 
ATOM      9  C   UNL     1       6.145   5.896  17.063  0.00  0.00    +0.000 C 
ATOM     10  N   UNL     1       5.376   4.732  17.495  0.00  0.00    +0.000 N 
ATOM     11  C   UNL     1       4.987   4.584  18.819  0.00  0.00    +0.000 C 
ATOM     12  N   UNL     1       5.732   4.736  19.883  0.00  0.00    +0.000 NA
ATOM     13  C   UNL     1       5.534   3.565  16.631  0.00  0.00    +0.000 C 
ATOM     14  C   UNL     1       4.998   3.906  15.242  0.00  0.00    +0.000 C 
BRANCH   7  15
ATOM     15  C   UNL     1       7.008   4.945  14.138  0.00  0.00    +0.000 C 
ATOM     16  O   UNL     1       7.984   5.644  14.364  0.00  0.00    +0.000 OA
BRANCH  15  18
ATOM     17  C   UNL     1       6.941   4.131  11.940  0.00  0.00    +0.000 C 
ATOM     18  O   UNL     1       7.011   3.843  13.336  0.00  0.00    +0.000 OA
ENDBRANCH  15  18
ENDBRANCH   7  15
BRANCH  12  19
ATOM     19  O   UNL     1       7.070   5.015  19.587  0.00  0.00    +0.000 OA
ATOM     20  H   UNL     1       6.999   5.447  18.721  0.00  0.00    +0.000 HD
ENDBRANCH  12  19
ENDBRANCH   1  11
BRANCH   6  21
ATOM     21  O   UNL     1       2.667   6.375  18.481  0.00  0.00    +0.000 OA
BRANCH  21  22
ATOM     22  C   UNL     1       2.107   7.397  19.218  0.00  0.00    +0.000 A 
ATOM     23  C   UNL     1       1.734   8.562  18.553  0.00  0.00    +0.000 A 
ATOM     24  F   UNL     1       1.912   8.674  17.229  0.00  0.00    +0.000 F 
ATOM     25  C   UNL     1       1.154   9.631  19.241  0.00  0.00    +0.000 A 
ATOM     26  C   UNL     1       0.934   9.537  20.616  0.00  0.00    +0.000 A 
ATOM     27  C   UNL     1       1.259   8.360  21.285  0.00  0.00    +0.000 A 
ATOM     28  C   UNL     1       1.819   7.294  20.583  0.00  0.00    +0.000 A 
ATOM     29  F   UNL     1       2.034   6.146  21.245  0.00  0.00    +0.000 F 
ENDBRANCH  21  22
ENDBRANCH   6  21
TORSDOF 6
ENDMDL
MODEL 4
REMARK VINA RESULT:      -6.5      5.771     10.777
REMARK  Name = 
REMARK  7 active torsions:
REMARK  status: ('A' for Active; 'I' for Inactive)
REMARK    1  A    between atoms: C_1  and  O_2
REMARK    2  A    between atoms: O_2  and  C_3
REMARK    3  A    between atoms: C_3  and  C_5
REMARK    4  A    between atoms: C_9  and  C_12
REMARK    5  A    between atoms: N_10  and  O_11
REMARK    6  A    between atoms: C_17  and  O_18
REMARK    7  A    between atoms: O_18  and  C_19
REMARK                            x       y       z     vdW  Elec       q    Type
REMARK                         _______ _______ _______ _____ _____    ______ ____
ROOT
ATOM      1  C   UNL     1      -1.816  11.793  18.647  0.00  0.00    +0.000 A 
ATOM      2  C   UNL     1      -3.159  11.723  18.248  0.00  0.00    +0.000 A 
ATOM      3  C   UNL     1      -3.596  10.678  17.440  0.00  0.00    +0.000 A 
ATOM      4  C   UNL     1      -2.668   9.741  17.029  0.00  0.00    +0.000 A 
ATOM      5  N   UNL     1      -1.368   9.778  17.376  0.00  0.00    +0.000 NA
ATOM      6  C   UNL     1      -0.963  10.780  18.208  0.00  0.00    +0.000 A 
ENDROOT
BRANCH   1  11
ATOM      7  C   UNL     1      -2.922  12.690  23.416  0.00  0.00    +0.000 C 
ATOM      8  C   UNL     1      -1.434  12.493  23.073  0.00  0.00    +0.000 C 
ATOM      9  C   UNL     1      -0.992  13.360  21.893  0.00  0.00    +0.000 C 
ATOM     10  N   UNL     1      -1.881  13.075  20.770  0.00  0.00    +0.000 N 
ATOM     11  C   UNL     1      -1.388  12.972  19.477  0.00  0.00    +0.000 C 
ATOM     12  N   UNL     1      -0.566  13.793  18.877  0.00  0.00    +0.000 NA
ATOM     13  C   UNL     1      -3.272  13.448  21.009  0.00  0.00    +0.000 C 
ATOM     14  C   UNL     1      -3.814  12.614  22.168  0.00  0.00    +0.000 C 
BRANCH   7  15
ATOM     15  C   UNL     1      -3.144  13.990  24.168  0.00  0.00    +0.000 C 
ATOM     16  O   UNL     1      -2.274  14.636  24.733  0.00  0.00    +0.000 OA
BRANCH  15  18
ATOM     17  C   UNL     1      -4.725  15.720  24.109  0.00  0.00    +0.000 C 
ATOM     18  O   UNL     1      -4.467  14.318  24.152  0.00  0.00    +0.000 OA
ENDBRANCH  15  18
ENDBRANCH   7  15
BRANCH  12  19
ATOM     19  O   UNL     1      -0.236  14.911  19.651  0.00  0.00    +0.000 OA
ATOM     20  H   UNL     1      -0.593  15.639  19.117  0.00  0.00    +0.000 HD
ENDBRANCH  12  19
ENDBRANCH   1  11
BRANCH   6  21
ATOM     21  O   UNL     1       0.378  10.790  18.567  0.00  0.00    +0.000 OA
BRANCH  21  22
ATOM     22  C   UNL     1       0.862   9.659  19.190  0.00  0.00    +0.000 A 
ATOM     23  C   UNL     1       1.742   8.843  18.484  0.00  0.00    +0.000 A 
ATOM     24  F   UNL     1       2.107   9.161  17.234  0.00  0.00    +0.000 F 
ATOM     25  C   UNL     1       2.275   7.688  19.062  0.00  0.00    +0.000 A 
ATOM     26  C   UNL     1       1.932   7.341  20.369  0.00  0.00    +0.000 A 
ATOM     27  C   UNL     1       1.090   8.174  21.103  0.00  0.00    +0.000 A 
ATOM     28  C   UNL     1       0.582   9.334  20.521  0.00  0.00    +0.000 A 
ATOM     29  F   UNL     1      -0.151  10.156  21.289  0.00  0.00    +0.000 F 
ENDBRANCH  21  22
ENDBRANCH   6  21
TORSDOF 6
ENDMDL
MODEL 5
REMARK VINA RESULT:      -6.5      5.784     10.676
REMARK  Name = 
REMARK  7 active torsions:
REMARK  status: ('A' for Active; 'I' for Inactive)
REMARK    1  A    between atoms: C_1  and  O_2
REMARK    2  A    between atoms: O_2  and  C_3
REMARK    3  A    between atoms: C_3  and  C_5
REMARK    4  A    between atoms: C_9  and  C_12
REMARK    5  A    between atoms: N_10  and  O_11
REMARK    6  A    between atoms: C_17  and  O_18
REMARK    7  A    between atoms: O_18  and  C_19
REMARK                            x       y       z     vdW  Elec       q    Type
REMARK                         _______ _______ _______ _____ _____    ______ ____
ROOT
ATOM      1  C   UNL     1      -1.773  11.832  18.673  0.00  0.00    +0.000 A 
ATOM      2  C   UNL     1      -3.109  11.746  18.252  0.00  0.00    +0.000 A 
ATOM      3  C   UNL     1      -3.523  10.687  17.451  0.00  0.00    +0.000 A 
ATOM      4  C   UNL     1      -2.581   9.752  17.070  0.00  0.00    +0.000 A 
ATOM      5  N   UNL     1      -1.287   9.804  17.438  0.00  0.00    +0.000 NA
ATOM      6  C   UNL     1      -0.904  10.821  18.264  0.00  0.00    +0.000 A 
ENDROOT
BRANCH   1  11
ATOM      7  C   UNL     1      -2.868  12.727  23.446  0.00  0.00    +0.000 C 
ATOM      8  C   UNL     1      -1.378  12.565  23.093  0.00  0.00    +0.000 C 
ATOM      9  C   UNL     1      -0.966  13.437  21.905  0.00  0.00    +0.000 C 
ATOM     10  N   UNL     1      -1.855  13.124  20.790  0.00  0.00    +0.000 N 
ATOM     11  C   UNL     1      -1.369  13.026  19.494  0.00  0.00    +0.000 C 
ATOM     12  N   UNL     1      -0.573  13.865  18.884  0.00  0.00    +0.000 NA
ATOM     13  C   UNL     1      -3.254  13.463  21.037  0.00  0.00    +0.000 C 
ATOM     14  C   UNL     1      -3.766  12.622  22.204  0.00  0.00    +0.000 C 
BRANCH   7  15
ATOM     15  C   UNL     1      -3.118  14.025  24.192  0.00  0.00    +0.000 C 
ATOM     16  O   UNL     1      -2.266  14.675  24.781  0.00  0.00    +0.000 OA
BRANCH  15  18
ATOM     17  C   UNL     1      -4.706  15.747  24.103  0.00  0.00    +0.000 C 
ATOM     18  O   UNL     1      -4.441  14.346  24.140  0.00  0.00    +0.000 OA
ENDBRANCH  15  18
ENDBRANCH   7  15
BRANCH  12  19
ATOM     19  O   UNL     1      -0.265  14.994  19.650  0.00  0.00    +0.000 OA
ATOM     20  H   UNL     1      -1.135  15.242  20.002  0.00  0.00    +0.000 HD
ENDBRANCH  12  19
ENDBRANCH   1  11
BRANCH   6  21
ATOM     21  O   UNL     1       0.430  10.846  18.646  0.00  0.00    +0.000 OA
BRANCH  21  22
ATOM     22  C   UNL     1       0.933   9.698  19.220  0.00  0.00    +0.000 A 
ATOM     23  C   UNL     1       0.544   9.384  20.519  0.00  0.00    +0.000 A 
ATOM     24  F   UNL     1      -0.306  10.182  21.184  0.00  0.00    +0.000 F 
ATOM     25  C   UNL     1       1.011   8.231  21.153  0.00  0.00    +0.000 A 
ATOM     26  C   UNL     1       1.878   7.369  20.481  0.00  0.00    +0.000 A 
ATOM     27  C   UNL     1       2.239   7.647  19.164  0.00  0.00    +0.000 A 
ATOM     28  C   UNL     1       1.749   8.790  18.536  0.00  0.00    +0.000 A 
ATOM     29  F   UNL     1       2.046   8.975  17.240  0.00  0.00    +0.000 F 
ENDBRANCH  21  22
ENDBRANCH   6  21
TORSDOF 6
ENDMDL
MODEL 6
REMARK VINA RESULT:      -6.5      2.551      4.301
REMARK  Name = 
REMARK  7 active torsions:
REMARK  status: ('A' for Active; 'I' for Inactive)
REMARK    1  A    between atoms: C_1  and  O_2
REMARK    2  A    between atoms: O_2  and  C_3
REMARK    3  A    between atoms: C_3  and  C_5
REMARK    4  A    between atoms: C_9  and  C_12
REMARK    5  A    between atoms: N_10  and  O_11
REMARK    6  A    between atoms: C_17  and  O_18
REMARK    7  A    between atoms: O_18  and  C_19
REMARK                            x       y       z     vdW  Elec       q    Type
REMARK                         _______ _______ _______ _____ _____    ______ ____
ROOT
ATOM      1  C   UNL     1       5.000   5.763  17.075  0.00  0.00    +0.000 A 
ATOM      2  C   UNL     1       5.072   7.158  16.950  0.00  0.00    +0.000 A 
ATOM      3  C   UNL     1       3.991   7.951  17.322  0.00  0.00    +0.000 A 
ATOM      4  C   UNL     1       2.853   7.323  17.787  0.00  0.00    +0.000 A 
ATOM      5  N   UNL     1       2.736   5.987  17.910  0.00  0.00    +0.000 NA
ATOM      6  C   UNL     1       3.820   5.224  17.588  0.00  0.00    +0.000 A 
ENDROOT
BRANCH   1  11
ATOM      7  C   UNL     1       5.947   4.199  12.446  0.00  0.00    +0.000 C 
ATOM      8  C   UNL     1       6.965   5.169  13.073  0.00  0.00    +0.000 C 
ATOM      9  C   UNL     1       7.407   4.723  14.468  0.00  0.00    +0.000 C 
ATOM     10  N   UNL     1       6.208   4.545  15.283  0.00  0.00    +0.000 N 
ATOM     11  C   UNL     1       6.178   4.952  16.609  0.00  0.00    +0.000 C 
ATOM     12  N   UNL     1       7.079   4.719  17.528  0.00  0.00    +0.000 NA
ATOM     13  C   UNL     1       5.325   3.481  14.811  0.00  0.00    +0.000 C 
ATOM     14  C   UNL     1       4.813   3.848  13.420  0.00  0.00    +0.000 C 
BRANCH   7  15
ATOM     15  C   UNL     1       6.630   2.944  11.931  0.00  0.00    +0.000 C 
ATOM     16  O   UNL     1       7.830   2.827  11.728  0.00  0.00    +0.000 OA
BRANCH  15  18
ATOM     17  C   UNL     1       6.234   0.788  11.100  0.00  0.00    +0.000 C 
ATOM     18  O   UNL     1       5.705   1.974  11.692  0.00  0.00    +0.000 OA
ENDBRANCH  15  18
ENDBRANCH   7  15
BRANCH  12  19
ATOM     19  O   UNL     1       8.131   3.912  17.080  0.00  0.00    +0.000 OA
ATOM     20  H   UNL     1       8.228   4.201  16.158  0.00  0.00    +0.000 HD
ENDBRANCH  12  19
ENDBRANCH   1  11
BRANCH   6  21
ATOM     21  O   UNL     1       3.685   3.851  17.739  0.00  0.00    +0.000 OA
BRANCH  21  22
ATOM     22  C   UNL     1       2.935   3.415  18.810  0.00  0.00    +0.000 A 
ATOM     23  C   UNL     1       3.595   3.119  20.000  0.00  0.00    +0.000 A 
ATOM     24  F   UNL     1       4.925   3.265  20.093  0.00  0.00    +0.000 F 
ATOM     25  C   UNL     1       2.891   2.681  21.125  0.00  0.00    +0.000 A 
ATOM     26  C   UNL     1       1.504   2.541  21.068  0.00  0.00    +0.000 A 
ATOM     27  C   UNL     1       0.827   2.878  19.898  0.00  0.00    +0.000 A 
ATOM     28  C   UNL     1       1.539   3.333  18.790  0.00  0.00    +0.000 A 
ATOM     29  F   UNL     1       0.843   3.734  17.714  0.00  0.00    +0.000 F 
ENDBRANCH  21  22
ENDBRANCH   6  21
TORSDOF 6
ENDMDL
MODEL 7
REMARK VINA RESULT:      -6.4      2.538      4.337
REMARK  Name = 
REMARK  7 active torsions:
REMARK  status: ('A' for Active; 'I' for Inactive)
REMARK    1  A    between atoms: C_1  and  O_2
REMARK    2  A    between atoms: O_2  and  C_3
REMARK    3  A    between atoms: C_3  and  C_5
REMARK    4  A    between atoms: C_9  and  C_12
REMARK    5  A    between atoms: N_10  and  O_11
REMARK    6  A    between atoms: C_17  and  O_18
REMARK    7  A    between atoms: O_18  and  C_19
REMARK                            x       y       z     vdW  Elec       q    Type
REMARK                         _______ _______ _______ _____ _____    ______ ____
ROOT
ATOM      1  C   UNL     1       4.989   5.797  17.112  0.00  0.00    +0.000 A 
ATOM      2  C   UNL     1       5.067   7.190  16.973  0.00  0.00    +0.000 A 
ATOM      3  C   UNL     1       3.990   7.991  17.336  0.00  0.00    +0.000 A 
ATOM      4  C   UNL     1       2.848   7.373  17.808  0.00  0.00    +0.000 A 
ATOM      5  N   UNL     1       2.725   6.039  17.943  0.00  0.00    +0.000 NA
ATOM      6  C   UNL     1       3.807   5.268  17.629  0.00  0.00    +0.000 A 
ENDROOT
BRANCH   1  11
ATOM      7  C   UNL     1       5.958   4.227  12.489  0.00  0.00    +0.000 C 
ATOM      8  C   UNL     1       6.979   5.188  13.124  0.00  0.00    +0.000 C 
ATOM      9  C   UNL     1       7.407   4.737  14.522  0.00  0.00    +0.000 C 
ATOM     10  N   UNL     1       6.200   4.569  15.327  0.00  0.00    +0.000 N 
ATOM     11  C   UNL     1       6.164   4.976  16.654  0.00  0.00    +0.000 C 
ATOM     12  N   UNL     1       7.056   4.734  17.579  0.00  0.00    +0.000 NA
ATOM     13  C   UNL     1       5.312   3.514  14.848  0.00  0.00    +0.000 C 
ATOM     14  C   UNL     1       4.813   3.886  13.454  0.00  0.00    +0.000 C 
BRANCH   7  15
ATOM     15  C   UNL     1       6.634   2.968  11.977  0.00  0.00    +0.000 C 
ATOM     16  O   UNL     1       7.829   2.852  11.748  0.00  0.00    +0.000 OA
BRANCH  15  18
ATOM     17  C   UNL     1       6.190   0.861  11.050  0.00  0.00    +0.000 C 
ATOM     18  O   UNL     1       5.707   1.990  11.775  0.00  0.00    +0.000 OA
ENDBRANCH  15  18
ENDBRANCH   7  15
BRANCH  12  19
ATOM     19  O   UNL     1       8.103   3.918  17.139  0.00  0.00    +0.000 OA
ATOM     20  H   UNL     1       7.957   3.903  16.179  0.00  0.00    +0.000 HD
ENDBRANCH  12  19
ENDBRANCH   1  11
BRANCH   6  21
ATOM     21  O   UNL     1       3.665   3.897  17.792  0.00  0.00    +0.000 OA
BRANCH  21  22
ATOM     22  C   UNL     1       2.967   3.473  18.904  0.00  0.00    +0.000 A 
ATOM     23  C   UNL     1       1.583   3.354  18.808  0.00  0.00    +0.000 A 
ATOM     24  F   UNL     1       0.956   3.639  17.658  0.00  0.00    +0.000 F 
ATOM     25  C   UNL     1       0.821   2.921  19.896  0.00  0.00    +0.000 A 
ATOM     26  C   UNL     1       1.446   2.594  21.099  0.00  0.00    +0.000 A 
ATOM     27  C   UNL     1       2.834   2.665  21.194  0.00  0.00    +0.000 A 
ATOM     28  C   UNL     1       3.584   3.078  20.095  0.00  0.00    +0.000 A 
ATOM     29  F   UNL     1       4.923   3.046  20.197  0.00  0.00    +0.000 F 
ENDBRANCH  21  22
ENDBRANCH   6  21
TORSDOF 6
ENDMDL
MODEL 8
REMARK VINA RESULT:      -6.4      7.287      9.531
REMARK  Name = 
REMARK  7 active torsions:
REMARK  status: ('A' for Active; 'I' for Inactive)
REMARK    1  A    between atoms: C_1  and  O_2
REMARK    2  A    between atoms: O_2  and  C_3
REMARK    3  A    between atoms: C_3  and  C_5
REMARK    4  A    between atoms: C_9  and  C_12
REMARK    5  A    between atoms: N_10  and  O_11
REMARK    6  A    between atoms: C_17  and  O_18
REMARK    7  A    between atoms: O_18  and  C_19
REMARK                            x       y       z     vdW  Elec       q    Type
REMARK                         _______ _______ _______ _____ _____    ______ ____
ROOT
ATOM      1  C   UNL     1      -0.545  11.420  21.807  0.00  0.00    +0.000 A 
ATOM      2  C   UNL     1      -0.555  10.701  23.011  0.00  0.00    +0.000 A 
ATOM      3  C   UNL     1      -0.472   9.312  22.997  0.00  0.00    +0.000 A 
ATOM      4  C   UNL     1      -0.408   8.675  21.773  0.00  0.00    +0.000 A 
ATOM      5  N   UNL     1      -0.411   9.325  20.594  0.00  0.00    +0.000 NA
ATOM      6  C   UNL     1      -0.443  10.689  20.623  0.00  0.00    +0.000 A 
ENDROOT
BRANCH   1  11
ATOM      7  C   UNL     1       1.480  14.799  18.764  0.00  0.00    +0.000 C 
ATOM      8  C   UNL     1      -0.057  14.728  18.799  0.00  0.00    +0.000 C 
ATOM      9  C   UNL     1      -0.607  14.762  20.226  0.00  0.00    +0.000 C 
ATOM     10  N   UNL     1       0.033  13.686  20.978  0.00  0.00    +0.000 N 
ATOM     11  C   UNL     1      -0.690  12.915  21.878  0.00  0.00    +0.000 C 
ATOM     12  N   UNL     1      -1.512  13.342  22.801  0.00  0.00    +0.000 NA
ATOM     13  C   UNL     1       1.477  13.847  21.128  0.00  0.00    +0.000 C 
ATOM     14  C   UNL     1       2.123  13.807  19.745  0.00  0.00    +0.000 C 
BRANCH   7  15
ATOM     15  C   UNL     1       1.971  16.213  19.020  0.00  0.00    +0.000 C 
ATOM     16  O   UNL     1       1.318  17.230  18.835  0.00  0.00    +0.000 OA
BRANCH  15  18
ATOM     17  C   UNL     1       4.215  16.637  18.490  0.00  0.00    +0.000 C 
ATOM     18  O   UNL     1       3.262  16.187  19.452  0.00  0.00    +0.000 OA
ENDBRANCH  15  18
ENDBRANCH   7  15
BRANCH  12  19
ATOM     19  O   UNL     1      -1.578  14.736  22.883  0.00  0.00    +0.000 OA
ATOM     20  H   UNL     1      -2.312  14.939  22.281  0.00  0.00    +0.000 HD
ENDBRANCH  12  19
ENDBRANCH   1  11
BRANCH   6  21
ATOM     21  O   UNL     1      -0.428  11.340  19.397  0.00  0.00    +0.000 OA
BRANCH  21  22
ATOM     22  C   UNL     1      -1.496  11.106  18.557  0.00  0.00    +0.000 A 
ATOM     23  C   UNL     1      -1.344  10.164  17.543  0.00  0.00    +0.000 A 
ATOM     24  F   UNL     1      -0.187   9.500  17.402  0.00  0.00    +0.000 F 
ATOM     25  C   UNL     1      -2.392   9.875  16.665  0.00  0.00    +0.000 A 
ATOM     26  C   UNL     1      -3.615  10.531  16.800  0.00  0.00    +0.000 A 
ATOM     27  C   UNL     1      -3.796  11.442  17.838  0.00  0.00    +0.000 A 
ATOM     28  C   UNL     1      -2.749  11.706  18.720  0.00  0.00    +0.000 A 
ATOM     29  F   UNL     1      -2.991  12.520  19.760  0.00  0.00    +0.000 F 
ENDBRANCH  21  22
ENDBRANCH   6  21
TORSDOF 6
ENDMDL
MODEL 9
REMARK VINA RESULT:      -6.3      7.309      9.688
REMARK  Name = 
REMARK  7 active torsions:
REMARK  status: ('A' for Active; 'I' for Inactive)
REMARK    1  A    between atoms: C_1  and  O_2
REMARK    2  A    between atoms: O_2  and  C_3
REMARK    3  A    between atoms: C_3  and  C_5
REMARK    4  A    between atoms: C_9  and  C_12
REMARK    5  A    between atoms: N_10  and  O_11
REMARK    6  A    between atoms: C_17  and  O_18
REMARK    7  A    between atoms: O_18  and  C_19
REMARK                            x       y       z     vdW  Elec       q    Type
REMARK                         _______ _______ _______ _____ _____    ______ ____
ROOT
ATOM      1  C   UNL     1      -0.587  11.463  21.895  0.00  0.00    +0.000 A 
ATOM      2  C   UNL     1      -0.532  10.717  23.082  0.00  0.00    +0.000 A 
ATOM      3  C   UNL     1      -0.388   9.334  23.034  0.00  0.00    +0.000 A 
ATOM      4  C   UNL     1      -0.329   8.728  21.794  0.00  0.00    +0.000 A 
ATOM      5  N   UNL     1      -0.394   9.403  20.631  0.00  0.00    +0.000 NA
ATOM      6  C   UNL     1      -0.486  10.763  20.693  0.00  0.00    +0.000 A 
ENDROOT
BRANCH   1  11
ATOM      7  C   UNL     1       1.315  15.005  18.962  0.00  0.00    +0.000 C 
ATOM      8  C   UNL     1      -0.218  14.869  18.982  0.00  0.00    +0.000 C 
ATOM      9  C   UNL     1      -0.779  14.841  20.405  0.00  0.00    +0.000 C 
ATOM     10  N   UNL     1      -0.100  13.773  21.133  0.00  0.00    +0.000 N 
ATOM     11  C   UNL     1      -0.796  12.948  22.005  0.00  0.00    +0.000 C 
ATOM     12  N   UNL     1      -1.643  13.314  22.933  0.00  0.00    +0.000 NA
ATOM     13  C   UNL     1       1.335  13.990  21.300  0.00  0.00    +0.000 C 
ATOM     14  C   UNL     1       1.992  14.015  19.921  0.00  0.00    +0.000 C 
BRANCH   7  15
ATOM     15  C   UNL     1       1.743  16.431  19.259  0.00  0.00    +0.000 C 
ATOM     16  O   UNL     1       1.046  17.423  19.107  0.00  0.00    +0.000 OA
BRANCH  15  18
ATOM     17  C   UNL     1       3.329  17.483  20.628  0.00  0.00    +0.000 C 
ATOM     18  O   UNL     1       3.036  16.450  19.688  0.00  0.00    +0.000 OA
ENDBRANCH  15  18
ENDBRANCH   7  15
BRANCH  12  19
ATOM     19  O   UNL     1      -1.768  14.702  23.052  0.00  0.00    +0.000 OA
ATOM     20  H   UNL     1      -0.844  14.979  23.165  0.00  0.00    +0.000 HD
ENDBRANCH  12  19
ENDBRANCH   1  11
BRANCH   6  21
ATOM     21  O   UNL     1      -0.533  11.441  19.482  0.00  0.00    +0.000 OA
BRANCH  21  22
ATOM     22  C   UNL     1      -1.515  11.056  18.593  0.00  0.00    +0.000 A 
ATOM     23  C   UNL     1      -2.751  11.693  18.660  0.00  0.00    +0.000 A 
ATOM     24  F   UNL     1      -2.969  12.659  19.565  0.00  0.00    +0.000 F 
ATOM     25  C   UNL     1      -3.784  11.355  17.782  0.00  0.00    +0.000 A 
ATOM     26  C   UNL     1      -3.582  10.370  16.815  0.00  0.00    +0.000 A 
ATOM     27  C   UNL     1      -2.335   9.759  16.707  0.00  0.00    +0.000 A 
ATOM     28  C   UNL     1      -1.307  10.120  17.575  0.00  0.00    +0.000 A 
ATOM     29  F   UNL     1      -0.096   9.574  17.381  0.00  0.00    +0.000 F 
ENDBRANCH  21  22
ENDBRANCH   6  21
TORSDOF 6
ENDMDL
