MODEL 1
REMARK VINA RESULT:      -6.8      0.000      0.000
REMARK  Name = 
REMARK  8 active torsions:
REMARK  status: ('A' for Active; 'I' for Inactive)
REMARK    1  A    between atoms: C_1  and  O_2
REMARK    2  A    between atoms: O_2  and  C_3
REMARK    3  A    between atoms: C_5  and  C_6
REMARK    4  A    between atoms: C_7  and  C_8
REMARK    5  A    between atoms: C_15  and  O_16
REMARK    6  A    between atoms: O_16  and  C_17
REMARK    7  A    between atoms: C_18  and  O_19
REMARK    8  A    between atoms: O_19  and  C_20
REMARK                            x       y       z     vdW  Elec       q    Type
REMARK                         _______ _______ _______ _____ _____    ______ ____
ROOT
ATOM      1  C   UNL     1       2.815   4.262  20.253  0.00  0.00    +0.000 A 
ATOM      2  C   UNL     1       2.275   5.520  20.582  0.00  0.00    +0.000 A 
ATOM      3  C   UNL     1       2.391   6.617  19.725  0.00  0.00    +0.000 A 
ATOM      4  C   UNL     1       3.069   6.441  18.522  0.00  0.00    +0.000 A 
ATOM      5  C   UNL     1       3.633   5.201  18.169  0.00  0.00    +0.000 A 
ATOM      6  C   UNL     1       3.518   4.094  19.034  0.00  0.00    +0.000 A 
ENDROOT
BRANCH   1   8
ATOM      7  C   UNL     1       1.347   2.692  21.349  0.00  0.00    +0.000 C 
ATOM      8  O   UNL     1       2.656   3.182  21.081  0.00  0.00    +0.000 OA
ENDBRANCH   1   8
BRANCH   3   9
ATOM      9  C   UNL     1       1.743   7.887  20.086  0.00  0.00    +0.000 C 
ATOM     10  C   UNL     1       1.098   8.084  21.249  0.00  0.00    +0.000 C 
BRANCH  10  11
ATOM     11  C   UNL     1       0.412   9.322  21.639  0.00  0.00    +0.000 A 
ATOM     12  C   UNL     1       0.139  10.365  20.752  0.00  0.00    +0.000 A 
ATOM     13  C   UNL     1      -0.599  11.468  21.181  0.00  0.00    +0.000 A 
ATOM     14  C   UNL     1      -1.045  11.494  22.492  0.00  0.00    +0.000 A 
ATOM     15  N   UNL     1      -0.801  10.514  23.383  0.00  0.00    +0.000 NA
ATOM     16  C   UNL     1      -0.083   9.455  22.936  0.00  0.00    +0.000 A 
ENDBRANCH  10  11
ENDBRANCH   3   9
BRANCH   5  17
ATOM     17  O   UNL     1       4.230   5.291  16.932  0.00  0.00    +0.000 OA
ATOM     18  C   UNL     1       5.410   6.057  16.764  0.00  0.00    +0.000 C 
ENDBRANCH   5  17
BRANCH   6  19
ATOM     19  O   UNL     1       4.048   2.928  18.555  0.00  0.00    +0.000 OA
ATOM     20  C   UNL     1       3.291   1.856  18.019  0.00  0.00    +0.000 C 
ENDBRANCH   6  19
TORSDOF 5
ENDMDL
MODEL 2
REMARK VINA RESULT:      -6.7      5.070      6.791
REMARK  Name = 
REMARK  8 active torsions:
REMARK  status: ('A' for Active; 'I' for Inactive)
REMARK    1  A    between atoms: C_1  and  O_2
REMARK    2  A    between atoms: O_2  and  C_3
REMARK    3  A    between atoms: C_5  and  C_6
REMARK    4  A    between atoms: C_7  and  C_8
REMARK    5  A    between atoms: C_15  and  O_16
REMARK    6  A    between atoms: O_16  and  C_17
REMARK    7  A    between atoms: C_18  and  O_19
REMARK    8  A    between atoms: O_19  and  C_20
REMARK                            x       y       z     vdW  Elec       q    Type
REMARK                         _______ _______ _______ _____ _____    ______ ____
ROOT
ATOM      1  C   UNL     1       6.258   3.968  14.324  0.00  0.00    +0.000 A 
ATOM      2  C   UNL     1       5.274   3.614  15.267  0.00  0.00    +0.000 A 
ATOM      3  C   UNL     1       5.157   4.274  16.491  0.00  0.00    +0.000 A 
ATOM      4  C   UNL     1       6.053   5.302  16.771  0.00  0.00    +0.000 A 
ATOM      5  C   UNL     1       7.058   5.672  15.858  0.00  0.00    +0.000 A 
ATOM      6  C   UNL     1       7.178   5.004  14.621  0.00  0.00    +0.000 A 
ENDROOT
BRANCH   1   8
ATOM      7  C   UNL     1       5.200   3.343  12.248  0.00  0.00    +0.000 C 
ATOM      8  O   UNL     1       6.334   3.343  13.108  0.00  0.00    +0.000 OA
ENDBRANCH   1   8
BRANCH   3   9
ATOM      9  C   UNL     1       4.063   3.913  17.406  0.00  0.00    +0.000 C 
ATOM     10  C   UNL     1       4.139   4.050  18.740  0.00  0.00    +0.000 C 
BRANCH  10  11
ATOM     11  C   UNL     1       3.086   3.675  19.693  0.00  0.00    +0.000 A 
ATOM     12  C   UNL     1       1.729   3.929  19.481  0.00  0.00    +0.000 A 
ATOM     13  C   UNL     1       0.784   3.459  20.393  0.00  0.00    +0.000 A 
ATOM     14  C   UNL     1       1.226   2.744  21.493  0.00  0.00    +0.000 A 
ATOM     15  N   UNL     1       2.524   2.481  21.740  0.00  0.00    +0.000 NA
ATOM     16  C   UNL     1       3.418   2.950  20.836  0.00  0.00    +0.000 A 
ENDBRANCH  10  11
ENDBRANCH   3   9
BRANCH   5  17
ATOM     17  O   UNL     1       7.795   6.717  16.366  0.00  0.00    +0.000 OA
ATOM     18  C   UNL     1       7.458   7.282  17.622  0.00  0.00    +0.000 C 
ENDBRANCH   5  17
BRANCH   6  19
ATOM     19  O   UNL     1       8.148   5.493  13.792  0.00  0.00    +0.000 OA
ATOM     20  C   UNL     1       7.970   5.762  12.411  0.00  0.00    +0.000 C 
ENDBRANCH   6  19
TORSDOF 5
ENDMDL
MODEL 3
REMARK VINA RESULT:      -6.6      7.866     10.452
REMARK  Name = 
REMARK  8 active torsions:
REMARK  status: ('A' for Active; 'I' for Inactive)
REMARK    1  A    between atoms: C_1  and  O_2
REMARK    2  A    between atoms: O_2  and  C_3
REMARK    3  A    between atoms: C_5  and  C_6
REMARK    4  A    between atoms: C_7  and  C_8
REMARK    5  A    between atoms: C_15  and  O_16
REMARK    6  A    between atoms: O_16  and  C_17
REMARK    7  A    between atoms: C_18  and  O_19
REMARK    8  A    between atoms: O_19  and  C_20
REMARK                            x       y       z     vdW  Elec       q    Type
REMARK                         _______ _______ _______ _____ _____    ______ ____
ROOT
ATOM      1  C   UNL     1       9.687  12.295  20.671  0.00  0.00    +0.000 A 
ATOM      2  C   UNL     1       9.299  10.969  20.400  0.00  0.00    +0.000 A 
ATOM      3  C   UNL     1       9.291  10.456  19.102  0.00  0.00    +0.000 A 
ATOM      4  C   UNL     1       9.673  11.297  18.061  0.00  0.00    +0.000 A 
ATOM      5  C   UNL     1      10.052  12.632  18.294  0.00  0.00    +0.000 A 
ATOM      6  C   UNL     1      10.058  13.152  19.606  0.00  0.00    +0.000 A 
ENDROOT
BRANCH   1   8
ATOM      7  C   UNL     1       8.519  13.105  22.621  0.00  0.00    +0.000 C 
ATOM      8  O   UNL     1       9.732  12.775  21.953  0.00  0.00    +0.000 OA
ENDBRANCH   1   8
BRANCH   3   9
ATOM      9  C   UNL     1       8.949   9.041  18.887  0.00  0.00    +0.000 C 
ATOM     10  C   UNL     1       8.036   8.629  17.992  0.00  0.00    +0.000 C 
BRANCH  10  11
ATOM     11  C   UNL     1       7.641   7.234  17.764  0.00  0.00    +0.000 A 
ATOM     12  C   UNL     1       7.107   6.771  16.560  0.00  0.00    +0.000 A 
ATOM     13  C   UNL     1       6.843   5.411  16.393  0.00  0.00    +0.000 A 
ATOM     14  C   UNL     1       7.124   4.551  17.441  0.00  0.00    +0.000 A 
ATOM     15  N   UNL     1       7.634   4.954  18.621  0.00  0.00    +0.000 NA
ATOM     16  C   UNL     1       7.881   6.280  18.752  0.00  0.00    +0.000 A 
ENDBRANCH  10  11
ENDBRANCH   3   9
BRANCH   5  17
ATOM     17  O   UNL     1      10.396  13.238  17.108  0.00  0.00    +0.000 OA
ATOM     18  C   UNL     1      11.757  13.329  16.722  0.00  0.00    +0.000 C 
ENDBRANCH   5  17
BRANCH   6  19
ATOM     19  O   UNL     1      10.507  14.439  19.715  0.00  0.00    +0.000 OA
ATOM     20  C   UNL     1       9.686  15.592  19.619  0.00  0.00    +0.000 C 
ENDBRANCH   6  19
TORSDOF 5
ENDMDL
MODEL 4
REMARK VINA RESULT:      -6.6      2.595      3.160
REMARK  Name = 
REMARK  8 active torsions:
REMARK  status: ('A' for Active; 'I' for Inactive)
REMARK    1  A    between atoms: C_1  and  O_2
REMARK    2  A    between atoms: O_2  and  C_3
REMARK    3  A    between atoms: C_5  and  C_6
REMARK    4  A    between atoms: C_7  and  C_8
REMARK    5  A    between atoms: C_15  and  O_16
REMARK    6  A    between atoms: O_16  and  C_17
REMARK    7  A    between atoms: C_18  and  O_19
REMARK    8  A    between atoms: O_19  and  C_20
REMARK                            x       y       z     vdW  Elec       q    Type
REMARK                         _______ _______ _______ _____ _____    ______ ____
ROOT
ATOM      1  C   UNL     1       3.705   4.407  17.386  0.00  0.00    +0.000 A 
ATOM      2  C   UNL     1       2.794   5.362  17.877  0.00  0.00    +0.000 A 
ATOM      3  C   UNL     1       3.097   6.725  17.898  0.00  0.00    +0.000 A 
ATOM      4  C   UNL     1       4.343   7.127  17.425  0.00  0.00    +0.000 A 
ATOM      5  C   UNL     1       5.283   6.198  16.942  0.00  0.00    +0.000 A 
ATOM      6  C   UNL     1       4.978   4.821  16.922  0.00  0.00    +0.000 A 
ENDROOT
BRANCH   1   8
ATOM      7  C   UNL     1       2.597   2.504  18.372  0.00  0.00    +0.000 C 
ATOM      8  O   UNL     1       3.379   3.078  17.329  0.00  0.00    +0.000 OA
ENDBRANCH   1   8
BRANCH   3   9
ATOM      9  C   UNL     1       2.078   7.685  18.351  0.00  0.00    +0.000 C 
ATOM     10  C   UNL     1       1.884   8.883  17.775  0.00  0.00    +0.000 C 
BRANCH  10  11
ATOM     11  C   UNL     1       0.902   9.884  18.210  0.00  0.00    +0.000 A 
ATOM     12  C   UNL     1      -0.465   9.789  17.945  0.00  0.00    +0.000 A 
ATOM     13  C   UNL     1      -1.343  10.735  18.472  0.00  0.00    +0.000 A 
ATOM     14  C   UNL     1      -0.825  11.754  19.254  0.00  0.00    +0.000 A 
ATOM     15  N   UNL     1       0.487  11.888  19.531  0.00  0.00    +0.000 NA
ATOM     16  C   UNL     1       1.315  10.952  19.005  0.00  0.00    +0.000 A 
ENDBRANCH  10  11
ENDBRANCH   3   9
BRANCH   5  17
ATOM     17  O   UNL     1       6.419   6.852  16.523  0.00  0.00    +0.000 OA
ATOM     18  C   UNL     1       7.409   7.234  17.462  0.00  0.00    +0.000 C 
ENDBRANCH   5  17
BRANCH   6  19
ATOM     19  O   UNL     1       5.942   4.023  16.371  0.00  0.00    +0.000 OA
ATOM     20  C   UNL     1       6.130   3.827  14.979  0.00  0.00    +0.000 C 
ENDBRANCH   6  19
TORSDOF 5
ENDMDL
MODEL 5
REMARK VINA RESULT:      -6.5      0.728      2.864
REMARK  Name = 
REMARK  8 active torsions:
REMARK  status: ('A' for Active; 'I' for Inactive)
REMARK    1  A    between atoms: C_1  and  O_2
REMARK    2  A    between atoms: O_2  and  C_3
REMARK    3  A    between atoms: C_5  and  C_6
REMARK    4  A    between atoms: C_7  and  C_8
REMARK    5  A    between atoms: C_15  and  O_16
REMARK    6  A    between atoms: O_16  and  C_17
REMARK    7  A    between atoms: C_18  and  O_19
REMARK    8  A    between atoms: O_19  and  C_20
REMARK                            x       y       z     vdW  Elec       q    Type
REMARK                         _______ _______ _______ _____ _____    ______ ____
ROOT
ATOM      1  C   UNL     1       4.051   4.999  18.867  0.00  0.00    +0.000 A 
ATOM      2  C   UNL     1       3.474   6.256  19.129  0.00  0.00    +0.000 A 
ATOM      3  C   UNL     1       2.277   6.382  19.836  0.00  0.00    +0.000 A 
ATOM      4  C   UNL     1       1.649   5.221  20.277  0.00  0.00    +0.000 A 
ATOM      5  C   UNL     1       2.190   3.948  20.020  0.00  0.00    +0.000 A 
ATOM      6  C   UNL     1       3.399   3.819  19.304  0.00  0.00    +0.000 A 
ENDROOT
BRANCH   1   8
ATOM      7  C   UNL     1       5.310   5.167  16.816  0.00  0.00    +0.000 C 
ATOM      8  O   UNL     1       5.248   4.889  18.211  0.00  0.00    +0.000 OA
ENDBRANCH   1   8
BRANCH   3   9
ATOM      9  C   UNL     1       1.760   7.724  20.147  0.00  0.00    +0.000 C 
ATOM     10  C   UNL     1       1.238   8.057  21.339  0.00  0.00    +0.000 C 
BRANCH  10  11
ATOM     11  C   UNL     1       0.683   9.372  21.685  0.00  0.00    +0.000 A 
ATOM     12  C   UNL     1       0.709  10.470  20.823  0.00  0.00    +0.000 A 
ATOM     13  C   UNL     1       0.078  11.658  21.193  0.00  0.00    +0.000 A 
ATOM     14  C   UNL     1      -0.564  11.712  22.418  0.00  0.00    +0.000 A 
ATOM     15  N   UNL     1      -0.609  10.680  23.283  0.00  0.00    +0.000 NA
ATOM     16  C   UNL     1       0.012   9.539  22.896  0.00  0.00    +0.000 A 
ENDBRANCH  10  11
ENDBRANCH   3   9
BRANCH   5  17
ATOM     17  O   UNL     1       1.389   2.975  20.573  0.00  0.00    +0.000 OA
ATOM     18  C   UNL     1       1.637   2.512  21.889  0.00  0.00    +0.000 C 
ENDBRANCH   5  17
BRANCH   6  19
ATOM     19  O   UNL     1       3.859   2.538  19.172  0.00  0.00    +0.000 OA
ATOM     20  C   UNL     1       3.516   1.662  18.112  0.00  0.00    +0.000 C 
ENDBRANCH   6  19
TORSDOF 5
ENDMDL
MODEL 6
REMARK VINA RESULT:      -6.5      1.692      3.389
REMARK  Name = 
REMARK  8 active torsions:
REMARK  status: ('A' for Active; 'I' for Inactive)
REMARK    1  A    between atoms: C_1  and  O_2
REMARK    2  A    between atoms: O_2  and  C_3
REMARK    3  A    between atoms: C_5  and  C_6
REMARK    4  A    between atoms: C_7  and  C_8
REMARK    5  A    between atoms: C_15  and  O_16
REMARK    6  A    between atoms: O_16  and  C_17
REMARK    7  A    between atoms: C_18  and  O_19
REMARK    8  A    between atoms: O_19  and  C_20
REMARK                            x       y       z     vdW  Elec       q    Type
REMARK                         _______ _______ _______ _____ _____    ______ ____
ROOT
ATOM      1  C   UNL     1       4.938   6.380  16.981  0.00  0.00    +0.000 A 
ATOM      2  C   UNL     1       4.098   7.324  17.604  0.00  0.00    +0.000 A 
ATOM      3  C   UNL     1       2.871   6.961  18.161  0.00  0.00    +0.000 A 
ATOM      4  C   UNL     1       2.482   5.627  18.082  0.00  0.00    +0.000 A 
ATOM      5  C   UNL     1       3.289   4.661  17.454  0.00  0.00    +0.000 A 
ATOM      6  C   UNL     1       4.529   5.026  16.888  0.00  0.00    +0.000 A 
ENDROOT
BRANCH   1   8
ATOM      7  C   UNL     1       7.282   6.813  17.349  0.00  0.00    +0.000 C 
ATOM      8  O   UNL     1       6.160   6.739  16.477  0.00  0.00    +0.000 OA
ENDBRANCH   1   8
BRANCH   3   9
ATOM      9  C   UNL     1       2.071   7.975  18.866  0.00  0.00    +0.000 C 
ATOM     10  C   UNL     1       1.883   7.974  20.196  0.00  0.00    +0.000 C 
BRANCH  10  11
ATOM     11  C   UNL     1       1.069   8.946  20.939  0.00  0.00    +0.000 A 
ATOM     12  C   UNL     1       0.093   9.748  20.344  0.00  0.00    +0.000 A 
ATOM     13  C   UNL     1      -0.700  10.579  21.135  0.00  0.00    +0.000 A 
ATOM     14  C   UNL     1      -0.493  10.582  22.504  0.00  0.00    +0.000 A 
ATOM     15  N   UNL     1       0.440   9.830  23.120  0.00  0.00    +0.000 NA
ATOM     16  C   UNL     1       1.194   9.032  22.325  0.00  0.00    +0.000 A 
ENDBRANCH  10  11
ENDBRANCH   3   9
BRANCH   5  17
ATOM     17  O   UNL     1       2.686   3.426  17.524  0.00  0.00    +0.000 OA
ATOM     18  C   UNL     1       1.829   3.113  18.608  0.00  0.00    +0.000 C 
ENDBRANCH   5  17
BRANCH   6  19
ATOM     19  O   UNL     1       5.253   3.992  16.364  0.00  0.00    +0.000 OA
ATOM     20  C   UNL     1       5.735   3.936  15.032  0.00  0.00    +0.000 C 
ENDBRANCH   6  19
TORSDOF 5
ENDMDL
MODEL 7
REMARK VINA RESULT:      -6.5      2.443      3.956
REMARK  Name = 
REMARK  8 active torsions:
REMARK  status: ('A' for Active; 'I' for Inactive)
REMARK    1  A    between atoms: C_1  and  O_2
REMARK    2  A    between atoms: O_2  and  C_3
REMARK    3  A    between atoms: C_5  and  C_6
REMARK    4  A    between atoms: C_7  and  C_8
REMARK    5  A    between atoms: C_15  and  O_16
REMARK    6  A    between atoms: O_16  and  C_17
REMARK    7  A    between atoms: C_18  and  O_19
REMARK    8  A    between atoms: O_19  and  C_20
REMARK                            x       y       z     vdW  Elec       q    Type
REMARK                         _______ _______ _______ _____ _____    ______ ____
ROOT
ATOM      1  C   UNL     1       5.182   6.497  16.961  0.00  0.00    +0.000 A 
ATOM      2  C   UNL     1       4.163   7.359  17.408  0.00  0.00    +0.000 A 
ATOM      3  C   UNL     1       2.965   6.871  17.931  0.00  0.00    +0.000 A 
ATOM      4  C   UNL     1       2.790   5.492  17.997  0.00  0.00    +0.000 A 
ATOM      5  C   UNL     1       3.782   4.602  17.545  0.00  0.00    +0.000 A 
ATOM      6  C   UNL     1       4.993   5.094  17.014  0.00  0.00    +0.000 A 
ENDROOT
BRANCH   1   8
ATOM      7  C   UNL     1       7.420   7.282  17.408  0.00  0.00    +0.000 C 
ATOM      8  O   UNL     1       6.372   6.988  16.490  0.00  0.00    +0.000 OA
ENDBRANCH   1   8
BRANCH   3   9
ATOM      9  C   UNL     1       1.966   7.817  18.454  0.00  0.00    +0.000 C 
ATOM     10  C   UNL     1       1.654   8.973  17.845  0.00  0.00    +0.000 C 
BRANCH  10  11
ATOM     11  C   UNL     1       0.688   9.961  18.343  0.00  0.00    +0.000 A 
ATOM     12  C   UNL     1      -0.658   9.979  17.971  0.00  0.00    +0.000 A 
ATOM     13  C   UNL     1      -1.530  10.894  18.560  0.00  0.00    +0.000 A 
ATOM     14  C   UNL     1      -1.028  11.767  19.510  0.00  0.00    +0.000 A 
ATOM     15  N   UNL     1       0.263  11.789  19.896  0.00  0.00    +0.000 NA
ATOM     16  C   UNL     1       1.086  10.888  19.306  0.00  0.00    +0.000 A 
ENDBRANCH  10  11
ENDBRANCH   3   9
BRANCH   5  17
ATOM     17  O   UNL     1       3.370   3.302  17.734  0.00  0.00    +0.000 OA
ATOM     18  C   UNL     1       2.009   3.019  18.006  0.00  0.00    +0.000 C 
ENDBRANCH   5  17
BRANCH   6  19
ATOM     19  O   UNL     1       5.905   4.136  16.669  0.00  0.00    +0.000 OA
ATOM     20  C   UNL     1       6.160   3.704  15.343  0.00  0.00    +0.000 C 
ENDBRANCH   6  19
TORSDOF 5
ENDMDL
MODEL 8
REMARK VINA RESULT:      -6.4      1.040      3.079
REMARK  Name = 
REMARK  8 active torsions:
REMARK  status: ('A' for Active; 'I' for Inactive)
REMARK    1  A    between atoms: C_1  and  O_2
REMARK    2  A    between atoms: O_2  and  C_3
REMARK    3  A    between atoms: C_5  and  C_6
REMARK    4  A    between atoms: C_7  and  C_8
REMARK    5  A    between atoms: C_15  and  O_16
REMARK    6  A    between atoms: O_16  and  C_17
REMARK    7  A    between atoms: C_18  and  O_19
REMARK    8  A    between atoms: O_19  and  C_20
REMARK                            x       y       z     vdW  Elec       q    Type
REMARK                         _______ _______ _______ _____ _____    ______ ____
ROOT
ATOM      1  C   UNL     1       4.198   4.967  19.051  0.00  0.00    +0.000 A 
ATOM      2  C   UNL     1       3.585   6.210  19.299  0.00  0.00    +0.000 A 
ATOM      3  C   UNL     1       2.342   6.303  19.928  0.00  0.00    +0.000 A 
ATOM      4  C   UNL     1       1.706   5.124  20.304  0.00  0.00    +0.000 A 
ATOM      5  C   UNL     1       2.284   3.865  20.058  0.00  0.00    +0.000 A 
ATOM      6  C   UNL     1       3.539   3.769  19.421  0.00  0.00    +0.000 A 
ENDROOT
BRANCH   1   8
ATOM      7  C   UNL     1       5.951   6.012  17.764  0.00  0.00    +0.000 C 
ATOM      8  O   UNL     1       5.438   4.890  18.473  0.00  0.00    +0.000 OA
ENDBRANCH   1   8
BRANCH   3   9
ATOM      9  C   UNL     1       1.783   7.631  20.230  0.00  0.00    +0.000 C 
ATOM     10  C   UNL     1       1.000   7.878  21.293  0.00  0.00    +0.000 C 
BRANCH  10  11
ATOM     11  C   UNL     1       0.396   9.177  21.618  0.00  0.00    +0.000 A 
ATOM     12  C   UNL     1      -0.434   9.387  22.721  0.00  0.00    +0.000 A 
ATOM     13  C   UNL     1      -0.893  10.672  23.010  0.00  0.00    +0.000 A 
ATOM     14  C   UNL     1      -0.505  11.714  22.185  0.00  0.00    +0.000 A 
ATOM     15  N   UNL     1       0.289  11.557  21.108  0.00  0.00    +0.000 NA
ATOM     16  C   UNL     1       0.720  10.297  20.852  0.00  0.00    +0.000 A 
ENDBRANCH  10  11
ENDBRANCH   3   9
BRANCH   5  17
ATOM     17  O   UNL     1       1.464   2.869  20.538  0.00  0.00    +0.000 OA
ATOM     18  C   UNL     1       1.447   2.566  21.922  0.00  0.00    +0.000 C 
ENDBRANCH   5  17
BRANCH   6  19
ATOM     19  O   UNL     1       4.027   2.498  19.295  0.00  0.00    +0.000 OA
ATOM     20  C   UNL     1       3.585   1.554  18.334  0.00  0.00    +0.000 C 
ENDBRANCH   6  19
TORSDOF 5
ENDMDL
MODEL 9
REMARK VINA RESULT:      -6.4      4.950      6.782
REMARK  Name = 
REMARK  8 active torsions:
REMARK  status: ('A' for Active; 'I' for Inactive)
REMARK    1  A    between atoms: C_1  and  O_2
REMARK    2  A    between atoms: O_2  and  C_3
REMARK    3  A    between atoms: C_5  and  C_6
REMARK    4  A    between atoms: C_7  and  C_8
REMARK    5  A    between atoms: C_15  and  O_16
REMARK    6  A    between atoms: O_16  and  C_17
REMARK    7  A    between atoms: C_18  and  O_19
REMARK    8  A    between atoms: O_19  and  C_20
REMARK                            x       y       z     vdW  Elec       q    Type
REMARK                         _______ _______ _______ _____ _____    ______ ____
ROOT
ATOM      1  C   UNL     1       6.976   5.758  15.943  0.00  0.00    +0.000 A 
ATOM      2  C   UNL     1       5.904   5.337  16.754  0.00  0.00    +0.000 A 
ATOM      3  C   UNL     1       5.066   4.287  16.378  0.00  0.00    +0.000 A 
ATOM      4  C   UNL     1       5.309   3.655  15.161  0.00  0.00    +0.000 A 
ATOM      5  C   UNL     1       6.363   4.059  14.320  0.00  0.00    +0.000 A 
ATOM      6  C   UNL     1       7.209   5.123  14.698  0.00  0.00    +0.000 A 
ENDROOT
BRANCH   1   8
ATOM      7  C   UNL     1       7.580   7.424  17.580  0.00  0.00    +0.000 C 
ATOM      8  O   UNL     1       7.818   6.761  16.343  0.00  0.00    +0.000 OA
ENDBRANCH   1   8
BRANCH   3   9
ATOM      9  C   UNL     1       4.008   3.841  17.298  0.00  0.00    +0.000 C 
ATOM     10  C   UNL     1       4.067   4.011  18.630  0.00  0.00    +0.000 C 
BRANCH  10  11
ATOM     11  C   UNL     1       3.052   3.557  19.589  0.00  0.00    +0.000 A 
ATOM     12  C   UNL     1       3.336   2.728  20.676  0.00  0.00    +0.000 A 
ATOM     13  C   UNL     1       2.332   2.417  21.593  0.00  0.00    +0.000 A 
ATOM     14  C   UNL     1       1.068   2.948  21.395  0.00  0.00    +0.000 A 
ATOM     15  N   UNL     1       0.749   3.747  20.358  0.00  0.00    +0.000 NA
ATOM     16  C   UNL     1       1.746   4.032  19.485  0.00  0.00    +0.000 A 
ENDBRANCH  10  11
ENDBRANCH   3   9
BRANCH   5  17
ATOM     17  O   UNL     1       6.396   3.269  13.194  0.00  0.00    +0.000 OA
ATOM     18  C   UNL     1       5.391   3.398  12.203  0.00  0.00    +0.000 C 
ENDBRANCH   5  17
BRANCH   6  19
ATOM     19  O   UNL     1       8.235   5.381  13.832  0.00  0.00    +0.000 OA
ATOM     20  C   UNL     1       8.074   5.882  12.515  0.00  0.00    +0.000 C 
ENDBRANCH   6  19
TORSDOF 5
ENDMDL
