MODEL 1
REMARK VINA RESULT:      -7.7      0.000      0.000
REMARK  Name = 
REMARK  7 active torsions:
REMARK  status: ('A' for Active; 'I' for Inactive)
REMARK    1  A    between atoms: C_1  and  N_2
REMARK    2  A    between atoms: N_2  and  C_3
REMARK    3  A    between atoms: C_4  and  C_6
REMARK    4  A    between atoms: C_8  and  N_9
REMARK    5  A    between atoms: N_14  and  C_15
REMARK    6  A    between atoms: C_23  and  O_24
REMARK    7  A    between atoms: C_25  and  O_26
REMARK                            x       y       z     vdW  Elec       q    Type
REMARK                         _______ _______ _______ _____ _____    ______ ____
ROOT
ATOM      1  N   UNL     1       2.640   7.042  18.910  0.00  0.00    +0.000 N 
ATOM      2  C   UNL     1       2.857   7.611  17.676  0.00  0.00    +0.000 A 
ATOM      3  N   UNL     1       2.300   8.803  17.567  0.00  0.00    +0.000 NA
ATOM      4  C   UNL     1       1.690   9.016  18.777  0.00  0.00    +0.000 A 
ATOM      5  C   UNL     1       0.934  10.103  19.260  0.00  0.00    +0.000 A 
ATOM      6  N   UNL     1       0.643  11.195  18.425  0.00  0.00    +0.000 N 
ATOM      7  N   UNL     1       0.472  10.036  20.536  0.00  0.00    +0.000 NA
ATOM      8  C   UNL     1       0.736   8.921  21.244  0.00  0.00    +0.000 A 
ATOM      9 CL   UNL     1       0.099   8.894  22.834  0.00  0.00    +0.000 Cl
ATOM     10  N   UNL     1       1.419   7.816  20.882  0.00  0.00    +0.000 NA
ATOM     11  C   UNL     1       1.882   7.942  19.627  0.00  0.00    +0.000 A 
ATOM     12  H   UNL     1       1.156  11.120  17.546  0.00  0.00    +0.000 HD
ENDROOT
BRANCH   1  15
ATOM     13  C   UNL     1       4.862   3.951  18.381  0.00  0.00    +0.000 C 
ATOM     14  S   UNL     1       4.835   5.454  19.409  0.00  0.00    +0.000 S 
ATOM     15  C   UNL     1       3.018   5.709  19.366  0.00  0.00    +0.000 C 
ATOM     16  C   UNL     1       2.436   4.525  18.567  0.00  0.00    +0.000 C 
ATOM     17  C   UNL     1       3.456   3.378  18.536  0.00  0.00    +0.000 C 
BRANCH  13  21
ATOM     18  C   UNL     1       6.942   4.819  15.274  0.00  0.00    +0.000 C 
ATOM     19  N   UNL     1       6.585   4.463  16.639  0.00  0.00    +0.000 N 
ATOM     20  C   UNL     1       7.633   4.552  17.649  0.00  0.00    +0.000 C 
ATOM     21  C   UNL     1       5.228   4.315  16.941  0.00  0.00    +0.000 C 
ATOM     22  O   UNL     1       4.347   4.481  16.095  0.00  0.00    +0.000 OA
ENDBRANCH  13  21
BRANCH  16  23
ATOM     23  O   UNL     1       1.223   4.061  19.184  0.00  0.00    +0.000 OA
ATOM     24  H   UNL     1       0.935   4.771  19.796  0.00  0.00    +0.000 HD
ENDBRANCH  16  23
BRANCH  17  25
ATOM     25  O   UNL     1       3.331   2.613  19.754  0.00  0.00    +0.000 OA
ATOM     26  H   UNL     1       3.696   3.135  20.491  0.00  0.00    +0.000 HD
ENDBRANCH  17  25
ENDBRANCH   1  15
BRANCH   6  27
ATOM     27  C   UNL     1       0.358  12.509  18.988  0.00  0.00    +0.000 C 
ATOM     28  C   UNL     1       1.104  13.735  18.538  0.00  0.00    +0.000 C 
ATOM     29  C   UNL     1      -0.333  13.548  18.148  0.00  0.00    +0.000 C 
ENDBRANCH   6  27
TORSDOF 5
ENDMDL
MODEL 2
REMARK VINA RESULT:      -7.2      3.589      7.924
REMARK  Name = 
REMARK  7 active torsions:
REMARK  status: ('A' for Active; 'I' for Inactive)
REMARK    1  A    between atoms: C_1  and  N_2
REMARK    2  A    between atoms: N_2  and  C_3
REMARK    3  A    between atoms: C_4  and  C_6
REMARK    4  A    between atoms: C_8  and  N_9
REMARK    5  A    between atoms: N_14  and  C_15
REMARK    6  A    between atoms: C_23  and  O_24
REMARK    7  A    between atoms: C_25  and  O_26
REMARK                            x       y       z     vdW  Elec       q    Type
REMARK                         _______ _______ _______ _____ _____    ______ ____
ROOT
ATOM      1  N   UNL     1       1.285   9.068  19.129  0.00  0.00    +0.000 N 
ATOM      2  C   UNL     1       1.785   9.653  17.989  0.00  0.00    +0.000 A 
ATOM      3  N   UNL     1       2.681   8.894  17.385  0.00  0.00    +0.000 NA
ATOM      4  C   UNL     1       2.773   7.771  18.168  0.00  0.00    +0.000 A 
ATOM      5  C   UNL     1       3.563   6.612  18.043  0.00  0.00    +0.000 A 
ATOM      6  N   UNL     1       4.497   6.495  17.000  0.00  0.00    +0.000 N 
ATOM      7  N   UNL     1       3.412   5.639  18.979  0.00  0.00    +0.000 NA
ATOM      8  C   UNL     1       2.545   5.861  19.986  0.00  0.00    +0.000 A 
ATOM      9 CL   UNL     1       2.427   4.605  21.144  0.00  0.00    +0.000 Cl
ATOM     10  N   UNL     1       1.762   6.933  20.222  0.00  0.00    +0.000 NA
ATOM     11  C   UNL     1       1.921   7.853  19.255  0.00  0.00    +0.000 A 
ATOM     12  H   UNL     1       4.396   7.268  16.341  0.00  0.00    +0.000 HD
ENDROOT
BRANCH   1  15
ATOM     13  C   UNL     1      -0.752  12.128  20.252  0.00  0.00    +0.000 C 
ATOM     14  S   UNL     1      -1.006  10.586  19.317  0.00  0.00    +0.000 S 
ATOM     15  C   UNL     1       0.355   9.635  20.099  0.00  0.00    +0.000 C 
ATOM     16  C   UNL     1       0.968  10.562  21.170  0.00  0.00    +0.000 C 
ATOM     17  C   UNL     1      -0.034  11.671  21.519  0.00  0.00    +0.000 C 
BRANCH  13  21
ATOM     18  C   UNL     1       0.642  15.430  18.880  0.00  0.00    +0.000 C 
ATOM     19  N   UNL     1      -0.110  14.480  19.685  0.00  0.00    +0.000 N 
ATOM     20  C   UNL     1      -1.172  15.013  20.530  0.00  0.00    +0.000 C 
ATOM     21  C   UNL     1       0.051  13.119  19.407  0.00  0.00    +0.000 C 
ATOM     22  O   UNL     1       0.797  12.717  18.511  0.00  0.00    +0.000 OA
ENDBRANCH  13  21
BRANCH  16  23
ATOM     23  O   UNL     1       1.274   9.811  22.357  0.00  0.00    +0.000 OA
ATOM     24  H   UNL     1       2.073   9.281  22.151  0.00  0.00    +0.000 HD
ENDBRANCH  16  23
BRANCH  17  25
ATOM     25  O   UNL     1      -0.966  11.163  22.498  0.00  0.00    +0.000 OA
ATOM     26  H   UNL     1      -1.057  11.817  23.214  0.00  0.00    +0.000 HD
ENDBRANCH  17  25
ENDBRANCH   1  15
BRANCH   6  27
ATOM     27  C   UNL     1       4.923   5.186  16.522  0.00  0.00    +0.000 C 
ATOM     28  C   UNL     1       5.528   5.007  15.158  0.00  0.00    +0.000 C 
ATOM     29  C   UNL     1       6.390   4.882  16.380  0.00  0.00    +0.000 C 
ENDBRANCH   6  27
TORSDOF 5
ENDMDL
MODEL 3
REMARK VINA RESULT:      -7.0      3.527      7.691
REMARK  Name = 
REMARK  7 active torsions:
REMARK  status: ('A' for Active; 'I' for Inactive)
REMARK    1  A    between atoms: C_1  and  N_2
REMARK    2  A    between atoms: N_2  and  C_3
REMARK    3  A    between atoms: C_4  and  C_6
REMARK    4  A    between atoms: C_8  and  N_9
REMARK    5  A    between atoms: N_14  and  C_15
REMARK    6  A    between atoms: C_23  and  O_24
REMARK    7  A    between atoms: C_25  and  O_26
REMARK                            x       y       z     vdW  Elec       q    Type
REMARK                         _______ _______ _______ _____ _____    ______ ____
ROOT
ATOM      1  N   UNL     1       1.456   8.812  19.050  0.00  0.00    +0.000 N 
ATOM      2  C   UNL     1       2.000   9.360  17.911  0.00  0.00    +0.000 A 
ATOM      3  N   UNL     1       2.890   8.566  17.346  0.00  0.00    +0.000 NA
ATOM      4  C   UNL     1       2.933   7.458  18.154  0.00  0.00    +0.000 A 
ATOM      5  C   UNL     1       3.696   6.276  18.074  0.00  0.00    +0.000 A 
ATOM      6  N   UNL     1       4.653   6.114  17.058  0.00  0.00    +0.000 N 
ATOM      7  N   UNL     1       3.496   5.328  19.026  0.00  0.00    +0.000 NA
ATOM      8  C   UNL     1       2.610   5.594  20.004  0.00  0.00    +0.000 A 
ATOM      9 CL   UNL     1       2.431   4.366  21.185  0.00  0.00    +0.000 Cl
ATOM     10  N   UNL     1       1.850   6.690  20.198  0.00  0.00    +0.000 NA
ATOM     11  C   UNL     1       2.057   7.584  19.217  0.00  0.00    +0.000 A 
ATOM     12  H   UNL     1       4.589   6.874  16.381  0.00  0.00    +0.000 HD
ENDROOT
BRANCH   1  15
ATOM     13  C   UNL     1       0.116  12.045  20.639  0.00  0.00    +0.000 C 
ATOM     14  S   UNL     1      -0.323  10.901  19.291  0.00  0.00    +0.000 S 
ATOM     15  C   UNL     1       0.517   9.424  19.983  0.00  0.00    +0.000 C 
ATOM     16  C   UNL     1       1.095   9.856  21.347  0.00  0.00    +0.000 C 
ATOM     17  C   UNL     1       0.376  11.124  21.828  0.00  0.00    +0.000 C 
BRANCH  13  21
ATOM     18  C   UNL     1       2.737  14.848  20.592  0.00  0.00    +0.000 C 
ATOM     19  N   UNL     1       1.594  14.036  20.980  0.00  0.00    +0.000 N 
ATOM     20  C   UNL     1       0.658  14.612  21.939  0.00  0.00    +0.000 C 
ATOM     21  C   UNL     1       1.326  12.887  20.230  0.00  0.00    +0.000 C 
ATOM     22  O   UNL     1       2.019  12.557  19.265  0.00  0.00    +0.000 OA
ENDBRANCH  13  21
BRANCH  16  23
ATOM     23  O   UNL     1       0.909   8.811  22.317  0.00  0.00    +0.000 OA
ATOM     24  H   UNL     1       0.046   8.392  22.110  0.00  0.00    +0.000 HD
ENDBRANCH  16  23
BRANCH  17  25
ATOM     25  O   UNL     1      -0.857  10.740  22.476  0.00  0.00    +0.000 OA
ATOM     26  H   UNL     1      -0.660  10.066  23.150  0.00  0.00    +0.000 HD
ENDBRANCH  17  25
ENDBRANCH   1  15
BRANCH   6  27
ATOM     27  C   UNL     1       5.057   4.784  16.618  0.00  0.00    +0.000 C 
ATOM     28  C   UNL     1       5.501   4.526  15.205  0.00  0.00    +0.000 C 
ATOM     29  C   UNL     1       6.504   4.502  16.321  0.00  0.00    +0.000 C 
ENDBRANCH   6  27
TORSDOF 5
ENDMDL
MODEL 4
REMARK VINA RESULT:      -6.6      3.555      7.801
REMARK  Name = 
REMARK  7 active torsions:
REMARK  status: ('A' for Active; 'I' for Inactive)
REMARK    1  A    between atoms: C_1  and  N_2
REMARK    2  A    between atoms: N_2  and  C_3
REMARK    3  A    between atoms: C_4  and  C_6
REMARK    4  A    between atoms: C_8  and  N_9
REMARK    5  A    between atoms: N_14  and  C_15
REMARK    6  A    between atoms: C_23  and  O_24
REMARK    7  A    between atoms: C_25  and  O_26
REMARK                            x       y       z     vdW  Elec       q    Type
REMARK                         _______ _______ _______ _____ _____    ______ ____
ROOT
ATOM      1  N   UNL     1       1.817   7.757  20.080  0.00  0.00    +0.000 N 
ATOM      2  C   UNL     1       2.161   8.544  19.005  0.00  0.00    +0.000 A 
ATOM      3  N   UNL     1       2.889   7.893  18.117  0.00  0.00    +0.000 NA
ATOM      4  C   UNL     1       3.032   6.632  18.639  0.00  0.00    +0.000 A 
ATOM      5  C   UNL     1       3.708   5.495  18.154  0.00  0.00    +0.000 A 
ATOM      6  N   UNL     1       4.447   5.561  16.961  0.00  0.00    +0.000 N 
ATOM      7  N   UNL     1       3.648   4.359  18.896  0.00  0.00    +0.000 NA
ATOM      8  C   UNL     1       2.977   4.402  20.063  0.00  0.00    +0.000 A 
ATOM      9 CL   UNL     1       2.967   2.942  20.958  0.00  0.00    +0.000 Cl
ATOM     10  N   UNL     1       2.320   5.430  20.637  0.00  0.00    +0.000 NA
ATOM     11  C   UNL     1       2.380   6.521  19.854  0.00  0.00    +0.000 A 
ATOM     12  H   UNL     1       4.292   6.454  16.492  0.00  0.00    +0.000 HD
ENDROOT
BRANCH   1  15
ATOM     13  C   UNL     1      -0.855  10.015  21.673  0.00  0.00    +0.000 C 
ATOM     14  S   UNL     1      -0.707   8.316  21.031  0.00  0.00    +0.000 S 
ATOM     15  C   UNL     1       1.102   8.148  21.289  0.00  0.00    +0.000 C 
ATOM     16  C   UNL     1       1.565   9.457  21.962  0.00  0.00    +0.000 C 
ATOM     17  C   UNL     1       0.356  10.165  22.590  0.00  0.00    +0.000 C 
BRANCH  13  21
ATOM     18  C   UNL     1      -1.424  13.232  19.659  0.00  0.00    +0.000 C 
ATOM     19  N   UNL     1      -1.389  12.284  20.762  0.00  0.00    +0.000 N 
ATOM     20  C   UNL     1      -2.128  12.635  21.970  0.00  0.00    +0.000 C 
ATOM     21  C   UNL     1      -0.879  11.007  20.509  0.00  0.00    +0.000 C 
ATOM     22  O   UNL     1      -0.472  10.673  19.394  0.00  0.00    +0.000 OA
ENDBRANCH  13  21
BRANCH  16  23
ATOM     23  O   UNL     1       2.530   9.171  22.989  0.00  0.00    +0.000 OA
ATOM     24  H   UNL     1       3.403   9.129  22.544  0.00  0.00    +0.000 HD
ENDBRANCH  16  23
BRANCH  17  25
ATOM     25  O   UNL     1       0.105   9.589  23.890  0.00  0.00    +0.000 OA
ATOM     26  H   UNL     1      -0.606  10.093  24.325  0.00  0.00    +0.000 HD
ENDBRANCH  17  25
ENDBRANCH   1  15
BRANCH   6  27
ATOM     27  C   UNL     1       4.696   4.362  16.171  0.00  0.00    +0.000 C 
ATOM     28  C   UNL     1       5.302   4.439  14.797  0.00  0.00    +0.000 C 
ATOM     29  C   UNL     1       6.109   3.898  15.941  0.00  0.00    +0.000 C 
ENDBRANCH   6  27
TORSDOF 5
ENDMDL
MODEL 5
REMARK VINA RESULT:      -6.5      3.911      8.553
REMARK  Name = 
REMARK  7 active torsions:
REMARK  status: ('A' for Active; 'I' for Inactive)
REMARK    1  A    between atoms: C_1  and  N_2
REMARK    2  A    between atoms: N_2  and  C_3
REMARK    3  A    between atoms: C_4  and  C_6
REMARK    4  A    between atoms: C_8  and  N_9
REMARK    5  A    between atoms: N_14  and  C_15
REMARK    6  A    between atoms: C_23  and  O_24
REMARK    7  A    between atoms: C_25  and  O_26
REMARK                            x       y       z     vdW  Elec       q    Type
REMARK                         _______ _______ _______ _____ _____    ______ ____
ROOT
ATOM      1  N   UNL     1       1.428   8.854  19.623  0.00  0.00    +0.000 N 
ATOM      2  C   UNL     1       0.975   8.206  20.749  0.00  0.00    +0.000 A 
ATOM      3  N   UNL     1       1.462   6.984  20.857  0.00  0.00    +0.000 NA
ATOM      4  C   UNL     1       2.259   6.826  19.752  0.00  0.00    +0.000 A 
ATOM      5  C   UNL     1       3.036   5.736  19.313  0.00  0.00    +0.000 A 
ATOM      6  N   UNL     1       3.030   4.524  20.024  0.00  0.00    +0.000 N 
ATOM      7  N   UNL     1       3.753   5.890  18.169  0.00  0.00    +0.000 NA
ATOM      8  C   UNL     1       3.647   7.059  17.511  0.00  0.00    +0.000 A 
ATOM      9 CL   UNL     1       4.556   7.172  16.064  0.00  0.00    +0.000 Cl
ATOM     10  N   UNL     1       2.921   8.153  17.817  0.00  0.00    +0.000 NA
ATOM     11  C   UNL     1       2.255   7.966  18.969  0.00  0.00    +0.000 A 
ATOM     12  H   UNL     1       2.523   4.628  20.904  0.00  0.00    +0.000 HD
ENDROOT
BRANCH   1  15
ATOM     13  C   UNL     1      -0.216  12.245  20.376  0.00  0.00    +0.000 C 
ATOM     14  S   UNL     1       1.455  11.526  20.289  0.00  0.00    +0.000 S 
ATOM     15  C   UNL     1       1.043  10.169  19.125  0.00  0.00    +0.000 C 
ATOM     16  C   UNL     1      -0.445  10.351  18.759  0.00  0.00    +0.000 C 
ATOM     17  C   UNL     1      -0.877  11.789  19.077  0.00  0.00    +0.000 C 
BRANCH  13  21
ATOM     18  C   UNL     1      -2.702  12.036  23.292  0.00  0.00    +0.000 C 
ATOM     19  N   UNL     1      -2.027  12.490  22.087  0.00  0.00    +0.000 N 
ATOM     20  C   UNL     1      -2.368  13.818  21.589  0.00  0.00    +0.000 C 
ATOM     21  C   UNL     1      -0.926  11.753  21.638  0.00  0.00    +0.000 C 
ATOM     22  O   UNL     1      -0.522  10.751  22.233  0.00  0.00    +0.000 OA
ENDBRANCH  13  21
BRANCH  16  23
ATOM     23  O   UNL     1      -0.645  10.096  17.359  0.00  0.00    +0.000 OA
ATOM     24  H   UNL     1      -0.309  10.886  16.883  0.00  0.00    +0.000 HD
ENDBRANCH  16  23
BRANCH  17  25
ATOM     25  O   UNL     1      -0.505  12.640  17.971  0.00  0.00    +0.000 OA
ATOM     26  H   UNL     1      -1.038  12.394  17.193  0.00  0.00    +0.000 HD
ENDBRANCH  17  25
ENDBRANCH   1  15
BRANCH   6  27
ATOM     27  C   UNL     1       4.158   3.604  19.942  0.00  0.00    +0.000 C 
ATOM     28  C   UNL     1       4.137   2.273  20.639  0.00  0.00    +0.000 C 
ATOM     29  C   UNL     1       4.032   2.336  19.143  0.00  0.00    +0.000 C 
ENDBRANCH   6  27
TORSDOF 5
ENDMDL
MODEL 6
REMARK VINA RESULT:      -6.3      5.519     10.024
REMARK  Name = 
REMARK  7 active torsions:
REMARK  status: ('A' for Active; 'I' for Inactive)
REMARK    1  A    between atoms: C_1  and  N_2
REMARK    2  A    between atoms: N_2  and  C_3
REMARK    3  A    between atoms: C_4  and  C_6
REMARK    4  A    between atoms: C_8  and  N_9
REMARK    5  A    between atoms: N_14  and  C_15
REMARK    6  A    between atoms: C_23  and  O_24
REMARK    7  A    between atoms: C_25  and  O_26
REMARK                            x       y       z     vdW  Elec       q    Type
REMARK                         _______ _______ _______ _____ _____    ______ ____
ROOT
ATOM      1  N   UNL     1      -0.442  11.211  21.757  0.00  0.00    +0.000 N 
ATOM      2  C   UNL     1      -0.712  10.398  22.834  0.00  0.00    +0.000 A 
ATOM      3  N   UNL     1      -0.235   9.178  22.676  0.00  0.00    +0.000 NA
ATOM      4  C   UNL     1       0.363   9.193  21.442  0.00  0.00    +0.000 A 
ATOM      5  C   UNL     1       1.038   8.187  20.722  0.00  0.00    +0.000 A 
ATOM      6  N   UNL     1       1.130   6.883  21.236  0.00  0.00    +0.000 N 
ATOM      7  N   UNL     1       1.557   8.516  19.510  0.00  0.00    +0.000 NA
ATOM      8  C   UNL     1       1.362   9.770  19.060  0.00  0.00    +0.000 A 
ATOM      9 CL   UNL     1       2.019  10.105  17.514  0.00  0.00    +0.000 Cl
ATOM     10  N   UNL     1       0.716  10.800  19.643  0.00  0.00    +0.000 NA
ATOM     11  C   UNL     1       0.248  10.438  20.850  0.00  0.00    +0.000 A 
ATOM     12  H   UNL     1       0.779   6.850  22.194  0.00  0.00    +0.000 HD
ENDROOT
BRANCH   1  15
ATOM     13  C   UNL     1      -2.931  13.999  22.654  0.00  0.00    +0.000 C 
ATOM     14  S   UNL     1      -1.237  13.488  23.087  0.00  0.00    +0.000 S 
ATOM     15  C   UNL     1      -0.883  12.582  21.531  0.00  0.00    +0.000 C 
ATOM     16  C   UNL     1      -2.127  12.760  20.636  0.00  0.00    +0.000 C 
ATOM     17  C   UNL     1      -2.942  13.965  21.127  0.00  0.00    +0.000 C 
BRANCH  13  21
ATOM     18  C   UNL     1      -6.211  12.628  24.099  0.00  0.00    +0.000 C 
ATOM     19  N   UNL     1      -5.246  13.519  23.473  0.00  0.00    +0.000 N 
ATOM     20  C   UNL     1      -5.631  14.917  23.316  0.00  0.00    +0.000 C 
ATOM     21  C   UNL     1      -3.940  13.051  23.303  0.00  0.00    +0.000 C 
ATOM     22  O   UNL     1      -3.595  11.925  23.669  0.00  0.00    +0.000 OA
ENDBRANCH  13  21
BRANCH  16  23
ATOM     23  O   UNL     1      -1.728  12.985  19.273  0.00  0.00    +0.000 OA
ATOM     24  H   UNL     1      -2.447  12.626  18.711  0.00  0.00    +0.000 HD
ENDBRANCH  16  23
BRANCH  17  25
ATOM     25  O   UNL     1      -2.373  15.169  20.570  0.00  0.00    +0.000 OA
ATOM     26  H   UNL     1      -3.089  15.810  20.411  0.00  0.00    +0.000 HD
ENDBRANCH  17  25
ENDBRANCH   1  15
BRANCH   6  27
ATOM     27  C   UNL     1       2.213   5.995  20.830  0.00  0.00    +0.000 C 
ATOM     28  C   UNL     1       2.219   4.541  21.211  0.00  0.00    +0.000 C 
ATOM     29  C   UNL     1       1.964   4.941  19.787  0.00  0.00    +0.000 C 
ENDBRANCH   6  27
TORSDOF 5
ENDMDL
MODEL 7
REMARK VINA RESULT:      -6.3      0.981      1.065
REMARK  Name = 
REMARK  7 active torsions:
REMARK  status: ('A' for Active; 'I' for Inactive)
REMARK    1  A    between atoms: C_1  and  N_2
REMARK    2  A    between atoms: N_2  and  C_3
REMARK    3  A    between atoms: C_4  and  C_6
REMARK    4  A    between atoms: C_8  and  N_9
REMARK    5  A    between atoms: N_14  and  C_15
REMARK    6  A    between atoms: C_23  and  O_24
REMARK    7  A    between atoms: C_25  and  O_26
REMARK                            x       y       z     vdW  Elec       q    Type
REMARK                         _______ _______ _______ _____ _____    ______ ____
ROOT
ATOM      1  N   UNL     1       2.434   7.486  18.600  0.00  0.00    +0.000 N 
ATOM      2  C   UNL     1       2.584   8.164  17.412  0.00  0.00    +0.000 A 
ATOM      3  N   UNL     1       2.072   9.379  17.458  0.00  0.00    +0.000 NA
ATOM      4  C   UNL     1       1.560   9.495  18.726  0.00  0.00    +0.000 A 
ATOM      5  C   UNL     1       0.887  10.555  19.364  0.00  0.00    +0.000 A 
ATOM      6  N   UNL     1       0.583  11.733  18.661  0.00  0.00    +0.000 N 
ATOM      7  N   UNL     1       0.517  10.381  20.660  0.00  0.00    +0.000 NA
ATOM      8  C   UNL     1       0.784   9.194  21.238  0.00  0.00    +0.000 A 
ATOM      9 CL   UNL     1       0.263   9.035  22.862  0.00  0.00    +0.000 Cl
ATOM     10  N   UNL     1       1.392   8.107  20.723  0.00  0.00    +0.000 NA
ATOM     11  C   UNL     1       1.768   8.337  19.453  0.00  0.00    +0.000 A 
ATOM     12  H   UNL     1       1.027  11.726  17.742  0.00  0.00    +0.000 HD
ENDROOT
BRANCH   1  15
ATOM     13  C   UNL     1       4.953   4.619  18.139  0.00  0.00    +0.000 C 
ATOM     14  S   UNL     1       4.549   5.899  19.371  0.00  0.00    +0.000 S 
ATOM     15  C   UNL     1       2.788   6.103  18.898  0.00  0.00    +0.000 C 
ATOM     16  C   UNL     1       2.520   5.074  17.779  0.00  0.00    +0.000 C 
ATOM     17  C   UNL     1       3.602   3.985  17.817  0.00  0.00    +0.000 C 
BRANCH  13  21
ATOM     18  C   UNL     1       6.517   5.054  14.661  0.00  0.00    +0.000 C 
ATOM     19  N   UNL     1       5.854   4.455  15.810  0.00  0.00    +0.000 N 
ATOM     20  C   UNL     1       5.705   3.004  15.815  0.00  0.00    +0.000 C 
ATOM     21  C   UNL     1       5.641   5.260  16.932  0.00  0.00    +0.000 C 
ATOM     22  O   UNL     1       5.999   6.440  16.971  0.00  0.00    +0.000 OA
ENDBRANCH  13  21
BRANCH  16  23
ATOM     23  O   UNL     1       1.231   4.465  17.965  0.00  0.00    +0.000 OA
ATOM     24  H   UNL     1       0.627   5.181  18.255  0.00  0.00    +0.000 HD
ENDBRANCH  16  23
BRANCH  17  25
ATOM     25  O   UNL     1       3.234   3.000  18.806  0.00  0.00    +0.000 OA
ATOM     26  H   UNL     1       2.804   2.250  18.357  0.00  0.00    +0.000 HD
ENDBRANCH  17  25
ENDBRANCH   1  15
BRANCH   6  27
ATOM     27  C   UNL     1       0.394  12.995  19.365  0.00  0.00    +0.000 C 
ATOM     28  C   UNL     1       1.165  14.229  18.985  0.00  0.00    +0.000 C 
ATOM     29  C   UNL     1      -0.302  14.138  18.677  0.00  0.00    +0.000 C 
ENDBRANCH   6  27
TORSDOF 5
ENDMDL
MODEL 8
REMARK VINA RESULT:      -6.3      4.385      8.893
REMARK  Name = 
REMARK  7 active torsions:
REMARK  status: ('A' for Active; 'I' for Inactive)
REMARK    1  A    between atoms: C_1  and  N_2
REMARK    2  A    between atoms: N_2  and  C_3
REMARK    3  A    between atoms: C_4  and  C_6
REMARK    4  A    between atoms: C_8  and  N_9
REMARK    5  A    between atoms: N_14  and  C_15
REMARK    6  A    between atoms: C_23  and  O_24
REMARK    7  A    between atoms: C_25  and  O_26
REMARK                            x       y       z     vdW  Elec       q    Type
REMARK                         _______ _______ _______ _____ _____    ______ ____
ROOT
ATOM      1  N   UNL     1       0.823   9.823  20.046  0.00  0.00    +0.000 N 
ATOM      2  C   UNL     1       0.210   9.352  21.184  0.00  0.00    +0.000 A 
ATOM      3  N   UNL     1       0.484   8.081  21.414  0.00  0.00    +0.000 NA
ATOM      4  C   UNL     1       1.303   7.707  20.379  0.00  0.00    +0.000 A 
ATOM      5  C   UNL     1       1.915   6.475  20.073  0.00  0.00    +0.000 A 
ATOM      6  N   UNL     1       1.673   5.343  20.870  0.00  0.00    +0.000 N 
ATOM      7  N   UNL     1       2.708   6.418  18.972  0.00  0.00    +0.000 NA
ATOM      8  C   UNL     1       2.829   7.530  18.223  0.00  0.00    +0.000 A 
ATOM      9 CL   UNL     1       3.821   7.377  16.836  0.00  0.00    +0.000 Cl
ATOM     10  N   UNL     1       2.276   8.747  18.400  0.00  0.00    +0.000 NA
ATOM     11  C   UNL     1       1.527   8.765  19.516  0.00  0.00    +0.000 A 
ATOM     12  H   UNL     1       1.144   5.599  21.704  0.00  0.00    +0.000 HD
ENDROOT
BRANCH   1  15
ATOM     13  C   UNL     1       0.070  13.562  20.524  0.00  0.00    +0.000 C 
ATOM     14  S   UNL     1       1.519  12.468  20.376  0.00  0.00    +0.000 S 
ATOM     15  C   UNL     1       0.684  11.136  19.428  0.00  0.00    +0.000 C 
ATOM     16  C   UNL     1      -0.758  11.624  19.178  0.00  0.00    +0.000 C 
ATOM     17  C   UNL     1      -0.820  13.148  19.355  0.00  0.00    +0.000 C 
BRANCH  13  21
ATOM     18  C   UNL     1      -2.024  14.238  23.668  0.00  0.00    +0.000 C 
ATOM     19  N   UNL     1      -1.409  14.402  22.360  0.00  0.00    +0.000 N 
ATOM     20  C   UNL     1      -1.478  15.724  21.749  0.00  0.00    +0.000 C 
ATOM     21  C   UNL     1      -0.580  13.376  21.896  0.00  0.00    +0.000 C 
ATOM     22  O   UNL     1      -0.360  12.360  22.560  0.00  0.00    +0.000 OA
ENDBRANCH  13  21
BRANCH  16  23
ATOM     23  O   UNL     1      -1.171  11.288  17.843  0.00  0.00    +0.000 OA
ATOM     24  H   UNL     1      -1.853  11.946  17.590  0.00  0.00    +0.000 HD
ENDBRANCH  16  23
BRANCH  17  25
ATOM     25  O   UNL     1      -0.399  13.775  18.125  0.00  0.00    +0.000 OA
ATOM     26  H   UNL     1       0.568  13.890  18.147  0.00  0.00    +0.000 HD
ENDBRANCH  17  25
ENDBRANCH   1  15
BRANCH   6  27
ATOM     27  C   UNL     1       2.639   4.253  20.931  0.00  0.00    +0.000 C 
ATOM     28  C   UNL     1       2.338   2.979  21.670  0.00  0.00    +0.000 C 
ATOM     29  C   UNL     1       2.381   2.982  20.170  0.00  0.00    +0.000 C 
ENDBRANCH   6  27
TORSDOF 5
ENDMDL
MODEL 9
REMARK VINA RESULT:      -6.2      4.431      9.030
REMARK  Name = 
REMARK  7 active torsions:
REMARK  status: ('A' for Active; 'I' for Inactive)
REMARK    1  A    between atoms: C_1  and  N_2
REMARK    2  A    between atoms: N_2  and  C_3
REMARK    3  A    between atoms: C_4  and  C_6
REMARK    4  A    between atoms: C_8  and  N_9
REMARK    5  A    between atoms: N_14  and  C_15
REMARK    6  A    between atoms: C_23  and  O_24
REMARK    7  A    between atoms: C_25  and  O_26
REMARK                            x       y       z     vdW  Elec       q    Type
REMARK                         _______ _______ _______ _____ _____    ______ ____
ROOT
ATOM      1  N   UNL     1       0.590   9.835  20.354  0.00  0.00    +0.000 N 
ATOM      2  C   UNL     1       0.017   9.307  21.488  0.00  0.00    +0.000 A 
ATOM      3  N   UNL     1       0.328   8.037  21.665  0.00  0.00    +0.000 NA
ATOM      4  C   UNL     1       1.132   7.722  20.599  0.00  0.00    +0.000 A 
ATOM      5  C   UNL     1       1.767   6.518  20.235  0.00  0.00    +0.000 A 
ATOM      6  N   UNL     1       1.573   5.352  20.996  0.00  0.00    +0.000 N 
ATOM      7  N   UNL     1       2.536   6.521  19.115  0.00  0.00    +0.000 NA
ATOM      8  C   UNL     1       2.612   7.662  18.405  0.00  0.00    +0.000 A 
ATOM      9 CL   UNL     1       3.575   7.585  16.991  0.00  0.00    +0.000 Cl
ATOM     10  N   UNL     1       2.032   8.857  18.638  0.00  0.00    +0.000 NA
ATOM     11  C   UNL     1       1.309   8.815  19.770  0.00  0.00    +0.000 A 
ATOM     12  H   UNL     1       1.057   5.564  21.850  0.00  0.00    +0.000 HD
ENDROOT
BRANCH   1  15
ATOM     13  C   UNL     1      -1.111  13.269  20.648  0.00  0.00    +0.000 C 
ATOM     14  S   UNL     1       0.492  12.500  21.044  0.00  0.00    +0.000 S 
ATOM     15  C   UNL     1       0.405  11.165  19.787  0.00  0.00    +0.000 C 
ATOM     16  C   UNL     1      -0.905  11.396  19.004  0.00  0.00    +0.000 C 
ATOM     17  C   UNL     1      -1.372  12.845  19.205  0.00  0.00    +0.000 C 
BRANCH  13  21
ATOM     18  C   UNL     1      -4.399  13.041  22.614  0.00  0.00    +0.000 C 
ATOM     19  N   UNL     1      -3.386  13.484  21.669  0.00  0.00    +0.000 N 
ATOM     20  C   UNL     1      -3.595  14.774  21.019  0.00  0.00    +0.000 C 
ATOM     21  C   UNL     1      -2.174  12.789  21.638  0.00  0.00    +0.000 C 
ATOM     22  O   UNL     1      -1.948  11.832  22.382  0.00  0.00    +0.000 OA
ENDBRANCH  13  21
BRANCH  16  23
ATOM     23  O   UNL     1      -0.691  11.160  17.602  0.00  0.00    +0.000 OA
ATOM     24  H   UNL     1      -0.292  11.981  17.241  0.00  0.00    +0.000 HD
ENDBRANCH  16  23
BRANCH  17  25
ATOM     25  O   UNL     1      -0.668  13.693  18.272  0.00  0.00    +0.000 OA
ATOM     26  H   UNL     1      -1.175  14.516  18.153  0.00  0.00    +0.000 HD
ENDBRANCH  17  25
ENDBRANCH   1  15
BRANCH   6  27
ATOM     27  C   UNL     1       2.567   4.286  20.995  0.00  0.00    +0.000 C 
ATOM     28  C   UNL     1       2.320   2.982  21.701  0.00  0.00    +0.000 C 
ATOM     29  C   UNL     1       2.320   3.033  20.201  0.00  0.00    +0.000 C 
ENDBRANCH   6  27
TORSDOF 5
ENDMDL
