MODEL 1
REMARK VINA RESULT:      -8.1      0.000      0.000
REMARK  Name = 
REMARK  5 active torsions:
REMARK  status: ('A' for Active; 'I' for Inactive)
REMARK    1  A    between atoms: C_1  and  C_2
REMARK    2  A    between atoms: C_5  and  C_6
REMARK    3  A    between atoms: C_6  and  O_8
REMARK    4  A    between atoms: O_8  and  C_9
REMARK    5  A    between atoms: C_14  and  C_15
REMARK                            x       y       z     vdW  Elec       q    Type
REMARK                         _______ _______ _______ _____ _____    ______ ____
ROOT
ATOM      1  C   UNL     1       4.787   5.875  17.014  0.00  0.00    +0.000 A 
ATOM      2  C   UNL     1       5.005   6.381  15.719  0.00  0.00    +0.000 A 
ATOM      3  C   UNL     1       5.691   5.630  14.771  0.00  0.00    +0.000 A 
ATOM      4  C   UNL     1       6.178   4.376  15.109  0.00  0.00    +0.000 A 
ATOM      5  C   UNL     1       5.994   3.884  16.408  0.00  0.00    +0.000 A 
ATOM      6  C   UNL     1       5.317   4.635  17.388  0.00  0.00    +0.000 A 
ENDROOT
BRANCH   6   7
ATOM      7  C   UNL     1       5.154   3.964  18.710  0.00  0.00    +0.000 C 
ATOM      8  O   UNL     1       5.900   4.363  19.610  0.00  0.00    +0.000 OA
ATOM      9  N   UNL     1       4.170   3.013  18.965  0.00  0.00    +0.000 N 
ATOM     10  C   UNL     1       3.168   2.473  18.044  0.00  0.00    +0.000 C 
ATOM     11  C   UNL     1       1.762   2.460  18.656  0.00  0.00    +0.000 C 
ATOM     12  O   UNL     1       1.742   1.868  19.959  0.00  0.00    +0.000 OA
ATOM     13  C   UNL     1       2.645   2.558  20.838  0.00  0.00    +0.000 C 
ATOM     14  C   UNL     1       4.079   2.443  20.317  0.00  0.00    +0.000 C 
ENDBRANCH   6   7
BRANCH   1  15
ATOM     15  O   UNL     1       4.151   6.697  17.959  0.00  0.00    +0.000 OA
BRANCH  15  16
ATOM     16  C   UNL     1       2.785   6.556  18.061  0.00  0.00    +0.000 C 
ATOM     17  O   UNL     1       2.131   5.582  17.728  0.00  0.00    +0.000 OA
BRANCH  16  22
ATOM     18  C   UNL     1       0.416  11.310  20.363  0.00  0.00    +0.000 C 
ATOM     19  C   UNL     1       1.012  10.076  19.754  0.00  0.00    +0.000 A 
ATOM     20  C   UNL     1       1.231   8.929  20.530  0.00  0.00    +0.000 A 
ATOM     21  C   UNL     1       1.819   7.795  19.968  0.00  0.00    +0.000 A 
ATOM     22  C   UNL     1       2.208   7.800  18.629  0.00  0.00    +0.000 A 
ATOM     23  C   UNL     1       1.964   8.935  17.837  0.00  0.00    +0.000 A 
ATOM     24  C   UNL     1       1.368  10.065  18.400  0.00  0.00    +0.000 A 
ENDBRANCH  16  22
ENDBRANCH  15  16
ENDBRANCH   1  15
TORSDOF 4
ENDMDL
MODEL 2
REMARK VINA RESULT:      -8.0      1.778      3.962
REMARK  Name = 
REMARK  5 active torsions:
REMARK  status: ('A' for Active; 'I' for Inactive)
REMARK    1  A    between atoms: C_1  and  C_2
REMARK    2  A    between atoms: C_5  and  C_6
REMARK    3  A    between atoms: C_6  and  O_8
REMARK    4  A    between atoms: O_8  and  C_9
REMARK    5  A    between atoms: C_14  and  C_15
REMARK                            x       y       z     vdW  Elec       q    Type
REMARK                         _______ _______ _______ _____ _____    ______ ____
ROOT
ATOM      1  C   UNL     1       2.713   5.140  19.978  0.00  0.00    +0.000 A 
ATOM      2  C   UNL     1       1.441   4.626  20.290  0.00  0.00    +0.000 A 
ATOM      3  C   UNL     1       1.158   3.277  20.106  0.00  0.00    +0.000 A 
ATOM      4  C   UNL     1       2.134   2.434  19.597  0.00  0.00    +0.000 A 
ATOM      5  C   UNL     1       3.389   2.949  19.251  0.00  0.00    +0.000 A 
ATOM      6  C   UNL     1       3.692   4.315  19.414  0.00  0.00    +0.000 A 
ENDROOT
BRANCH   6   7
ATOM      7  C   UNL     1       5.083   4.711  19.050  0.00  0.00    +0.000 C 
ATOM      8  O   UNL     1       5.916   4.643  19.960  0.00  0.00    +0.000 OA
ATOM      9  N   UNL     1       5.464   5.050  17.754  0.00  0.00    +0.000 N 
ATOM     10  C   UNL     1       4.631   5.121  16.552  0.00  0.00    +0.000 C 
ATOM     11  C   UNL     1       5.274   4.407  15.356  0.00  0.00    +0.000 C 
ATOM     12  O   UNL     1       6.634   4.803  15.153  0.00  0.00    +0.000 OA
ATOM     13  C   UNL     1       7.410   4.558  16.337  0.00  0.00    +0.000 C 
ATOM     14  C   UNL     1       6.872   5.389  17.503  0.00  0.00    +0.000 C 
ENDBRANCH   6   7
BRANCH   1  15
ATOM     15  O   UNL     1       2.931   6.521  20.114  0.00  0.00    +0.000 OA
BRANCH  15  16
ATOM     16  C   UNL     1       2.256   7.330  19.228  0.00  0.00    +0.000 C 
ATOM     17  O   UNL     1       2.254   7.231  18.012  0.00  0.00    +0.000 OA
BRANCH  16  22
ATOM     18  C   UNL     1      -0.665  11.301  22.263  0.00  0.00    +0.000 C 
ATOM     19  C   UNL     1       0.074  10.268  21.466  0.00  0.00    +0.000 A 
ATOM     20  C   UNL     1       0.572   9.111  22.080  0.00  0.00    +0.000 A 
ATOM     21  C   UNL     1       1.290   8.169  21.342  0.00  0.00    +0.000 A 
ATOM     22  C   UNL     1       1.529   8.381  19.984  0.00  0.00    +0.000 A 
ATOM     23  C   UNL     1       1.006   9.523  19.354  0.00  0.00    +0.000 A 
ATOM     24  C   UNL     1       0.281  10.459  20.094  0.00  0.00    +0.000 A 
ENDBRANCH  16  22
ENDBRANCH  15  16
ENDBRANCH   1  15
TORSDOF 4
ENDMDL
MODEL 3
REMARK VINA RESULT:      -8.0      1.586      4.226
REMARK  Name = 
REMARK  5 active torsions:
REMARK  status: ('A' for Active; 'I' for Inactive)
REMARK    1  A    between atoms: C_1  and  C_2
REMARK    2  A    between atoms: C_5  and  C_6
REMARK    3  A    between atoms: C_6  and  O_8
REMARK    4  A    between atoms: O_8  and  C_9
REMARK    5  A    between atoms: C_14  and  C_15
REMARK                            x       y       z     vdW  Elec       q    Type
REMARK                         _______ _______ _______ _____ _____    ______ ____
ROOT
ATOM      1  C   UNL     1       2.379   4.866  19.192  0.00  0.00    +0.000 A 
ATOM      2  C   UNL     1       1.799   4.869  20.475  0.00  0.00    +0.000 A 
ATOM      3  C   UNL     1       2.080   3.853  21.381  0.00  0.00    +0.000 A 
ATOM      4  C   UNL     1       2.928   2.819  21.013  0.00  0.00    +0.000 A 
ATOM      5  C   UNL     1       3.479   2.794  19.725  0.00  0.00    +0.000 A 
ATOM      6  C   UNL     1       3.194   3.805  18.786  0.00  0.00    +0.000 A 
ENDROOT
BRANCH   6   7
ATOM      7  C   UNL     1       3.889   3.673  17.473  0.00  0.00    +0.000 C 
ATOM      8  O   UNL     1       3.183   3.313  16.525  0.00  0.00    +0.000 OA
ATOM      9  N   UNL     1       5.224   4.017  17.280  0.00  0.00    +0.000 N 
ATOM     10  C   UNL     1       6.185   4.516  18.266  0.00  0.00    +0.000 C 
ATOM     11  C   UNL     1       6.959   5.738  17.755  0.00  0.00    +0.000 C 
ATOM     12  O   UNL     1       7.511   5.526  16.452  0.00  0.00    +0.000 OA
ATOM     13  C   UNL     1       6.475   5.186  15.517  0.00  0.00    +0.000 C 
ATOM     14  C   UNL     1       5.797   3.879  15.933  0.00  0.00    +0.000 C 
ENDBRANCH   6   7
BRANCH   1  15
ATOM     15  O   UNL     1       2.012   5.875  18.286  0.00  0.00    +0.000 OA
BRANCH  15  16
ATOM     16  C   UNL     1       2.755   7.033  18.337  0.00  0.00    +0.000 C 
ATOM     17  O   UNL     1       3.925   7.157  18.016  0.00  0.00    +0.000 OA
BRANCH  16  22
ATOM     18  C   UNL     1      -0.448  11.429  20.319  0.00  0.00    +0.000 C 
ATOM     19  C   UNL     1       0.399  10.298  19.816  0.00  0.00    +0.000 A 
ATOM     20  C   UNL     1       0.706  10.184  18.453  0.00  0.00    +0.000 A 
ATOM     21  C   UNL     1       1.464   9.110  17.985  0.00  0.00    +0.000 A 
ATOM     22  C   UNL     1       1.911   8.131  18.872  0.00  0.00    +0.000 A 
ATOM     23  C   UNL     1       1.634   8.255  20.243  0.00  0.00    +0.000 A 
ATOM     24  C   UNL     1       0.883   9.335  20.711  0.00  0.00    +0.000 A 
ENDBRANCH  16  22
ENDBRANCH  15  16
ENDBRANCH   1  15
TORSDOF 4
ENDMDL
MODEL 4
REMARK VINA RESULT:      -8.0      1.852      4.000
REMARK  Name = 
REMARK  5 active torsions:
REMARK  status: ('A' for Active; 'I' for Inactive)
REMARK    1  A    between atoms: C_1  and  C_2
REMARK    2  A    between atoms: C_5  and  C_6
REMARK    3  A    between atoms: C_6  and  O_8
REMARK    4  A    between atoms: O_8  and  C_9
REMARK    5  A    between atoms: C_14  and  C_15
REMARK                            x       y       z     vdW  Elec       q    Type
REMARK                         _______ _______ _______ _____ _____    ______ ____
ROOT
ATOM      1  C   UNL     1       2.437   4.413  18.104  0.00  0.00    +0.000 A 
ATOM      2  C   UNL     1       1.331   3.819  18.739  0.00  0.00    +0.000 A 
ATOM      3  C   UNL     1       1.209   2.436  18.801  0.00  0.00    +0.000 A 
ATOM      4  C   UNL     1       2.180   1.633  18.220  0.00  0.00    +0.000 A 
ATOM      5  C   UNL     1       3.264   2.221  17.556  0.00  0.00    +0.000 A 
ATOM      6  C   UNL     1       3.398   3.621  17.467  0.00  0.00    +0.000 A 
ENDROOT
BRANCH   6   7
ATOM      7  C   UNL     1       4.627   4.103  16.773  0.00  0.00    +0.000 C 
ATOM      8  O   UNL     1       4.524   4.271  15.553  0.00  0.00    +0.000 OA
ATOM      9  N   UNL     1       5.799   4.439  17.445  0.00  0.00    +0.000 N 
ATOM     10  C   UNL     1       6.076   4.363  18.881  0.00  0.00    +0.000 C 
ATOM     11  C   UNL     1       6.726   5.645  19.416  0.00  0.00    +0.000 C 
ATOM     12  O   UNL     1       7.843   6.060  18.623  0.00  0.00    +0.000 OA
ATOM     13  C   UNL     1       7.445   6.254  17.257  0.00  0.00    +0.000 C 
ATOM     14  C   UNL     1       6.938   4.938  16.662  0.00  0.00    +0.000 C 
ENDBRANCH   6   7
BRANCH   1  15
ATOM     15  O   UNL     1       2.483   5.813  18.003  0.00  0.00    +0.000 OA
BRANCH  15  16
ATOM     16  C   UNL     1       2.734   6.496  19.172  0.00  0.00    +0.000 C 
ATOM     17  O   UNL     1       3.378   6.089  20.125  0.00  0.00    +0.000 OA
BRANCH  16  22
ATOM     18  C   UNL     1       0.291  11.734  18.855  0.00  0.00    +0.000 C 
ATOM     19  C   UNL     1       0.938  10.385  18.951  0.00  0.00    +0.000 A 
ATOM     20  C   UNL     1       1.597   9.827  17.847  0.00  0.00    +0.000 A 
ATOM     21  C   UNL     1       2.168   8.556  17.931  0.00  0.00    +0.000 A 
ATOM     22  C   UNL     1       2.071   7.823  19.114  0.00  0.00    +0.000 A 
ATOM     23  C   UNL     1       1.439   8.389  20.234  0.00  0.00    +0.000 A 
ATOM     24  C   UNL     1       0.878   9.664  20.150  0.00  0.00    +0.000 A 
ENDBRANCH  16  22
ENDBRANCH  15  16
ENDBRANCH   1  15
TORSDOF 4
ENDMDL
MODEL 5
REMARK VINA RESULT:      -7.9      2.247      4.245
REMARK  Name = 
REMARK  5 active torsions:
REMARK  status: ('A' for Active; 'I' for Inactive)
REMARK    1  A    between atoms: C_1  and  C_2
REMARK    2  A    between atoms: C_5  and  C_6
REMARK    3  A    between atoms: C_6  and  O_8
REMARK    4  A    between atoms: O_8  and  C_9
REMARK    5  A    between atoms: C_14  and  C_15
REMARK                            x       y       z     vdW  Elec       q    Type
REMARK                         _______ _______ _______ _____ _____    ______ ____
ROOT
ATOM      1  C   UNL     1       2.741   5.764  18.645  0.00  0.00    +0.000 A 
ATOM      2  C   UNL     1       1.640   4.992  19.060  0.00  0.00    +0.000 A 
ATOM      3  C   UNL     1       1.395   3.747  18.495  0.00  0.00    +0.000 A 
ATOM      4  C   UNL     1       2.235   3.265  17.502  0.00  0.00    +0.000 A 
ATOM      5  C   UNL     1       3.311   4.045  17.061  0.00  0.00    +0.000 A 
ATOM      6  C   UNL     1       3.568   5.317  17.609  0.00  0.00    +0.000 A 
ENDROOT
BRANCH   6   7
ATOM      7  C   UNL     1       4.776   6.012  17.077  0.00  0.00    +0.000 C 
ATOM      8  O   UNL     1       4.571   6.826  16.171  0.00  0.00    +0.000 OA
ATOM      9  N   UNL     1       6.050   5.841  17.612  0.00  0.00    +0.000 N 
ATOM     10  C   UNL     1       6.462   4.974  18.717  0.00  0.00    +0.000 C 
ATOM     11  C   UNL     1       7.354   5.705  19.728  0.00  0.00    +0.000 C 
ATOM     12  O   UNL     1       8.431   6.405  19.097  0.00  0.00    +0.000 OA
ATOM     13  C   UNL     1       7.925   7.342  18.133  0.00  0.00    +0.000 C 
ATOM     14  C   UNL     1       7.163   6.605  17.030  0.00  0.00    +0.000 C 
ENDBRANCH   6   7
BRANCH   1  15
ATOM     15  O   UNL     1       2.909   7.046  19.194  0.00  0.00    +0.000 OA
BRANCH  15  16
ATOM     16  C   UNL     1       2.087   8.031  18.693  0.00  0.00    +0.000 C 
ATOM     17  O   UNL     1       1.996   8.373  17.525  0.00  0.00    +0.000 OA
BRANCH  16  22
ATOM     18  C   UNL     1      -0.834  10.590  22.985  0.00  0.00    +0.000 C 
ATOM     19  C   UNL     1      -0.059   9.933  21.883  0.00  0.00    +0.000 A 
ATOM     20  C   UNL     1      -0.125  10.422  20.571  0.00  0.00    +0.000 A 
ATOM     21  C   UNL     1       0.570   9.786  19.541  0.00  0.00    +0.000 A 
ATOM     22  C   UNL     1       1.326   8.646  19.809  0.00  0.00    +0.000 A 
ATOM     23  C   UNL     1       1.423   8.167  21.127  0.00  0.00    +0.000 A 
ATOM     24  C   UNL     1       0.733   8.811  22.156  0.00  0.00    +0.000 A 
ENDBRANCH  16  22
ENDBRANCH  15  16
ENDBRANCH   1  15
TORSDOF 4
ENDMDL
MODEL 6
REMARK VINA RESULT:      -7.9      1.611      2.318
REMARK  Name = 
REMARK  5 active torsions:
REMARK  status: ('A' for Active; 'I' for Inactive)
REMARK    1  A    between atoms: C_1  and  C_2
REMARK    2  A    between atoms: C_5  and  C_6
REMARK    3  A    between atoms: C_6  and  O_8
REMARK    4  A    between atoms: O_8  and  C_9
REMARK    5  A    between atoms: C_14  and  C_15
REMARK                            x       y       z     vdW  Elec       q    Type
REMARK                         _______ _______ _______ _____ _____    ______ ____
ROOT
ATOM      1  C   UNL     1       4.052   6.260  17.608  0.00  0.00    +0.000 A 
ATOM      2  C   UNL     1       5.230   6.560  16.899  0.00  0.00    +0.000 A 
ATOM      3  C   UNL     1       5.768   5.645  16.001  0.00  0.00    +0.000 A 
ATOM      4  C   UNL     1       5.146   4.419  15.813  0.00  0.00    +0.000 A 
ATOM      5  C   UNL     1       3.994   4.103  16.543  0.00  0.00    +0.000 A 
ATOM      6  C   UNL     1       3.441   5.009  17.470  0.00  0.00    +0.000 A 
ENDROOT
BRANCH   6   7
ATOM      7  C   UNL     1       2.187   4.557  18.137  0.00  0.00    +0.000 C 
ATOM      8  O   UNL     1       1.196   4.456  17.406  0.00  0.00    +0.000 OA
ATOM      9  N   UNL     1       2.130   4.175  19.475  0.00  0.00    +0.000 N 
ATOM     10  C   UNL     1       3.210   4.170  20.464  0.00  0.00    +0.000 C 
ATOM     11  C   UNL     1       3.269   2.855  21.253  0.00  0.00    +0.000 C 
ATOM     12  O   UNL     1       1.992   2.477  21.775  0.00  0.00    +0.000 OA
ATOM     13  C   UNL     1       1.029   2.362  20.715  0.00  0.00    +0.000 C 
ATOM     14  C   UNL     1       0.846   3.712  20.019  0.00  0.00    +0.000 C 
ENDBRANCH   6   7
BRANCH   1  15
ATOM     15  O   UNL     1       3.584   7.185  18.556  0.00  0.00    +0.000 OA
BRANCH  15  16
ATOM     16  C   UNL     1       2.611   8.057  18.121  0.00  0.00    +0.000 C 
ATOM     17  O   UNL     1       2.432   8.429  16.973  0.00  0.00    +0.000 OA
BRANCH  16  22
ATOM     18  C   UNL     1      -0.582   9.645  22.680  0.00  0.00    +0.000 C 
ATOM     19  C   UNL     1       0.227   9.230  21.488  0.00  0.00    +0.000 A 
ATOM     20  C   UNL     1       1.009   8.068  21.523  0.00  0.00    +0.000 A 
ATOM     21  C   UNL     1       1.789   7.704  20.424  0.00  0.00    +0.000 A 
ATOM     22  C   UNL     1       1.805   8.507  19.283  0.00  0.00    +0.000 A 
ATOM     23  C   UNL     1       0.999   9.657  19.229  0.00  0.00    +0.000 A 
ATOM     24  C   UNL     1       0.214  10.013  20.327  0.00  0.00    +0.000 A 
ENDBRANCH  16  22
ENDBRANCH  15  16
ENDBRANCH   1  15
TORSDOF 4
ENDMDL
MODEL 7
REMARK VINA RESULT:      -7.8      1.628      3.997
REMARK  Name = 
REMARK  5 active torsions:
REMARK  status: ('A' for Active; 'I' for Inactive)
REMARK    1  A    between atoms: C_1  and  C_2
REMARK    2  A    between atoms: C_5  and  C_6
REMARK    3  A    between atoms: C_6  and  O_8
REMARK    4  A    between atoms: O_8  and  C_9
REMARK    5  A    between atoms: C_14  and  C_15
REMARK                            x       y       z     vdW  Elec       q    Type
REMARK                         _______ _______ _______ _____ _____    ______ ____
ROOT
ATOM      1  C   UNL     1       2.427   4.429  18.715  0.00  0.00    +0.000 A 
ATOM      2  C   UNL     1       1.145   3.848  18.712  0.00  0.00    +0.000 A 
ATOM      3  C   UNL     1       0.992   2.470  18.621  0.00  0.00    +0.000 A 
ATOM      4  C   UNL     1       2.113   1.659  18.519  0.00  0.00    +0.000 A 
ATOM      5  C   UNL     1       3.389   2.236  18.486  0.00  0.00    +0.000 A 
ATOM      6  C   UNL     1       3.565   3.631  18.560  0.00  0.00    +0.000 A 
ENDROOT
BRANCH   6   7
ATOM      7  C   UNL     1       4.982   4.098  18.563  0.00  0.00    +0.000 C 
ATOM      8  O   UNL     1       5.664   3.737  19.528  0.00  0.00    +0.000 OA
ATOM      9  N   UNL     1       5.550   4.816  17.513  0.00  0.00    +0.000 N 
ATOM     10  C   UNL     1       4.913   5.271  16.275  0.00  0.00    +0.000 C 
ATOM     11  C   UNL     1       5.760   4.953  15.037  0.00  0.00    +0.000 C 
ATOM     12  O   UNL     1       7.120   5.371  15.186  0.00  0.00    +0.000 OA
ATOM     13  C   UNL     1       7.710   4.758  16.344  0.00  0.00    +0.000 C 
ATOM     14  C   UNL     1       6.967   5.194  17.608  0.00  0.00    +0.000 C 
ENDBRANCH   6   7
BRANCH   1  15
ATOM     15  O   UNL     1       2.531   5.829  18.738  0.00  0.00    +0.000 OA
BRANCH  15  16
ATOM     16  C   UNL     1       2.189   6.442  19.923  0.00  0.00    +0.000 C 
ATOM     17  O   UNL     1       2.205   5.935  21.032  0.00  0.00    +0.000 OA
BRANCH  16  22
ATOM     18  C   UNL     1       0.692  11.911  18.755  0.00  0.00    +0.000 C 
ATOM     19  C   UNL     1       1.095  10.502  19.072  0.00  0.00    +0.000 A 
ATOM     20  C   UNL     1       1.719   9.701  18.105  0.00  0.00    +0.000 A 
ATOM     21  C   UNL     1       2.059   8.378  18.393  0.00  0.00    +0.000 A 
ATOM     22  C   UNL     1       1.765   7.838  19.645  0.00  0.00    +0.000 A 
ATOM     23  C   UNL     1       1.168   8.644  20.629  0.00  0.00    +0.000 A 
ATOM     24  C   UNL     1       0.837   9.969  20.341  0.00  0.00    +0.000 A 
ENDBRANCH  16  22
ENDBRANCH  15  16
ENDBRANCH   1  15
TORSDOF 4
ENDMDL
MODEL 8
REMARK VINA RESULT:      -7.8      1.631      2.549
REMARK  Name = 
REMARK  5 active torsions:
REMARK  status: ('A' for Active; 'I' for Inactive)
REMARK    1  A    between atoms: C_1  and  C_2
REMARK    2  A    between atoms: C_5  and  C_6
REMARK    3  A    between atoms: C_6  and  O_8
REMARK    4  A    between atoms: O_8  and  C_9
REMARK    5  A    between atoms: C_14  and  C_15
REMARK                            x       y       z     vdW  Elec       q    Type
REMARK                         _______ _______ _______ _____ _____    ______ ____
ROOT
ATOM      1  C   UNL     1       3.898   6.401  17.777  0.00  0.00    +0.000 A 
ATOM      2  C   UNL     1       5.085   6.806  17.138  0.00  0.00    +0.000 A 
ATOM      3  C   UNL     1       5.720   5.968  16.228  0.00  0.00    +0.000 A 
ATOM      4  C   UNL     1       5.186   4.717  15.958  0.00  0.00    +0.000 A 
ATOM      5  C   UNL     1       4.025   4.296  16.618  0.00  0.00    +0.000 A 
ATOM      6  C   UNL     1       3.375   5.123  17.556  0.00  0.00    +0.000 A 
ENDROOT
BRANCH   6   7
ATOM      7  C   UNL     1       2.123   4.563  18.143  0.00  0.00    +0.000 C 
ATOM      8  O   UNL     1       1.197   4.371  17.348  0.00  0.00    +0.000 OA
ATOM      9  N   UNL     1       2.011   4.185  19.478  0.00  0.00    +0.000 N 
ATOM     10  C   UNL     1       3.017   4.280  20.537  0.00  0.00    +0.000 C 
ATOM     11  C   UNL     1       3.139   2.980  21.342  0.00  0.00    +0.000 C 
ATOM     12  O   UNL     1       1.869   2.492  21.782  0.00  0.00    +0.000 OA
ATOM     13  C   UNL     1       0.994   2.286  20.661  0.00  0.00    +0.000 C 
ATOM     14  C   UNL     1       0.739   3.610  19.940  0.00  0.00    +0.000 C 
ENDBRANCH   6   7
BRANCH   1  15
ATOM     15  O   UNL     1       3.329   7.251  18.740  0.00  0.00    +0.000 OA
BRANCH  15  16
ATOM     16  C   UNL     1       2.412   8.166  18.274  0.00  0.00    +0.000 C 
ATOM     17  O   UNL     1       2.278   8.533  17.119  0.00  0.00    +0.000 OA
BRANCH  16  22
ATOM     18  C   UNL     1      -0.682  10.294  22.680  0.00  0.00    +0.000 C 
ATOM     19  C   UNL     1       0.138   9.746  21.550  0.00  0.00    +0.000 A 
ATOM     20  C   UNL     1       0.186  10.407  20.315  0.00  0.00    +0.000 A 
ATOM     21  C   UNL     1       0.921   9.875  19.254  0.00  0.00    +0.000 A 
ATOM     22  C   UNL     1       1.604   8.669  19.413  0.00  0.00    +0.000 A 
ATOM     23  C   UNL     1       1.586   8.017  20.658  0.00  0.00    +0.000 A 
ATOM     24  C   UNL     1       0.857   8.557  21.719  0.00  0.00    +0.000 A 
ENDBRANCH  16  22
ENDBRANCH  15  16
ENDBRANCH   1  15
TORSDOF 4
ENDMDL
MODEL 9
REMARK VINA RESULT:      -7.7      2.260      4.289
REMARK  Name = 
REMARK  5 active torsions:
REMARK  status: ('A' for Active; 'I' for Inactive)
REMARK    1  A    between atoms: C_1  and  C_2
REMARK    2  A    between atoms: C_5  and  C_6
REMARK    3  A    between atoms: C_6  and  O_8
REMARK    4  A    between atoms: O_8  and  C_9
REMARK    5  A    between atoms: C_14  and  C_15
REMARK                            x       y       z     vdW  Elec       q    Type
REMARK                         _______ _______ _______ _____ _____    ______ ____
ROOT
ATOM      1  C   UNL     1       2.563   5.940  19.114  0.00  0.00    +0.000 A 
ATOM      2  C   UNL     1       1.508   5.205  19.687  0.00  0.00    +0.000 A 
ATOM      3  C   UNL     1       1.236   3.910  19.262  0.00  0.00    +0.000 A 
ATOM      4  C   UNL     1       2.002   3.342  18.255  0.00  0.00    +0.000 A 
ATOM      5  C   UNL     1       3.029   4.083  17.658  0.00  0.00    +0.000 A 
ATOM      6  C   UNL     1       3.311   5.403  18.062  0.00  0.00    +0.000 A 
ENDROOT
BRANCH   6   7
ATOM      7  C   UNL     1       4.463   6.052  17.372  0.00  0.00    +0.000 C 
ATOM      8  O   UNL     1       4.172   6.864  16.488  0.00  0.00    +0.000 OA
ATOM      9  N   UNL     1       5.789   5.844  17.744  0.00  0.00    +0.000 N 
ATOM     10  C   UNL     1       6.310   4.974  18.800  0.00  0.00    +0.000 C 
ATOM     11  C   UNL     1       7.346   5.685  19.680  0.00  0.00    +0.000 C 
ATOM     12  O   UNL     1       8.356   6.342  18.908  0.00  0.00    +0.000 OA
ATOM     13  C   UNL     1       7.762   7.286  18.003  0.00  0.00    +0.000 C 
ATOM     14  C   UNL     1       6.843   6.564  17.015  0.00  0.00    +0.000 C 
ENDBRANCH   6   7
BRANCH   1  15
ATOM     15  O   UNL     1       2.756   7.270  19.525  0.00  0.00    +0.000 OA
BRANCH  15  16
ATOM     16  C   UNL     1       1.935   8.209  18.942  0.00  0.00    +0.000 C 
ATOM     17  O   UNL     1       1.851   8.458  17.751  0.00  0.00    +0.000 OA
BRANCH  16  22
ATOM     18  C   UNL     1      -1.102  10.773  23.151  0.00  0.00    +0.000 C 
ATOM     19  C   UNL     1      -0.333  10.100  22.052  0.00  0.00    +0.000 A 
ATOM     20  C   UNL     1       0.596   9.092  22.343  0.00  0.00    +0.000 A 
ATOM     21  C   UNL     1       1.335   8.493  21.322  0.00  0.00    +0.000 A 
ATOM     22  C   UNL     1       1.163   8.907  20.001  0.00  0.00    +0.000 A 
ATOM     23  C   UNL     1       0.211   9.895  19.698  0.00  0.00    +0.000 A 
ATOM     24  C   UNL     1      -0.533  10.486  20.721  0.00  0.00    +0.000 A 
ENDBRANCH  16  22
ENDBRANCH  15  16
ENDBRANCH   1  15
TORSDOF 4
ENDMDL
