MODEL 1
REMARK VINA RESULT:      -6.8      0.000      0.000
REMARK  Name = 
REMARK  8 active torsions:
REMARK  status: ('A' for Active; 'I' for Inactive)
REMARK    1  A    between atoms: C_1  and  C_2
REMARK    2  A    between atoms: C_2  and  O_3
REMARK    3  A    between atoms: O_3  and  C_4
REMARK    4  A    between atoms: C_7  and  S_8
REMARK    5  A    between atoms: S_8  and  N_11
REMARK    6  A    between atoms: N_11  and  C_12
REMARK    7  A    between atoms: C_12  and  C_13
REMARK    8  A    between atoms: C_12  and  C_14
REMARK                            x       y       z     vdW  Elec       q    Type
REMARK                         _______ _______ _______ _____ _____    ______ ____
ROOT
ATOM      1  S   UNL     1       3.507   2.504  17.860  0.00  0.00    +0.000 S 
ATOM      2  O   UNL     1       2.402   2.710  16.951  0.00  0.00    +0.000 OA
ATOM      3  O   UNL     1       4.173   1.225  17.968  0.00  0.00    +0.000 OA
ENDROOT
BRANCH   1   7
ATOM      4  C   UNL     1       6.633   5.709  16.949  0.00  0.00    +0.000 A 
ATOM      5  C   UNL     1       6.345   5.358  18.269  0.00  0.00    +0.000 A 
ATOM      6  C   UNL     1       5.400   4.371  18.551  0.00  0.00    +0.000 A 
ATOM      7  C   UNL     1       4.711   3.758  17.502  0.00  0.00    +0.000 A 
ATOM      8  C   UNL     1       4.981   4.112  16.175  0.00  0.00    +0.000 A 
ATOM      9  C   UNL     1       5.941   5.096  15.901  0.00  0.00    +0.000 A 
BRANCH   4  10
ATOM     10  O   UNL     1       7.585   6.679  16.815  0.00  0.00    +0.000 OA
BRANCH  10  12
ATOM     11  C   UNL     1       7.924   8.858  17.699  0.00  0.00    +0.000 C 
ATOM     12  C   UNL     1       7.966   7.371  18.004  0.00  0.00    +0.000 C 
ENDBRANCH  10  12
ENDBRANCH   4  10
ENDBRANCH   1   7
BRANCH   1  13
ATOM     13  N   UNL     1       2.932   2.919  19.386  0.00  0.00    +0.000 NA
ATOM     14  H   UNL     1       3.698   3.321  19.929  0.00  0.00    +0.000 HD
BRANCH  13  15
ATOM     15  C   UNL     1       1.643   3.635  19.510  0.00  0.00    +0.000 C 
ATOM     16  C   UNL     1       0.887   3.226  20.771  0.00  0.00    +0.000 C 
BRANCH  15  17
ATOM     17  C   UNL     1       1.842   5.145  19.530  0.00  0.00    +0.000 A 
ATOM     18  C   UNL     1       2.147   5.822  18.341  0.00  0.00    +0.000 A 
ATOM     19  C   UNL     1       2.280   7.203  18.368  0.00  0.00    +0.000 A 
ATOM     20  N   UNL     1       2.134   7.947  19.483  0.00  0.00    +0.000 NA
ATOM     21  C   UNL     1       1.833   7.284  20.619  0.00  0.00    +0.000 A 
ATOM     22  C   UNL     1       1.672   5.907  20.692  0.00  0.00    +0.000 A 
ENDBRANCH  15  17
ENDBRANCH  13  15
ENDBRANCH   1  13
TORSDOF 6
ENDMDL
MODEL 2
REMARK VINA RESULT:      -6.8      2.502      5.491
REMARK  Name = 
REMARK  8 active torsions:
REMARK  status: ('A' for Active; 'I' for Inactive)
REMARK    1  A    between atoms: C_1  and  C_2
REMARK    2  A    between atoms: C_2  and  O_3
REMARK    3  A    between atoms: O_3  and  C_4
REMARK    4  A    between atoms: C_7  and  S_8
REMARK    5  A    between atoms: S_8  and  N_11
REMARK    6  A    between atoms: N_11  and  C_12
REMARK    7  A    between atoms: C_12  and  C_13
REMARK    8  A    between atoms: C_12  and  C_14
REMARK                            x       y       z     vdW  Elec       q    Type
REMARK                         _______ _______ _______ _____ _____    ______ ____
ROOT
ATOM      1  S   UNL     1       3.320   3.748  17.614  0.00  0.00    +0.000 S 
ATOM      2  O   UNL     1       4.217   2.955  18.425  0.00  0.00    +0.000 OA
ATOM      3  O   UNL     1       2.198   3.154  16.921  0.00  0.00    +0.000 OA
ENDROOT
BRANCH   1   7
ATOM      4  C   UNL     1       1.789   7.171  20.222  0.00  0.00    +0.000 A 
ATOM      5  C   UNL     1       2.402   7.436  18.997  0.00  0.00    +0.000 A 
ATOM      6  C   UNL     1       2.860   6.394  18.192  0.00  0.00    +0.000 A 
ATOM      7  C   UNL     1       2.736   5.075  18.636  0.00  0.00    +0.000 A 
ATOM      8  C   UNL     1       2.135   4.798  19.870  0.00  0.00    +0.000 A 
ATOM      9  C   UNL     1       1.667   5.852  20.667  0.00  0.00    +0.000 A 
BRANCH   4  10
ATOM     10  O   UNL     1       1.377   8.282  20.903  0.00  0.00    +0.000 OA
BRANCH  10  12
ATOM     11  C   UNL     1       0.858  10.597  21.008  0.00  0.00    +0.000 C 
ATOM     12  C   UNL     1       0.882   9.366  20.119  0.00  0.00    +0.000 C 
ENDBRANCH  10  12
ENDBRANCH   4  10
ENDBRANCH   1   7
BRANCH   1  13
ATOM     13  N   UNL     1       4.289   4.514  16.470  0.00  0.00    +0.000 NA
ATOM     14  H   UNL     1       4.089   5.515  16.487  0.00  0.00    +0.000 HD
BRANCH  13  15
ATOM     15  C   UNL     1       5.725   4.170  16.384  0.00  0.00    +0.000 C 
ATOM     16  C   UNL     1       6.214   4.141  14.939  0.00  0.00    +0.000 C 
BRANCH  15  17
ATOM     17  C   UNL     1       6.583   5.155  17.168  0.00  0.00    +0.000 A 
ATOM     18  C   UNL     1       6.722   6.473  16.713  0.00  0.00    +0.000 A 
ATOM     19  C   UNL     1       7.470   7.368  17.463  0.00  0.00    +0.000 A 
ATOM     20  N   UNL     1       8.086   7.046  18.619  0.00  0.00    +0.000 NA
ATOM     21  C   UNL     1       7.939   5.776  19.049  0.00  0.00    +0.000 A 
ATOM     22  C   UNL     1       7.204   4.810  18.375  0.00  0.00    +0.000 A 
ENDBRANCH  15  17
ENDBRANCH  13  15
ENDBRANCH   1  13
TORSDOF 6
ENDMDL
MODEL 3
REMARK VINA RESULT:      -6.7      2.523      5.549
REMARK  Name = 
REMARK  8 active torsions:
REMARK  status: ('A' for Active; 'I' for Inactive)
REMARK    1  A    between atoms: C_1  and  C_2
REMARK    2  A    between atoms: C_2  and  O_3
REMARK    3  A    between atoms: O_3  and  C_4
REMARK    4  A    between atoms: C_7  and  S_8
REMARK    5  A    between atoms: S_8  and  N_11
REMARK    6  A    between atoms: N_11  and  C_12
REMARK    7  A    between atoms: C_12  and  C_13
REMARK    8  A    between atoms: C_12  and  C_14
REMARK                            x       y       z     vdW  Elec       q    Type
REMARK                         _______ _______ _______ _____ _____    ______ ____
ROOT
ATOM      1  S   UNL     1       3.250   3.867  17.913  0.00  0.00    +0.000 S 
ATOM      2  O   UNL     1       4.180   3.263  18.840  0.00  0.00    +0.000 OA
ATOM      3  O   UNL     1       2.105   3.144  17.405  0.00  0.00    +0.000 OA
ENDROOT
BRANCH   1   7
ATOM      4  C   UNL     1       1.857   7.770  19.835  0.00  0.00    +0.000 A 
ATOM      5  C   UNL     1       1.701   6.557  20.507  0.00  0.00    +0.000 A 
ATOM      6  C   UNL     1       2.136   5.365  19.929  0.00  0.00    +0.000 A 
ATOM      7  C   UNL     1       2.698   5.384  18.650  0.00  0.00    +0.000 A 
ATOM      8  C   UNL     1       2.847   6.594  17.961  0.00  0.00    +0.000 A 
ATOM      9  C   UNL     1       2.417   7.789  18.556  0.00  0.00    +0.000 A 
BRANCH   4  10
ATOM     10  O   UNL     1       1.399   8.860  20.520  0.00  0.00    +0.000 OA
BRANCH  10  12
ATOM     11  C   UNL     1      -0.125   9.264  22.297  0.00  0.00    +0.000 C 
ATOM     12  C   UNL     1       1.242   8.711  21.930  0.00  0.00    +0.000 C 
ENDBRANCH  10  12
ENDBRANCH   4  10
ENDBRANCH   1   7
BRANCH   1  13
ATOM     13  N   UNL     1       4.172   4.369  16.597  0.00  0.00    +0.000 NA
ATOM     14  H   UNL     1       3.932   5.337  16.377  0.00  0.00    +0.000 HD
BRANCH  13  15
ATOM     15  C   UNL     1       5.619   4.066  16.563  0.00  0.00    +0.000 C 
ATOM     16  C   UNL     1       6.131   3.909  15.134  0.00  0.00    +0.000 C 
BRANCH  15  17
ATOM     17  C   UNL     1       6.434   5.151  17.255  0.00  0.00    +0.000 A 
ATOM     18  C   UNL     1       7.227   4.826  18.364  0.00  0.00    +0.000 A 
ATOM     19  C   UNL     1       7.998   5.816  18.954  0.00  0.00    +0.000 A 
ATOM     20  N   UNL     1       8.032   7.094  18.525  0.00  0.00    +0.000 NA
ATOM     21  C   UNL     1       7.270   7.393  17.453  0.00  0.00    +0.000 A 
ATOM     22  C   UNL     1       6.472   6.471  16.788  0.00  0.00    +0.000 A 
ENDBRANCH  15  17
ENDBRANCH  13  15
ENDBRANCH   1  13
TORSDOF 6
ENDMDL
MODEL 4
REMARK VINA RESULT:      -6.7      2.536      5.502
REMARK  Name = 
REMARK  8 active torsions:
REMARK  status: ('A' for Active; 'I' for Inactive)
REMARK    1  A    between atoms: C_1  and  C_2
REMARK    2  A    between atoms: C_2  and  O_3
REMARK    3  A    between atoms: O_3  and  C_4
REMARK    4  A    between atoms: C_7  and  S_8
REMARK    5  A    between atoms: S_8  and  N_11
REMARK    6  A    between atoms: N_11  and  C_12
REMARK    7  A    between atoms: C_12  and  C_13
REMARK    8  A    between atoms: C_12  and  C_14
REMARK                            x       y       z     vdW  Elec       q    Type
REMARK                         _______ _______ _______ _____ _____    ______ ____
ROOT
ATOM      1  S   UNL     1       3.222   3.896  18.047  0.00  0.00    +0.000 S 
ATOM      2  O   UNL     1       4.152   3.304  18.982  0.00  0.00    +0.000 OA
ATOM      3  O   UNL     1       2.083   3.162  17.541  0.00  0.00    +0.000 OA
ENDROOT
BRANCH   1   7
ATOM      4  C   UNL     1       1.801   7.807  19.932  0.00  0.00    +0.000 A 
ATOM      5  C   UNL     1       1.639   6.598  20.609  0.00  0.00    +0.000 A 
ATOM      6  C   UNL     1       2.082   5.403  20.042  0.00  0.00    +0.000 A 
ATOM      7  C   UNL     1       2.660   5.416  18.770  0.00  0.00    +0.000 A 
ATOM      8  C   UNL     1       2.814   6.623  18.076  0.00  0.00    +0.000 A 
ATOM      9  C   UNL     1       2.376   7.820  18.659  0.00  0.00    +0.000 A 
BRANCH   4  10
ATOM     10  O   UNL     1       1.334   8.900  20.605  0.00  0.00    +0.000 OA
BRANCH  10  12
ATOM     11  C   UNL     1      -0.030   9.262  22.516  0.00  0.00    +0.000 C 
ATOM     12  C   UNL     1       1.341   8.826  22.030  0.00  0.00    +0.000 C 
ENDBRANCH  10  12
ENDBRANCH   4  10
ENDBRANCH   1   7
BRANCH   1  13
ATOM     13  N   UNL     1       4.145   4.392  16.730  0.00  0.00    +0.000 NA
ATOM     14  H   UNL     1       3.939   5.373  16.533  0.00  0.00    +0.000 HD
BRANCH  13  15
ATOM     15  C   UNL     1       5.580   4.037  16.671  0.00  0.00    +0.000 C 
ATOM     16  C   UNL     1       6.045   3.797  15.238  0.00  0.00    +0.000 C 
BRANCH  15  17
ATOM     17  C   UNL     1       6.451   5.124  17.289  0.00  0.00    +0.000 A 
ATOM     18  C   UNL     1       6.457   6.410  16.734  0.00  0.00    +0.000 A 
ATOM     19  C   UNL     1       7.220   7.400  17.336  0.00  0.00    +0.000 A 
ATOM     20  N   UNL     1       7.972   7.199  18.438  0.00  0.00    +0.000 NA
ATOM     21  C   UNL     1       7.951   5.958  18.967  0.00  0.00    +0.000 A 
ATOM     22  C   UNL     1       7.214   4.905  18.443  0.00  0.00    +0.000 A 
ENDBRANCH  15  17
ENDBRANCH  13  15
ENDBRANCH   1  13
TORSDOF 6
ENDMDL
MODEL 5
REMARK VINA RESULT:      -6.6      1.907      3.161
REMARK  Name = 
REMARK  8 active torsions:
REMARK  status: ('A' for Active; 'I' for Inactive)
REMARK    1  A    between atoms: C_1  and  C_2
REMARK    2  A    between atoms: C_2  and  O_3
REMARK    3  A    between atoms: O_3  and  C_4
REMARK    4  A    between atoms: C_7  and  S_8
REMARK    5  A    between atoms: S_8  and  N_11
REMARK    6  A    between atoms: N_11  and  C_12
REMARK    7  A    between atoms: C_12  and  C_13
REMARK    8  A    between atoms: C_12  and  C_14
REMARK                            x       y       z     vdW  Elec       q    Type
REMARK                         _______ _______ _______ _____ _____    ______ ____
ROOT
ATOM      1  S   UNL     1       4.868   4.352  17.085  0.00  0.00    +0.000 S 
ATOM      2  O   UNL     1       5.057   4.151  15.665  0.00  0.00    +0.000 OA
ATOM      3  O   UNL     1       4.848   3.243  18.013  0.00  0.00    +0.000 OA
ENDROOT
BRANCH   1   7
ATOM      4  C   UNL     1       7.996   7.391  18.444  0.00  0.00    +0.000 A 
ATOM      5  C   UNL     1       7.134   7.689  17.388  0.00  0.00    +0.000 A 
ATOM      6  C   UNL     1       6.170   6.769  16.978  0.00  0.00    +0.000 A 
ATOM      7  C   UNL     1       6.094   5.524  17.607  0.00  0.00    +0.000 A 
ATOM      8  C   UNL     1       6.963   5.209  18.658  0.00  0.00    +0.000 A 
ATOM      9  C   UNL     1       7.922   6.145  19.071  0.00  0.00    +0.000 A 
BRANCH   4  10
ATOM     10  O   UNL     1       8.883   8.384  18.750  0.00  0.00    +0.000 OA
BRANCH  10  12
ATOM     11  C   UNL     1       9.439  10.681  18.996  0.00  0.00    +0.000 C 
ATOM     12  C   UNL     1       8.603   9.679  18.218  0.00  0.00    +0.000 C 
ENDBRANCH  10  12
ENDBRANCH   4  10
ENDBRANCH   1   7
BRANCH   1  13
ATOM     13  N   UNL     1       3.416   5.188  17.242  0.00  0.00    +0.000 NA
ATOM     14  H   UNL     1       2.675   4.649  16.790  0.00  0.00    +0.000 HD
BRANCH  13  15
ATOM     15  C   UNL     1       3.048   5.769  18.551  0.00  0.00    +0.000 C 
ATOM     16  C   UNL     1       2.132   6.980  18.396  0.00  0.00    +0.000 C 
BRANCH  15  17
ATOM     17  C   UNL     1       2.355   4.747  19.443  0.00  0.00    +0.000 A 
ATOM     18  C   UNL     1       1.420   3.861  18.889  0.00  0.00    +0.000 A 
ATOM     19  C   UNL     1       0.831   2.906  19.705  0.00  0.00    +0.000 A 
ATOM     20  N   UNL     1       1.103   2.775  21.020  0.00  0.00    +0.000 NA
ATOM     21  C   UNL     1       2.010   3.629  21.538  0.00  0.00    +0.000 A 
ATOM     22  C   UNL     1       2.658   4.611  20.803  0.00  0.00    +0.000 A 
ENDBRANCH  15  17
ENDBRANCH  13  15
ENDBRANCH   1  13
TORSDOF 6
ENDMDL
MODEL 6
REMARK VINA RESULT:      -6.6      2.733      4.671
REMARK  Name = 
REMARK  8 active torsions:
REMARK  status: ('A' for Active; 'I' for Inactive)
REMARK    1  A    between atoms: C_1  and  C_2
REMARK    2  A    between atoms: C_2  and  O_3
REMARK    3  A    between atoms: O_3  and  C_4
REMARK    4  A    between atoms: C_7  and  S_8
REMARK    5  A    between atoms: S_8  and  N_11
REMARK    6  A    between atoms: N_11  and  C_12
REMARK    7  A    between atoms: C_12  and  C_13
REMARK    8  A    between atoms: C_12  and  C_14
REMARK                            x       y       z     vdW  Elec       q    Type
REMARK                         _______ _______ _______ _____ _____    ______ ____
ROOT
ATOM      1  S   UNL     1       5.719   5.469  17.809  0.00  0.00    +0.000 S 
ATOM      2  O   UNL     1       5.750   4.296  18.654  0.00  0.00    +0.000 OA
ATOM      3  O   UNL     1       6.545   6.625  18.083  0.00  0.00    +0.000 OA
ENDROOT
BRANCH   1   7
ATOM      4  C   UNL     1       6.472   4.072  13.526  0.00  0.00    +0.000 A 
ATOM      5  C   UNL     1       5.329   3.660  14.213  0.00  0.00    +0.000 A 
ATOM      6  C   UNL     1       5.089   4.094  15.516  0.00  0.00    +0.000 A 
ATOM      7  C   UNL     1       6.022   4.918  16.150  0.00  0.00    +0.000 A 
ATOM      8  C   UNL     1       7.179   5.326  15.476  0.00  0.00    +0.000 A 
ATOM      9  C   UNL     1       7.405   4.894  14.161  0.00  0.00    +0.000 A 
BRANCH   4  10
ATOM     10  O   UNL     1       6.577   3.583  12.255  0.00  0.00    +0.000 OA
BRANCH  10  12
ATOM     11  C   UNL     1       6.154   1.467  11.260  0.00  0.00    +0.000 C 
ATOM     12  C   UNL     1       5.520   2.735  11.806  0.00  0.00    +0.000 C 
ENDBRANCH  10  12
ENDBRANCH   4  10
ENDBRANCH   1   7
BRANCH   1  13
ATOM     13  N   UNL     1       4.114   5.975  17.781  0.00  0.00    +0.000 NA
ATOM     14  H   UNL     1       3.629   5.489  17.025  0.00  0.00    +0.000 HD
BRANCH  13  15
ATOM     15  C   UNL     1       3.356   6.063  19.048  0.00  0.00    +0.000 C 
ATOM     16  C   UNL     1       2.499   7.325  19.108  0.00  0.00    +0.000 C 
BRANCH  15  17
ATOM     17  C   UNL     1       2.452   4.852  19.245  0.00  0.00    +0.000 A 
ATOM     18  C   UNL     1       1.906   4.590  20.509  0.00  0.00    +0.000 A 
ATOM     19  C   UNL     1       1.050   3.510  20.661  0.00  0.00    +0.000 A 
ATOM     20  N   UNL     1       0.705   2.680  19.655  0.00  0.00    +0.000 NA
ATOM     21  C   UNL     1       1.232   2.948  18.442  0.00  0.00    +0.000 A 
ATOM     22  C   UNL     1       2.090   4.009  18.188  0.00  0.00    +0.000 A 
ENDBRANCH  15  17
ENDBRANCH  13  15
ENDBRANCH   1  13
TORSDOF 6
ENDMDL
MODEL 7
REMARK VINA RESULT:      -6.6      2.421      4.303
REMARK  Name = 
REMARK  8 active torsions:
REMARK  status: ('A' for Active; 'I' for Inactive)
REMARK    1  A    between atoms: C_1  and  C_2
REMARK    2  A    between atoms: C_2  and  O_3
REMARK    3  A    between atoms: O_3  and  C_4
REMARK    4  A    between atoms: C_7  and  S_8
REMARK    5  A    between atoms: S_8  and  N_11
REMARK    6  A    between atoms: N_11  and  C_12
REMARK    7  A    between atoms: C_12  and  C_13
REMARK    8  A    between atoms: C_12  and  C_14
REMARK                            x       y       z     vdW  Elec       q    Type
REMARK                         _______ _______ _______ _____ _____    ______ ____
ROOT
ATOM      1  S   UNL     1       5.559   4.867  18.917  0.00  0.00    +0.000 S 
ATOM      2  O   UNL     1       5.123   3.586  19.427  0.00  0.00    +0.000 OA
ATOM      3  O   UNL     1       6.623   5.614  19.550  0.00  0.00    +0.000 OA
ENDROOT
BRANCH   1   7
ATOM      4  C   UNL     1       6.549   4.284  14.495  0.00  0.00    +0.000 A 
ATOM      5  C   UNL     1       5.418   3.683  15.051  0.00  0.00    +0.000 A 
ATOM      6  C   UNL     1       5.106   3.869  16.397  0.00  0.00    +0.000 A 
ATOM      7  C   UNL     1       5.954   4.632  17.203  0.00  0.00    +0.000 A 
ATOM      8  C   UNL     1       7.099   5.228  16.659  0.00  0.00    +0.000 A 
ATOM      9  C   UNL     1       7.398   5.045  15.302  0.00  0.00    +0.000 A 
BRANCH   4  10
ATOM     10  O   UNL     1       6.730   4.030  13.165  0.00  0.00    +0.000 OA
BRANCH  10  12
ATOM     11  C   UNL     1       6.268   2.267  11.642  0.00  0.00    +0.000 C 
ATOM     12  C   UNL     1       5.660   3.372  12.488  0.00  0.00    +0.000 C 
ENDBRANCH  10  12
ENDBRANCH   4  10
ENDBRANCH   1   7
BRANCH   1  13
ATOM     13  N   UNL     1       4.187   5.842  18.886  0.00  0.00    +0.000 NA
ATOM     14  H   UNL     1       3.797   5.832  17.942  0.00  0.00    +0.000 HD
BRANCH  13  15
ATOM     15  C   UNL     1       3.188   5.728  19.971  0.00  0.00    +0.000 C 
ATOM     16  C   UNL     1       2.237   6.922  19.991  0.00  0.00    +0.000 C 
BRANCH  15  17
ATOM     17  C   UNL     1       2.366   4.453  19.842  0.00  0.00    +0.000 A 
ATOM     18  C   UNL     1       2.067   3.699  20.985  0.00  0.00    +0.000 A 
ATOM     19  C   UNL     1       1.279   2.565  20.858  0.00  0.00    +0.000 A 
ATOM     20  N   UNL     1       0.776   2.132  19.684  0.00  0.00    +0.000 NA
ATOM     21  C   UNL     1       1.064   2.871  18.592  0.00  0.00    +0.000 A 
ATOM     22  C   UNL     1       1.835   4.024  18.619  0.00  0.00    +0.000 A 
ENDBRANCH  15  17
ENDBRANCH  13  15
ENDBRANCH   1  13
TORSDOF 6
ENDMDL
MODEL 8
REMARK VINA RESULT:      -6.5      2.998      4.920
REMARK  Name = 
REMARK  8 active torsions:
REMARK  status: ('A' for Active; 'I' for Inactive)
REMARK    1  A    between atoms: C_1  and  C_2
REMARK    2  A    between atoms: C_2  and  O_3
REMARK    3  A    between atoms: O_3  and  C_4
REMARK    4  A    between atoms: C_7  and  S_8
REMARK    5  A    between atoms: S_8  and  N_11
REMARK    6  A    between atoms: N_11  and  C_12
REMARK    7  A    between atoms: C_12  and  C_13
REMARK    8  A    between atoms: C_12  and  C_14
REMARK                            x       y       z     vdW  Elec       q    Type
REMARK                         _______ _______ _______ _____ _____    ______ ____
ROOT
ATOM      1  S   UNL     1       7.227   4.925  17.409  0.00  0.00    +0.000 S 
ATOM      2  O   UNL     1       8.318   4.069  17.819  0.00  0.00    +0.000 OA
ATOM      3  O   UNL     1       7.274   6.359  17.597  0.00  0.00    +0.000 OA
ENDROOT
BRANCH   1   7
ATOM      4  C   UNL     1       6.374   4.037  13.011  0.00  0.00    +0.000 A 
ATOM      5  C   UNL     1       5.629   3.416  14.014  0.00  0.00    +0.000 A 
ATOM      6  C   UNL     1       5.877   3.694  15.358  0.00  0.00    +0.000 A 
ATOM      7  C   UNL     1       6.908   4.573  15.700  0.00  0.00    +0.000 A 
ATOM      8  C   UNL     1       7.671   5.191  14.702  0.00  0.00    +0.000 A 
ATOM      9  C   UNL     1       7.405   4.915  13.353  0.00  0.00    +0.000 A 
BRANCH   4  10
ATOM     10  O   UNL     1       6.018   3.684  11.740  0.00  0.00    +0.000 OA
BRANCH  10  12
ATOM     11  C   UNL     1       3.843   3.252  10.890  0.00  0.00    +0.000 C 
ATOM     12  C   UNL     1       5.039   2.655  11.611  0.00  0.00    +0.000 C 
ENDBRANCH  10  12
ENDBRANCH   4  10
ENDBRANCH   1   7
BRANCH   1  13
ATOM     13  N   UNL     1       5.862   4.343  18.204  0.00  0.00    +0.000 NA
ATOM     14  H   UNL     1       6.151   3.633  18.879  0.00  0.00    +0.000 HD
BRANCH  13  15
ATOM     15  C   UNL     1       4.848   5.297  18.705  0.00  0.00    +0.000 C 
ATOM     16  C   UNL     1       4.138   6.020  17.564  0.00  0.00    +0.000 C 
BRANCH  15  17
ATOM     17  C   UNL     1       3.802   4.600  19.565  0.00  0.00    +0.000 A 
ATOM     18  C   UNL     1       3.968   3.251  19.907  0.00  0.00    +0.000 A 
ATOM     19  C   UNL     1       3.029   2.644  20.728  0.00  0.00    +0.000 A 
ATOM     20  N   UNL     1       1.948   3.278  21.225  0.00  0.00    +0.000 NA
ATOM     21  C   UNL     1       1.804   4.579  20.895  0.00  0.00    +0.000 A 
ATOM     22  C   UNL     1       2.692   5.276  20.088  0.00  0.00    +0.000 A 
ENDBRANCH  15  17
ENDBRANCH  13  15
ENDBRANCH   1  13
TORSDOF 6
ENDMDL
MODEL 9
REMARK VINA RESULT:      -6.5      1.481      2.288
REMARK  Name = 
REMARK  8 active torsions:
REMARK  status: ('A' for Active; 'I' for Inactive)
REMARK    1  A    between atoms: C_1  and  C_2
REMARK    2  A    between atoms: C_2  and  O_3
REMARK    3  A    between atoms: O_3  and  C_4
REMARK    4  A    between atoms: C_7  and  S_8
REMARK    5  A    between atoms: S_8  and  N_11
REMARK    6  A    between atoms: N_11  and  C_12
REMARK    7  A    between atoms: C_12  and  C_13
REMARK    8  A    between atoms: C_12  and  C_14
REMARK                            x       y       z     vdW  Elec       q    Type
REMARK                         _______ _______ _______ _____ _____    ______ ____
ROOT
ATOM      1  S   UNL     1       4.192   2.720  19.404  0.00  0.00    +0.000 S 
ATOM      2  O   UNL     1       3.222   1.864  18.759  0.00  0.00    +0.000 OA
ATOM      3  O   UNL     1       5.166   2.196  20.336  0.00  0.00    +0.000 OA
ENDROOT
BRANCH   1   7
ATOM      4  C   UNL     1       6.335   5.018  16.088  0.00  0.00    +0.000 A 
ATOM      5  C   UNL     1       5.269   4.171  15.785  0.00  0.00    +0.000 A 
ATOM      6  C   UNL     1       4.603   3.477  16.795  0.00  0.00    +0.000 A 
ATOM      7  C   UNL     1       5.036   3.604  18.118  0.00  0.00    +0.000 A 
ATOM      8  C   UNL     1       6.115   4.440  18.432  0.00  0.00    +0.000 A 
ATOM      9  C   UNL     1       6.769   5.143  17.411  0.00  0.00    +0.000 A 
BRANCH   4  10
ATOM     10  O   UNL     1       6.888   5.644  15.007  0.00  0.00    +0.000 OA
BRANCH  10  12
ATOM     11  C   UNL     1       8.078   5.566  12.953  0.00  0.00    +0.000 C 
ATOM     12  C   UNL     1       7.062   4.856  13.831  0.00  0.00    +0.000 C 
ENDBRANCH  10  12
ENDBRANCH   4  10
ENDBRANCH   1   7
BRANCH   1  13
ATOM     13  N   UNL     1       3.303   3.909  20.196  0.00  0.00    +0.000 NA
ATOM     14  H   UNL     1       3.942   4.638  20.519  0.00  0.00    +0.000 HD
BRANCH  13  15
ATOM     15  C   UNL     1       2.049   4.407  19.590  0.00  0.00    +0.000 C 
ATOM     16  C   UNL     1       0.826   4.006  20.410  0.00  0.00    +0.000 C 
BRANCH  15  17
ATOM     17  C   UNL     1       2.062   5.924  19.446  0.00  0.00    +0.000 A 
ATOM     18  C   UNL     1       2.409   6.503  18.218  0.00  0.00    +0.000 A 
ATOM     19  C   UNL     1       2.372   7.883  18.089  0.00  0.00    +0.000 A 
ATOM     20  N   UNL     1       2.020   8.718  19.088  0.00  0.00    +0.000 NA
ATOM     21  C   UNL     1       1.681   8.148  20.263  0.00  0.00    +0.000 A 
ATOM     22  C   UNL     1       1.679   6.778  20.487  0.00  0.00    +0.000 A 
ENDBRANCH  15  17
ENDBRANCH  13  15
ENDBRANCH   1  13
TORSDOF 6
ENDMDL
