MODEL 1
REMARK VINA RESULT:      -5.2      0.000      0.000
REMARK  Name = 
REMARK  4 active torsions:
REMARK  status: ('A' for Active; 'I' for Inactive)
REMARK    1  A    between atoms: C_1  and  C_2
REMARK    2  A    between atoms: C_2  and  O_3
REMARK    3  A    between atoms: O_3  and  C_4
REMARK    4  A    between atoms: C_4  and  C_6
REMARK                            x       y       z     vdW  Elec       q    Type
REMARK                         _______ _______ _______ _____ _____    ______ ____
ROOT
ATOM      1  C   UNL     1       6.202   4.866  16.027  0.00  0.00    +0.000 C 
ATOM      2  C   UNL     1       7.116   4.598  17.218  0.00  0.00    +0.000 C 
ATOM      3  C   UNL     1       7.532   5.960  17.765  0.00  0.00    +0.000 C 
ATOM      4  C   UNL     1       6.401   6.924  17.432  0.00  0.00    +0.000 C 
ATOM      5  C   UNL     1       5.775   6.292  16.225  0.00  0.00    +0.000 C 
ATOM      6  O   UNL     1       4.966   6.869  15.505  0.00  0.00    +0.000 OA
ENDROOT
BRANCH   1   7
ATOM      7  C   UNL     1       6.875   4.695  14.696  0.00  0.00    +0.000 C 
ATOM      8  O   UNL     1       7.788   5.397  14.285  0.00  0.00    +0.000 OA
BRANCH   7   9
ATOM      9  O   UNL     1       6.276   3.685  14.008  0.00  0.00    +0.000 OA
BRANCH   9  11
ATOM     10  C   UNL     1       5.192   3.170  11.940  0.00  0.00    +0.000 C 
ATOM     11  C   UNL     1       6.456   3.712  12.586  0.00  0.00    +0.000 C 
ENDBRANCH   9  11
ENDBRANCH   7   9
ENDBRANCH   1   7
TORSDOF 3
ENDMDL
MODEL 2
REMARK VINA RESULT:      -5.2      2.874      4.577
REMARK  Name = 
REMARK  4 active torsions:
REMARK  status: ('A' for Active; 'I' for Inactive)
REMARK    1  A    between atoms: C_1  and  C_2
REMARK    2  A    between atoms: C_2  and  O_3
REMARK    3  A    between atoms: O_3  and  C_4
REMARK    4  A    between atoms: C_4  and  C_6
REMARK                            x       y       z     vdW  Elec       q    Type
REMARK                         _______ _______ _______ _____ _____    ______ ____
ROOT
ATOM      1  C   UNL     1       5.802   5.821  17.617  0.00  0.00    +0.000 C 
ATOM      2  C   UNL     1       4.639   5.358  16.744  0.00  0.00    +0.000 C 
ATOM      3  C   UNL     1       4.274   3.953  17.213  0.00  0.00    +0.000 C 
ATOM      4  C   UNL     1       4.651   3.876  18.686  0.00  0.00    +0.000 C 
ATOM      5  C   UNL     1       5.743   4.897  18.800  0.00  0.00    +0.000 C 
ATOM      6  O   UNL     1       6.478   4.992  19.778  0.00  0.00    +0.000 OA
ENDROOT
BRANCH   1   7
ATOM      7  C   UNL     1       7.139   5.732  16.943  0.00  0.00    +0.000 C 
ATOM      8  O   UNL     1       7.679   4.687  16.606  0.00  0.00    +0.000 OA
BRANCH   7   9
ATOM      9  O   UNL     1       7.673   6.979  16.819  0.00  0.00    +0.000 OA
BRANCH   9  11
ATOM     10  C   UNL     1       8.063   9.130  17.785  0.00  0.00    +0.000 C 
ATOM     11  C   UNL     1       8.004   7.635  18.050  0.00  0.00    +0.000 C 
ENDBRANCH   9  11
ENDBRANCH   7   9
ENDBRANCH   1   7
TORSDOF 3
ENDMDL
MODEL 3
REMARK VINA RESULT:      -5.2      3.125      4.311
REMARK  Name = 
REMARK  4 active torsions:
REMARK  status: ('A' for Active; 'I' for Inactive)
REMARK    1  A    between atoms: C_1  and  C_2
REMARK    2  A    between atoms: C_2  and  O_3
REMARK    3  A    between atoms: O_3  and  C_4
REMARK    4  A    between atoms: C_4  and  C_6
REMARK                            x       y       z     vdW  Elec       q    Type
REMARK                         _______ _______ _______ _____ _____    ______ ____
ROOT
ATOM      1  C   UNL     1       7.095   4.814  17.986  0.00  0.00    +0.000 C 
ATOM      2  C   UNL     1       7.202   5.677  16.733  0.00  0.00    +0.000 C 
ATOM      3  C   UNL     1       7.348   7.119  17.208  0.00  0.00    +0.000 C 
ATOM      4  C   UNL     1       8.022   7.060  18.572  0.00  0.00    +0.000 C 
ATOM      5  C   UNL     1       7.635   5.701  19.072  0.00  0.00    +0.000 C 
ATOM      6  O   UNL     1       7.787   5.341  20.234  0.00  0.00    +0.000 OA
ENDROOT
BRANCH   1   7
ATOM      7  C   UNL     1       5.695   4.379  18.306  0.00  0.00    +0.000 C 
ATOM      8  O   UNL     1       5.372   3.765  19.313  0.00  0.00    +0.000 OA
BRANCH   7   9
ATOM      9  O   UNL     1       4.865   4.722  17.282  0.00  0.00    +0.000 OA
BRANCH   9  11
ATOM     10  C   UNL     1       3.689   6.728  17.834  0.00  0.00    +0.000 C 
ATOM     11  C   UNL     1       3.579   5.222  17.670  0.00  0.00    +0.000 C 
ENDBRANCH   9  11
ENDBRANCH   7   9
ENDBRANCH   1   7
TORSDOF 3
ENDMDL
MODEL 4
REMARK VINA RESULT:      -5.1      4.844      6.051
REMARK  Name = 
REMARK  4 active torsions:
REMARK  status: ('A' for Active; 'I' for Inactive)
REMARK    1  A    between atoms: C_1  and  C_2
REMARK    2  A    between atoms: C_2  and  O_3
REMARK    3  A    between atoms: O_3  and  C_4
REMARK    4  A    between atoms: C_4  and  C_6
REMARK                            x       y       z     vdW  Elec       q    Type
REMARK                         _______ _______ _______ _____ _____    ______ ____
ROOT
ATOM      1  C   UNL     1       4.665   3.436  18.498  0.00  0.00    +0.000 C 
ATOM      2  C   UNL     1       3.523   3.743  17.534  0.00  0.00    +0.000 C 
ATOM      3  C   UNL     1       3.071   5.169  17.832  0.00  0.00    +0.000 C 
ATOM      4  C   UNL     1       4.288   5.904  18.375  0.00  0.00    +0.000 C 
ATOM      5  C   UNL     1       5.110   4.794  18.960  0.00  0.00    +0.000 C 
ATOM      6  O   UNL     1       6.070   4.983  19.699  0.00  0.00    +0.000 OA
ENDROOT
BRANCH   1   7
ATOM      7  C   UNL     1       4.260   2.586  19.666  0.00  0.00    +0.000 C 
ATOM      8  O   UNL     1       5.041   1.997  20.399  0.00  0.00    +0.000 OA
BRANCH   7   9
ATOM      9  O   UNL     1       2.901   2.532  19.743  0.00  0.00    +0.000 OA
BRANCH   9  11
ATOM     10  C   UNL     1       1.128   3.848  20.658  0.00  0.00    +0.000 C 
ATOM     11  C   UNL     1       2.333   2.981  20.981  0.00  0.00    +0.000 C 
ENDBRANCH   9  11
ENDBRANCH   7   9
ENDBRANCH   1   7
TORSDOF 3
ENDMDL
MODEL 5
REMARK VINA RESULT:      -5.0      2.284      3.033
REMARK  Name = 
REMARK  4 active torsions:
REMARK  status: ('A' for Active; 'I' for Inactive)
REMARK    1  A    between atoms: C_1  and  C_2
REMARK    2  A    between atoms: C_2  and  O_3
REMARK    3  A    between atoms: O_3  and  C_4
REMARK    4  A    between atoms: C_4  and  C_6
REMARK                            x       y       z     vdW  Elec       q    Type
REMARK                         _______ _______ _______ _____ _____    ______ ____
ROOT
ATOM      1  C   UNL     1       6.671   5.837  18.091  0.00  0.00    +0.000 C 
ATOM      2  C   UNL     1       6.058   7.004  17.323  0.00  0.00    +0.000 C 
ATOM      3  C   UNL     1       4.591   6.654  17.094  0.00  0.00    +0.000 C 
ATOM      4  C   UNL     1       4.178   5.747  18.245  0.00  0.00    +0.000 C 
ATOM      5  C   UNL     1       5.478   5.120  18.654  0.00  0.00    +0.000 C 
ATOM      6  O   UNL     1       5.554   4.153  19.404  0.00  0.00    +0.000 OA
ENDROOT
BRANCH   1   7
ATOM      7  C   UNL     1       7.489   4.913  17.237  0.00  0.00    +0.000 C 
ATOM      8  O   UNL     1       8.280   4.087  17.669  0.00  0.00    +0.000 OA
BRANCH   7   9
ATOM      9  O   UNL     1       7.255   5.178  15.922  0.00  0.00    +0.000 OA
BRANCH   9  11
ATOM     10  C   UNL     1       5.507   4.449  14.463  0.00  0.00    +0.000 C 
ATOM     11  C   UNL     1       6.815   4.064  15.134  0.00  0.00    +0.000 C 
ENDBRANCH   9  11
ENDBRANCH   7   9
ENDBRANCH   1   7
TORSDOF 3
ENDMDL
MODEL 6
REMARK VINA RESULT:      -5.0      6.067      7.606
REMARK  Name = 
REMARK  4 active torsions:
REMARK  status: ('A' for Active; 'I' for Inactive)
REMARK    1  A    between atoms: C_1  and  C_2
REMARK    2  A    between atoms: C_2  and  O_3
REMARK    3  A    between atoms: O_3  and  C_4
REMARK    4  A    between atoms: C_4  and  C_6
REMARK                            x       y       z     vdW  Elec       q    Type
REMARK                         _______ _______ _______ _____ _____    ______ ____
ROOT
ATOM      1  C   UNL     1       1.872   2.193  19.759  0.00  0.00    +0.000 C 
ATOM      2  C   UNL     1       1.075   2.556  18.509  0.00  0.00    +0.000 C 
ATOM      3  C   UNL     1       2.009   3.364  17.615  0.00  0.00    +0.000 C 
ATOM      4  C   UNL     1       3.423   2.894  17.929  0.00  0.00    +0.000 C 
ATOM      5  C   UNL     1       3.299   2.392  19.336  0.00  0.00    +0.000 C 
ATOM      6  O   UNL     1       4.264   2.132  20.047  0.00  0.00    +0.000 OA
ENDROOT
BRANCH   1   7
ATOM      7  C   UNL     1       1.549   3.043  20.952  0.00  0.00    +0.000 C 
ATOM      8  O   UNL     1       1.574   2.652  22.110  0.00  0.00    +0.000 OA
BRANCH   7   9
ATOM      9  O   UNL     1       1.174   4.286  20.540  0.00  0.00    +0.000 OA
BRANCH   9  11
ATOM     10  C   UNL     1       2.334   6.211  19.727  0.00  0.00    +0.000 C 
ATOM     11  C   UNL     1       2.032   5.359  20.948  0.00  0.00    +0.000 C 
ENDBRANCH   9  11
ENDBRANCH   7   9
ENDBRANCH   1   7
TORSDOF 3
ENDMDL
MODEL 7
REMARK VINA RESULT:      -5.0      5.013      6.276
REMARK  Name = 
REMARK  4 active torsions:
REMARK  status: ('A' for Active; 'I' for Inactive)
REMARK    1  A    between atoms: C_1  and  C_2
REMARK    2  A    between atoms: C_2  and  O_3
REMARK    3  A    between atoms: O_3  and  C_4
REMARK    4  A    between atoms: C_4  and  C_6
REMARK                            x       y       z     vdW  Elec       q    Type
REMARK                         _______ _______ _______ _____ _____    ______ ____
ROOT
ATOM      1  C   UNL     1       3.285   3.853  18.934  0.00  0.00    +0.000 C 
ATOM      2  C   UNL     1       2.532   3.015  17.905  0.00  0.00    +0.000 C 
ATOM      3  C   UNL     1       1.400   2.318  18.654  0.00  0.00    +0.000 C 
ATOM      4  C   UNL     1       1.038   3.219  19.826  0.00  0.00    +0.000 C 
ATOM      5  C   UNL     1       2.313   3.967  20.074  0.00  0.00    +0.000 C 
ATOM      6  O   UNL     1       2.519   4.636  21.081  0.00  0.00    +0.000 OA
ENDROOT
BRANCH   1   7
ATOM      7  C   UNL     1       4.572   3.234  19.396  0.00  0.00    +0.000 C 
ATOM      8  O   UNL     1       4.650   2.301  20.182  0.00  0.00    +0.000 OA
BRANCH   7   9
ATOM      9  O   UNL     1       5.623   3.906  18.850  0.00  0.00    +0.000 OA
BRANCH   9  11
ATOM     10  C   UNL     1       7.228   5.655  19.136  0.00  0.00    +0.000 C 
ATOM     11  C   UNL     1       5.762   5.274  19.256  0.00  0.00    +0.000 C 
ENDBRANCH   9  11
ENDBRANCH   7   9
ENDBRANCH   1   7
TORSDOF 3
ENDMDL
MODEL 8
REMARK VINA RESULT:      -5.0      5.215      6.427
REMARK  Name = 
REMARK  4 active torsions:
REMARK  status: ('A' for Active; 'I' for Inactive)
REMARK    1  A    between atoms: C_1  and  C_2
REMARK    2  A    between atoms: C_2  and  O_3
REMARK    3  A    between atoms: O_3  and  C_4
REMARK    4  A    between atoms: C_4  and  C_6
REMARK                            x       y       z     vdW  Elec       q    Type
REMARK                         _______ _______ _______ _____ _____    ______ ____
ROOT
ATOM      1  C   UNL     1       3.216   2.870  20.037  0.00  0.00    +0.000 C 
ATOM      2  C   UNL     1       2.221   3.425  21.052  0.00  0.00    +0.000 C 
ATOM      3  C   UNL     1       0.941   3.736  20.283  0.00  0.00    +0.000 C 
ATOM      4  C   UNL     1       0.898   2.772  19.106  0.00  0.00    +0.000 C 
ATOM      5  C   UNL     1       2.348   2.462  18.881  0.00  0.00    +0.000 C 
ATOM      6  O   UNL     1       2.769   1.895  17.878  0.00  0.00    +0.000 OA
ENDROOT
BRANCH   1   7
ATOM      7  C   UNL     1       4.252   3.862  19.598  0.00  0.00    +0.000 C 
ATOM      8  O   UNL     1       5.396   3.574  19.277  0.00  0.00    +0.000 OA
BRANCH   7   9
ATOM      9  O   UNL     1       3.737   5.121  19.666  0.00  0.00    +0.000 OA
BRANCH   9  11
ATOM     10  C   UNL     1       2.503   6.628  18.280  0.00  0.00    +0.000 C 
ATOM     11  C   UNL     1       3.819   5.890  18.458  0.00  0.00    +0.000 C 
ENDBRANCH   9  11
ENDBRANCH   7   9
ENDBRANCH   1   7
TORSDOF 3
ENDMDL
MODEL 9
REMARK VINA RESULT:      -5.0      2.378      3.276
REMARK  Name = 
REMARK  4 active torsions:
REMARK  status: ('A' for Active; 'I' for Inactive)
REMARK    1  A    between atoms: C_1  and  C_2
REMARK    2  A    between atoms: C_2  and  O_3
REMARK    3  A    between atoms: O_3  and  C_4
REMARK    4  A    between atoms: C_4  and  C_6
REMARK                            x       y       z     vdW  Elec       q    Type
REMARK                         _______ _______ _______ _____ _____    ______ ____
ROOT
ATOM      1  C   UNL     1       5.398   6.212  17.889  0.00  0.00    +0.000 C 
ATOM      2  C   UNL     1       4.138   5.607  17.279  0.00  0.00    +0.000 C 
ATOM      3  C   UNL     1       4.167   4.117  17.605  0.00  0.00    +0.000 C 
ATOM      4  C   UNL     1       4.946   3.974  18.906  0.00  0.00    +0.000 C 
ATOM      5  C   UNL     1       5.832   5.184  18.894  0.00  0.00    +0.000 C 
ATOM      6  O   UNL     1       6.781   5.333  19.657  0.00  0.00    +0.000 OA
ENDROOT
BRANCH   1   7
ATOM      7  C   UNL     1       6.490   6.472  16.893  0.00  0.00    +0.000 C 
ATOM      8  O   UNL     1       7.508   7.107  17.130  0.00  0.00    +0.000 OA
BRANCH   7   9
ATOM      9  O   UNL     1       6.143   5.945  15.687  0.00  0.00    +0.000 OA
BRANCH   9  11
ATOM     10  C   UNL     1       6.145   3.933  14.396  0.00  0.00    +0.000 C 
ATOM     11  C   UNL     1       6.997   4.902  15.198  0.00  0.00    +0.000 C 
ENDBRANCH   9  11
ENDBRANCH   7   9
ENDBRANCH   1   7
TORSDOF 3
ENDMDL
