MODEL 1
REMARK VINA RESULT:      -7.0      0.000      0.000
REMARK  Name = 
REMARK  2 active torsions:
REMARK  status: ('A' for Active; 'I' for Inactive)
REMARK    1  A    between atoms: C_4  and  N_5
REMARK    2  A    between atoms: C_22  and  N_23
REMARK                            x       y       z     vdW  Elec       q    Type
REMARK                         _______ _______ _______ _____ _____    ______ ____
ROOT
ATOM      1  C   UNL     1      -3.182   9.794  18.081  0.00  0.00    +0.000 A 
ATOM      2  C   UNL     1      -1.828   9.601  18.323  0.00  0.00    +0.000 A 
ATOM      3  C   UNL     1      -0.990  10.700  18.568  0.00  0.00    +0.000 A 
ATOM      4  C   UNL     1       0.400  10.589  18.811  0.00  0.00    +0.000 A 
ATOM      5  C   UNL     1       1.108  11.769  19.004  0.00  0.00    +0.000 A 
ATOM      6  C   UNL     1       0.484  12.999  18.955  0.00  0.00    +0.000 A 
ATOM      7  N   UNL     1       1.222  14.147  19.104  0.00  0.00    +0.000 N 
ATOM      8  C   UNL     1       0.634  15.326  19.733  0.00  0.00    +0.000 C 
ATOM      9  C   UNL     1       0.940  16.562  18.877  0.00  0.00    +0.000 C 
ATOM     10  O   UNL     1       2.355  16.702  18.636  0.00  0.00    +0.000 OA
ATOM     11  C   UNL     1       2.857  15.550  17.940  0.00  0.00    +0.000 C 
ATOM     12  C   UNL     1       2.638  14.262  18.750  0.00  0.00    +0.000 C 
ATOM     13  N   UNL     1      -0.844  13.078  18.742  0.00  0.00    +0.000 NA
ATOM     14  C   UNL     1      -1.576  11.980  18.531  0.00  0.00    +0.000 A 
ATOM     15  N   UNL     1      -2.879  12.140  18.265  0.00  0.00    +0.000 NA
ATOM     16  C   UNL     1      -3.695  11.083  18.049  0.00  0.00    +0.000 A 
ENDROOT
BRANCH   4  17
ATOM     17  N   UNL     1       1.068   9.340  18.815  0.00  0.00    +0.000 N 
ATOM     18  C   UNL     1       2.195   9.224  17.870  0.00  0.00    +0.000 C 
ATOM     19  C   UNL     1       2.529   7.752  17.685  0.00  0.00    +0.000 C 
ATOM     20  C   UNL     1       2.868   7.109  19.028  0.00  0.00    +0.000 C 
ATOM     21  C   UNL     1       1.779   7.375  20.071  0.00  0.00    +0.000 C 
ATOM     22  C   UNL     1       1.418   8.862  20.164  0.00  0.00    +0.000 C 
ENDBRANCH   4  17
BRANCH  16  23
ATOM     23  N   UNL     1      -5.028  11.309  17.769  0.00  0.00    +0.000 N 
ATOM     24  C   UNL     1      -5.389  12.245  16.710  0.00  0.00    +0.000 C 
ATOM     25  C   UNL     1      -6.307  13.338  17.254  0.00  0.00    +0.000 C 
ATOM     26  C   UNL     1      -7.500  12.745  18.003  0.00  0.00    +0.000 C 
ATOM     27  C   UNL     1      -7.035  11.773  19.084  0.00  0.00    +0.000 C 
ATOM     28  C   UNL     1      -6.114  10.690  18.517  0.00  0.00    +0.000 C 
ENDBRANCH  16  23
TORSDOF 2
ENDMDL
MODEL 2
REMARK VINA RESULT:      -6.9      1.445      1.534
REMARK  Name = 
REMARK  2 active torsions:
REMARK  status: ('A' for Active; 'I' for Inactive)
REMARK    1  A    between atoms: C_4  and  N_5
REMARK    2  A    between atoms: C_22  and  N_23
REMARK                            x       y       z     vdW  Elec       q    Type
REMARK                         _______ _______ _______ _____ _____    ______ ____
ROOT
ATOM      1  C   UNL     1      -3.185   9.901  17.868  0.00  0.00    +0.000 A 
ATOM      2  C   UNL     1      -1.862   9.689  18.233  0.00  0.00    +0.000 A 
ATOM      3  C   UNL     1      -1.193  10.625  19.038  0.00  0.00    +0.000 A 
ATOM      4  C   UNL     1       0.156  10.488  19.444  0.00  0.00    +0.000 A 
ATOM      5  C   UNL     1       0.695  11.513  20.213  0.00  0.00    +0.000 A 
ATOM      6  C   UNL     1      -0.050  12.621  20.560  0.00  0.00    +0.000 A 
ATOM      7  N   UNL     1       0.528  13.636  21.282  0.00  0.00    +0.000 N 
ATOM      8  C   UNL     1      -0.267  14.416  22.225  0.00  0.00    +0.000 C 
ATOM      9  C   UNL     1       0.009  15.910  22.006  0.00  0.00    +0.000 C 
ATOM     10  O   UNL     1       1.419  16.205  22.082  0.00  0.00    +0.000 OA
ATOM     11  C   UNL     1       2.134  15.472  21.075  0.00  0.00    +0.000 C 
ATOM     12  C   UNL     1       1.956  13.955  21.247  0.00  0.00    +0.000 C 
ATOM     13  N   UNL     1      -1.339  12.719  20.179  0.00  0.00    +0.000 NA
ATOM     14  C   UNL     1      -1.908  11.774  19.424  0.00  0.00    +0.000 A 
ATOM     15  N   UNL     1      -3.175  11.969  19.031  0.00  0.00    +0.000 NA
ATOM     16  C   UNL     1      -3.830  11.060  18.274  0.00  0.00    +0.000 A 
ENDROOT
BRANCH   4  17
ATOM     17  N   UNL     1       0.954   9.385  19.055  0.00  0.00    +0.000 N 
ATOM     18  C   UNL     1       1.972   9.672  18.027  0.00  0.00    +0.000 C 
ATOM     19  C   UNL     1       2.443   8.359  17.423  0.00  0.00    +0.000 C 
ATOM     20  C   UNL     1       3.001   7.441  18.509  0.00  0.00    +0.000 C 
ATOM     21  C   UNL     1       2.015   7.277  19.669  0.00  0.00    +0.000 C 
ATOM     22  C   UNL     1       1.505   8.626  20.191  0.00  0.00    +0.000 C 
ENDBRANCH   4  17
BRANCH  16  23
ATOM     23  N   UNL     1      -5.131  11.319  17.890  0.00  0.00    +0.000 N 
ATOM     24  C   UNL     1      -5.385  12.257  16.802  0.00  0.00    +0.000 C 
ATOM     25  C   UNL     1      -6.313  13.377  17.268  0.00  0.00    +0.000 C 
ATOM     26  C   UNL     1      -7.576  12.820  17.925  0.00  0.00    +0.000 C 
ATOM     27  C   UNL     1      -7.221  11.845  19.044  0.00  0.00    +0.000 C 
ATOM     28  C   UNL     1      -6.288  10.734  18.555  0.00  0.00    +0.000 C 
ENDBRANCH  16  23
TORSDOF 2
ENDMDL
MODEL 3
REMARK VINA RESULT:      -6.6      8.343     10.439
REMARK  Name = 
REMARK  2 active torsions:
REMARK  status: ('A' for Active; 'I' for Inactive)
REMARK    1  A    between atoms: C_4  and  N_5
REMARK    2  A    between atoms: C_22  and  N_23
REMARK                            x       y       z     vdW  Elec       q    Type
REMARK                         _______ _______ _______ _____ _____    ______ ____
ROOT
ATOM      1  C   UNL     1       8.255  11.895  24.244  0.00  0.00    +0.000 A 
ATOM      2  C   UNL     1       8.684  12.121  22.943  0.00  0.00    +0.000 A 
ATOM      3  C   UNL     1       8.087  13.127  22.167  0.00  0.00    +0.000 A 
ATOM      4  C   UNL     1       8.459  13.412  20.832  0.00  0.00    +0.000 A 
ATOM      5  C   UNL     1       7.755  14.416  20.177  0.00  0.00    +0.000 A 
ATOM      6  C   UNL     1       6.733  15.102  20.799  0.00  0.00    +0.000 A 
ATOM      7  N   UNL     1       6.028  16.056  20.108  0.00  0.00    +0.000 N 
ATOM      8  C   UNL     1       5.485  17.221  20.802  0.00  0.00    +0.000 C 
ATOM      9  C   UNL     1       4.024  17.426  20.380  0.00  0.00    +0.000 C 
ATOM     10  O   UNL     1       3.895  17.517  18.946  0.00  0.00    +0.000 OA
ATOM     11  C   UNL     1       4.366  16.309  18.328  0.00  0.00    +0.000 C 
ATOM     12  C   UNL     1       5.844  16.046  18.656  0.00  0.00    +0.000 C 
ATOM     13  N   UNL     1       6.411  14.827  22.079  0.00  0.00    +0.000 NA
ATOM     14  C   UNL     1       7.039  13.860  22.755  0.00  0.00    +0.000 A 
ATOM     15  N   UNL     1       6.624  13.601  24.002  0.00  0.00    +0.000 NA
ATOM     16  C   UNL     1       7.210  12.646  24.761  0.00  0.00    +0.000 A 
ENDROOT
BRANCH   4  17
ATOM     17  N   UNL     1       9.470  12.686  20.157  0.00  0.00    +0.000 N 
ATOM     18  C   UNL     1       9.202  12.402  18.734  0.00  0.00    +0.000 C 
ATOM     19  C   UNL     1      10.135  11.294  18.272  0.00  0.00    +0.000 C 
ATOM     20  C   UNL     1      11.592  11.697  18.488  0.00  0.00    +0.000 C 
ATOM     21  C   UNL     1      11.840  12.162  19.926  0.00  0.00    +0.000 C 
ATOM     22  C   UNL     1      10.826  13.221  20.375  0.00  0.00    +0.000 C 
ENDBRANCH   4  17
BRANCH  16  23
ATOM     23  N   UNL     1       6.733  12.416  26.036  0.00  0.00    +0.000 N 
ATOM     24  C   UNL     1       6.243  11.088  26.389  0.00  0.00    +0.000 C 
ATOM     25  C   UNL     1       4.806  11.168  26.900  0.00  0.00    +0.000 C 
ATOM     26  C   UNL     1       4.664  12.206  28.013  0.00  0.00    +0.000 C 
ATOM     27  C   UNL     1       5.206  13.561  27.564  0.00  0.00    +0.000 C 
ATOM     28  C   UNL     1       6.645  13.456  27.053  0.00  0.00    +0.000 C 
ENDBRANCH  16  23
TORSDOF 2
ENDMDL
MODEL 4
REMARK VINA RESULT:      -6.5      0.860      1.101
REMARK  Name = 
REMARK  2 active torsions:
REMARK  status: ('A' for Active; 'I' for Inactive)
REMARK    1  A    between atoms: C_4  and  N_5
REMARK    2  A    between atoms: C_22  and  N_23
REMARK                            x       y       z     vdW  Elec       q    Type
REMARK                         _______ _______ _______ _____ _____    ______ ____
ROOT
ATOM      1  C   UNL     1      -2.895  10.255  18.574  0.00  0.00    +0.000 A 
ATOM      2  C   UNL     1      -1.547   9.926  18.628  0.00  0.00    +0.000 A 
ATOM      3  C   UNL     1      -0.578  10.936  18.739  0.00  0.00    +0.000 A 
ATOM      4  C   UNL     1       0.814  10.686  18.789  0.00  0.00    +0.000 A 
ATOM      5  C   UNL     1       1.656  11.789  18.866  0.00  0.00    +0.000 A 
ATOM      6  C   UNL     1       1.157  13.075  18.886  0.00  0.00    +0.000 A 
ATOM      7  N   UNL     1       2.019  14.144  18.915  0.00  0.00    +0.000 N 
ATOM      8  C   UNL     1       1.644  15.376  19.603  0.00  0.00    +0.000 C 
ATOM      9  C   UNL     1       1.949  16.575  18.695  0.00  0.00    +0.000 C 
ATOM     10  O   UNL     1       3.324  16.572  18.259  0.00  0.00    +0.000 OA
ATOM     11  C   UNL     1       3.607  15.376  17.517  0.00  0.00    +0.000 C 
ATOM     12  C   UNL     1       3.376  14.116  18.367  0.00  0.00    +0.000 C 
ATOM     13  N   UNL     1      -0.174  13.288  18.858  0.00  0.00    +0.000 NA
ATOM     14  C   UNL     1      -1.033  12.268  18.766  0.00  0.00    +0.000 A 
ATOM     15  N   UNL     1      -2.338  12.558  18.681  0.00  0.00    +0.000 NA
ATOM     16  C   UNL     1      -3.277  11.588  18.595  0.00  0.00    +0.000 A 
ENDROOT
BRANCH   4  17
ATOM     17  N   UNL     1       1.349   9.377  18.719  0.00  0.00    +0.000 N 
ATOM     18  C   UNL     1       2.479   9.205  17.785  0.00  0.00    +0.000 C 
ATOM     19  C   UNL     1       2.663   7.722  17.506  0.00  0.00    +0.000 C 
ATOM     20  C   UNL     1       2.903   6.959  18.807  0.00  0.00    +0.000 C 
ATOM     21  C   UNL     1       1.825   7.269  19.848  0.00  0.00    +0.000 C 
ATOM     22  C   UNL     1       1.618   8.777  20.037  0.00  0.00    +0.000 C 
ENDBRANCH   4  17
BRANCH  16  23
ATOM     23  N   UNL     1      -4.607  11.947  18.499  0.00  0.00    +0.000 N 
ATOM     24  C   UNL     1      -5.136  12.982  19.381  0.00  0.00    +0.000 C 
ATOM     25  C   UNL     1      -6.328  12.449  20.172  0.00  0.00    +0.000 C 
ATOM     26  C   UNL     1      -7.371  11.814  19.253  0.00  0.00    +0.000 C 
ATOM     27  C   UNL     1      -6.734  10.751  18.362  0.00  0.00    +0.000 C 
ATOM     28  C   UNL     1      -5.539  11.306  17.582  0.00  0.00    +0.000 C 
ENDBRANCH  16  23
TORSDOF 2
ENDMDL
MODEL 5
REMARK VINA RESULT:      -6.4      8.295     10.724
REMARK  Name = 
REMARK  2 active torsions:
REMARK  status: ('A' for Active; 'I' for Inactive)
REMARK    1  A    between atoms: C_4  and  N_5
REMARK    2  A    between atoms: C_22  and  N_23
REMARK                            x       y       z     vdW  Elec       q    Type
REMARK                         _______ _______ _______ _____ _____    ______ ____
ROOT
ATOM      1  C   UNL     1       8.175  11.996  24.263  0.00  0.00    +0.000 A 
ATOM      2  C   UNL     1       8.636  12.209  22.970  0.00  0.00    +0.000 A 
ATOM      3  C   UNL     1       8.038  13.187  22.159  0.00  0.00    +0.000 A 
ATOM      4  C   UNL     1       8.441  13.456  20.829  0.00  0.00    +0.000 A 
ATOM      5  C   UNL     1       7.734  14.432  20.137  0.00  0.00    +0.000 A 
ATOM      6  C   UNL     1       6.679  15.105  20.718  0.00  0.00    +0.000 A 
ATOM      7  N   UNL     1       5.973  16.030  19.988  0.00  0.00    +0.000 N 
ATOM      8  C   UNL     1       5.385  17.194  20.645  0.00  0.00    +0.000 C 
ATOM      9  C   UNL     1       3.932  17.358  20.179  0.00  0.00    +0.000 C 
ATOM     10  O   UNL     1       3.842  17.420  18.741  0.00  0.00    +0.000 OA
ATOM     11  C   UNL     1       4.357  16.212  18.159  0.00  0.00    +0.000 C 
ATOM     12  C   UNL     1       5.831  15.990  18.532  0.00  0.00    +0.000 C 
ATOM     13  N   UNL     1       6.328  14.846  21.993  0.00  0.00    +0.000 NA
ATOM     14  C   UNL     1       6.958  13.906  22.704  0.00  0.00    +0.000 A 
ATOM     15  N   UNL     1       6.514  13.659  23.944  0.00  0.00    +0.000 NA
ATOM     16  C   UNL     1       7.099  12.733  24.736  0.00  0.00    +0.000 A 
ENDROOT
BRANCH   4  17
ATOM     17  N   UNL     1       9.488  12.742  20.198  0.00  0.00    +0.000 N 
ATOM     18  C   UNL     1       9.248  12.388  18.785  0.00  0.00    +0.000 C 
ATOM     19  C   UNL     1      10.227  11.297  18.380  0.00  0.00    +0.000 C 
ATOM     20  C   UNL     1      11.666  11.765  18.595  0.00  0.00    +0.000 C 
ATOM     21  C   UNL     1      11.878  12.299  20.013  0.00  0.00    +0.000 C 
ATOM     22  C   UNL     1      10.819  13.336  20.407  0.00  0.00    +0.000 C 
ENDBRANCH   4  17
BRANCH  16  23
ATOM     23  N   UNL     1       6.591  12.514  26.002  0.00  0.00    +0.000 N 
ATOM     24  C   UNL     1       6.881  13.470  27.066  0.00  0.00    +0.000 C 
ATOM     25  C   UNL     1       7.539  12.764  28.250  0.00  0.00    +0.000 C 
ATOM     26  C   UNL     1       6.727  11.550  28.700  0.00  0.00    +0.000 C 
ATOM     27  C   UNL     1       6.462  10.609  27.527  0.00  0.00    +0.000 C 
ATOM     28  C   UNL     1       5.807  11.337  26.351  0.00  0.00    +0.000 C 
ENDBRANCH  16  23
TORSDOF 2
ENDMDL
MODEL 6
REMARK VINA RESULT:      -6.4      0.387      1.017
REMARK  Name = 
REMARK  2 active torsions:
REMARK  status: ('A' for Active; 'I' for Inactive)
REMARK    1  A    between atoms: C_4  and  N_5
REMARK    2  A    between atoms: C_22  and  N_23
REMARK                            x       y       z     vdW  Elec       q    Type
REMARK                         _______ _______ _______ _____ _____    ______ ____
ROOT
ATOM      1  C   UNL     1      -2.817   9.822  18.143  0.00  0.00    +0.000 A 
ATOM      2  C   UNL     1      -1.458   9.729  18.412  0.00  0.00    +0.000 A 
ATOM      3  C   UNL     1      -0.697  10.891  18.613  0.00  0.00    +0.000 A 
ATOM      4  C   UNL     1       0.693  10.882  18.880  0.00  0.00    +0.000 A 
ATOM      5  C   UNL     1       1.321  12.114  19.023  0.00  0.00    +0.000 A 
ATOM      6  C   UNL     1       0.621  13.297  18.903  0.00  0.00    +0.000 A 
ATOM      7  N   UNL     1       1.281  14.497  19.004  0.00  0.00    +0.000 N 
ATOM      8  C   UNL     1       0.608  15.664  19.565  0.00  0.00    +0.000 C 
ATOM      9  C   UNL     1       0.848  16.875  18.652  0.00  0.00    +0.000 C 
ATOM     10  O   UNL     1       2.255  17.094  18.424  0.00  0.00    +0.000 OA
ATOM     11  C   UNL     1       2.840  15.944  17.793  0.00  0.00    +0.000 C 
ATOM     12  C   UNL     1       2.692  14.686  18.664  0.00  0.00    +0.000 C 
ATOM     13  N   UNL     1      -0.707  13.280  18.669  0.00  0.00    +0.000 NA
ATOM     14  C   UNL     1      -1.362  12.127  18.504  0.00  0.00    +0.000 A 
ATOM     15  N   UNL     1      -2.669  12.189  18.213  0.00  0.00    +0.000 NA
ATOM     16  C   UNL     1      -3.411  11.071  18.040  0.00  0.00    +0.000 A 
ENDROOT
BRANCH   4  17
ATOM     17  N   UNL     1       1.440   9.682  18.955  0.00  0.00    +0.000 N 
ATOM     18  C   UNL     1       0.951   8.694  19.938  0.00  0.00    +0.000 C 
ATOM     19  C   UNL     1       2.053   7.681  20.203  0.00  0.00    +0.000 C 
ATOM     20  C   UNL     1       2.478   7.001  18.904  0.00  0.00    +0.000 C 
ATOM     21  C   UNL     1       2.821   8.025  17.818  0.00  0.00    +0.000 C 
ATOM     22  C   UNL     1       1.717   9.074  17.642  0.00  0.00    +0.000 C 
ENDBRANCH   4  17
BRANCH  16  23
ATOM     23  N   UNL     1      -4.751  11.197  17.731  0.00  0.00    +0.000 N 
ATOM     24  C   UNL     1      -5.159  12.096  16.657  0.00  0.00    +0.000 C 
ATOM     25  C   UNL     1      -6.166  13.121  17.174  0.00  0.00    +0.000 C 
ATOM     26  C   UNL     1      -7.327  12.447  17.903  0.00  0.00    +0.000 C 
ATOM     27  C   UNL     1      -6.814  11.520  19.002  0.00  0.00    +0.000 C 
ATOM     28  C   UNL     1      -5.804  10.505  18.463  0.00  0.00    +0.000 C 
ENDBRANCH  16  23
TORSDOF 2
ENDMDL
MODEL 7
REMARK VINA RESULT:      -6.4      1.009      1.564
REMARK  Name = 
REMARK  2 active torsions:
REMARK  status: ('A' for Active; 'I' for Inactive)
REMARK    1  A    between atoms: C_4  and  N_5
REMARK    2  A    between atoms: C_22  and  N_23
REMARK                            x       y       z     vdW  Elec       q    Type
REMARK                         _______ _______ _______ _____ _____    ______ ____
ROOT
ATOM      1  C   UNL     1      -2.620  10.364  18.779  0.00  0.00    +0.000 A 
ATOM      2  C   UNL     1      -1.254  10.125  18.845  0.00  0.00    +0.000 A 
ATOM      3  C   UNL     1      -0.350  11.199  18.871  0.00  0.00    +0.000 A 
ATOM      4  C   UNL     1       1.056  11.040  18.925  0.00  0.00    +0.000 A 
ATOM      5  C   UNL     1       1.827  12.196  18.912  0.00  0.00    +0.000 A 
ATOM      6  C   UNL     1       1.248  13.447  18.841  0.00  0.00    +0.000 A 
ATOM      7  N   UNL     1       2.042  14.566  18.782  0.00  0.00    +0.000 N 
ATOM      8  C   UNL     1       1.594  15.820  19.380  0.00  0.00    +0.000 C 
ATOM      9  C   UNL     1       1.818  16.965  18.382  0.00  0.00    +0.000 C 
ATOM     10  O   UNL     1       3.188  17.015  17.934  0.00  0.00    +0.000 OA
ATOM     11  C   UNL     1       3.542  15.786  17.280  0.00  0.00    +0.000 C 
ATOM     12  C   UNL     1       3.395  14.582  18.224  0.00  0.00    +0.000 C 
ATOM     13  N   UNL     1      -0.093  13.574  18.810  0.00  0.00    +0.000 NA
ATOM     14  C   UNL     1      -0.887  12.498  18.803  0.00  0.00    +0.000 A 
ATOM     15  N   UNL     1      -2.209  12.700  18.709  0.00  0.00    +0.000 NA
ATOM     16  C   UNL     1      -3.085  11.669  18.705  0.00  0.00    +0.000 A 
ENDROOT
BRANCH   4  17
ATOM     17  N   UNL     1       1.671   9.765  18.947  0.00  0.00    +0.000 N 
ATOM     18  C   UNL     1       1.100   8.804  19.911  0.00  0.00    +0.000 C 
ATOM     19  C   UNL     1       2.092   7.671  20.119  0.00  0.00    +0.000 C 
ATOM     20  C   UNL     1       2.415   6.992  18.790  0.00  0.00    +0.000 C 
ATOM     21  C   UNL     1       2.843   8.009  17.728  0.00  0.00    +0.000 C 
ATOM     22  C   UNL     1       1.854   9.175  17.610  0.00  0.00    +0.000 C 
ENDBRANCH   4  17
BRANCH  16  23
ATOM     23  N   UNL     1      -4.435  11.937  18.595  0.00  0.00    +0.000 N 
ATOM     24  C   UNL     1      -5.050  12.907  19.496  0.00  0.00    +0.000 C 
ATOM     25  C   UNL     1      -6.214  12.269  20.251  0.00  0.00    +0.000 C 
ATOM     26  C   UNL     1      -7.194  11.588  19.297  0.00  0.00    +0.000 C 
ATOM     27  C   UNL     1      -6.470  10.599  18.389  0.00  0.00    +0.000 C 
ATOM     28  C   UNL     1      -5.306  11.258  17.645  0.00  0.00    +0.000 C 
ENDBRANCH  16  23
TORSDOF 2
ENDMDL
MODEL 8
REMARK VINA RESULT:      -6.4      3.566      7.111
REMARK  Name = 
REMARK  2 active torsions:
REMARK  status: ('A' for Active; 'I' for Inactive)
REMARK    1  A    between atoms: C_4  and  N_5
REMARK    2  A    between atoms: C_22  and  N_23
REMARK                            x       y       z     vdW  Elec       q    Type
REMARK                         _______ _______ _______ _____ _____    ______ ____
ROOT
ATOM      1  C   UNL     1      -0.299  12.147  18.930  0.00  0.00    +0.000 A 
ATOM      2  C   UNL     1      -0.225  13.532  18.857  0.00  0.00    +0.000 A 
ATOM      3  C   UNL     1       1.022  14.168  18.744  0.00  0.00    +0.000 A 
ATOM      4  C   UNL     1       1.183  15.572  18.676  0.00  0.00    +0.000 A 
ATOM      5  C   UNL     1       2.482  16.060  18.599  0.00  0.00    +0.000 A 
ATOM      6  C   UNL     1       3.570  15.212  18.597  0.00  0.00    +0.000 A 
ATOM      7  N   UNL     1       4.842  15.730  18.567  0.00  0.00    +0.000 N 
ATOM      8  C   UNL     1       5.917  15.007  17.895  0.00  0.00    +0.000 C 
ATOM      9  C   UNL     1       7.149  14.966  18.810  0.00  0.00    +0.000 C 
ATOM     10  O   UNL     1       7.539  16.290  19.230  0.00  0.00    +0.000 OA
ATOM     11  C   UNL     1       6.471  16.915  19.958  0.00  0.00    +0.000 C 
ATOM     12  C   UNL     1       5.203  17.044  19.099  0.00  0.00    +0.000 C 
ATOM     13  N   UNL     1       3.391  13.877  18.642  0.00  0.00    +0.000 NA
ATOM     14  C   UNL     1       2.166  13.349  18.734  0.00  0.00    +0.000 A 
ATOM     15  N   UNL     1       2.068  12.016  18.838  0.00  0.00    +0.000 NA
ATOM     16  C   UNL     1       0.868  11.398  18.925  0.00  0.00    +0.000 A 
ENDROOT
BRANCH   4  17
ATOM     17  N   UNL     1       0.083  16.462  18.728  0.00  0.00    +0.000 N 
ATOM     18  C   UNL     1      -0.391  16.803  20.084  0.00  0.00    +0.000 C 
ATOM     19  C   UNL     1      -1.785  17.399  19.980  0.00  0.00    +0.000 C 
ATOM     20  C   UNL     1      -1.774  18.630  19.075  0.00  0.00    +0.000 C 
ATOM     21  C   UNL     1      -1.122  18.328  17.723  0.00  0.00    +0.000 C 
ATOM     22  C   UNL     1       0.246  17.654  17.877  0.00  0.00    +0.000 C 
ENDBRANCH   4  17
BRANCH  16  23
ATOM     23  N   UNL     1       0.829  10.022  19.040  0.00  0.00    +0.000 N 
ATOM     24  C   UNL     1       0.392   9.419  20.295  0.00  0.00    +0.000 C 
ATOM     25  C   UNL     1       1.464   8.475  20.835  0.00  0.00    +0.000 C 
ATOM     26  C   UNL     1       1.908   7.468  19.775  0.00  0.00    +0.000 C 
ATOM     27  C   UNL     1       2.340   8.180  18.496  0.00  0.00    +0.000 C 
ATOM     28  C   UNL     1       1.253   9.123  17.975  0.00  0.00    +0.000 C 
ENDBRANCH  16  23
TORSDOF 2
ENDMDL
MODEL 9
REMARK VINA RESULT:      -6.2      2.791      6.600
REMARK  Name = 
REMARK  2 active torsions:
REMARK  status: ('A' for Active; 'I' for Inactive)
REMARK    1  A    between atoms: C_4  and  N_5
REMARK    2  A    between atoms: C_22  and  N_23
REMARK                            x       y       z     vdW  Elec       q    Type
REMARK                         _______ _______ _______ _____ _____    ______ ____
ROOT
ATOM      1  C   UNL     1      -0.038   8.339  21.018  0.00  0.00    +0.000 A 
ATOM      2  C   UNL     1      -0.717   9.532  21.230  0.00  0.00    +0.000 A 
ATOM      3  C   UNL     1      -0.209  10.734  20.712  0.00  0.00    +0.000 A 
ATOM      4  C   UNL     1      -0.834  11.991  20.893  0.00  0.00    +0.000 A 
ATOM      5  C   UNL     1      -0.197  13.101  20.350  0.00  0.00    +0.000 A 
ATOM      6  C   UNL     1       0.998  12.984  19.670  0.00  0.00    +0.000 A 
ATOM      7  N   UNL     1       1.623  14.107  19.187  0.00  0.00    +0.000 N 
ATOM      8  C   UNL     1       2.412  14.042  17.960  0.00  0.00    +0.000 C 
ATOM      9  C   UNL     1       3.760  14.742  18.188  0.00  0.00    +0.000 C 
ATOM     10  O   UNL     1       3.582  16.089  18.670  0.00  0.00    +0.000 OA
ATOM     11  C   UNL     1       2.874  16.080  19.920  0.00  0.00    +0.000 C 
ATOM     12  C   UNL     1       1.484  15.439  19.777  0.00  0.00    +0.000 C 
ATOM     13  N   UNL     1       1.562  11.773  19.492  0.00  0.00    +0.000 NA
ATOM     14  C   UNL     1       1.006  10.672  20.006  0.00  0.00    +0.000 A 
ATOM     15  N   UNL     1       1.657   9.511  19.843  0.00  0.00    +0.000 NA
ATOM     16  C   UNL     1       1.161   8.347  20.321  0.00  0.00    +0.000 A 
ENDROOT
BRANCH   4  17
ATOM     17  N   UNL     1      -2.032  12.140  21.632  0.00  0.00    +0.000 N 
ATOM     18  C   UNL     1      -1.860  12.539  23.042  0.00  0.00    +0.000 C 
ATOM     19  C   UNL     1      -3.151  12.253  23.793  0.00  0.00    +0.000 C 
ATOM     20  C   UNL     1      -4.319  12.997  23.149  0.00  0.00    +0.000 C 
ATOM     21  C   UNL     1      -4.399  12.725  21.645  0.00  0.00    +0.000 C 
ATOM     22  C   UNL     1      -3.054  12.948  20.943  0.00  0.00    +0.000 C 
ENDBRANCH   4  17
BRANCH  16  23
ATOM     23  N   UNL     1       1.880   7.184  20.132  0.00  0.00    +0.000 N 
ATOM     24  C   UNL     1       2.742   7.055  18.961  0.00  0.00    +0.000 C 
ATOM     25  C   UNL     1       2.360   5.817  18.152  0.00  0.00    +0.000 C 
ATOM     26  C   UNL     1       2.304   4.569  19.032  0.00  0.00    +0.000 C 
ATOM     27  C   UNL     1       1.391   4.791  20.234  0.00  0.00    +0.000 C 
ATOM     28  C   UNL     1       1.789   6.038  21.027  0.00  0.00    +0.000 C 
ENDBRANCH  16  23
TORSDOF 2
ENDMDL
