MODEL 1
REMARK VINA RESULT:      -7.6      0.000      0.000
REMARK  Name = 
REMARK  5 active torsions:
REMARK  status: ('A' for Active; 'I' for Inactive)
REMARK    1  A    between atoms: C_1  and  C_2
REMARK    2  A    between atoms: C_4  and  O_5
REMARK    3  A    between atoms: C_7  and  C_8
REMARK    4  A    between atoms: C_8  and  C_10
REMARK    5  A    between atoms: C_13  and  N_14
REMARK                            x       y       z     vdW  Elec       q    Type
REMARK                         _______ _______ _______ _____ _____    ______ ____
ROOT
ATOM      1  C   UNL     1       4.028   5.906  18.511  0.00  0.00    +0.000 A 
ATOM      2  C   UNL     1       3.241   5.840  19.664  0.00  0.00    +0.000 A 
ATOM      3  C   UNL     1       2.297   6.839  19.938  0.00  0.00    +0.000 A 
ATOM      4  C   UNL     1       2.095   7.926  19.076  0.00  0.00    +0.000 A 
ATOM      5  C   UNL     1       2.854   7.944  17.899  0.00  0.00    +0.000 A 
ATOM      6  C   UNL     1       3.795   6.947  17.612  0.00  0.00    +0.000 A 
ENDROOT
BRANCH   4   7
ATOM      7  N   UNL     1       1.199   8.930  19.362  0.00  0.00    +0.000 N 
ATOM      8  C   UNL     1       0.859  10.002  18.417  0.00  0.00    +0.000 C 
ATOM      9  C   UNL     1       1.143  11.370  19.053  0.00  0.00    +0.000 C 
ATOM     10  O   UNL     1       0.476  11.515  20.320  0.00  0.00    +0.000 OA
ATOM     11  C   UNL     1       0.908  10.488  21.231  0.00  0.00    +0.000 C 
ATOM     12  C   UNL     1       0.594   9.082  20.693  0.00  0.00    +0.000 C 
ENDBRANCH   4   7
BRANCH   1  13
ATOM     13  C   UNL     1       5.083   4.863  18.301  0.00  0.00    +0.000 C 
ATOM     14  O   UNL     1       5.309   4.062  19.207  0.00  0.00    +0.000 OA
BRANCH  13  20
ATOM     15  C   UNL     1       7.555   6.844  17.349  0.00  0.00    +0.000 C 
ATOM     16  C   UNL     1       6.888   5.705  16.675  0.00  0.00    +0.000 A 
ATOM     17  N   UNL     1       7.261   5.289  15.419  0.00  0.00    +0.000 N 
ATOM     18  C   UNL     1       6.457   4.242  15.073  0.00  0.00    +0.000 A 
ATOM     19  N   UNL     1       5.587   3.983  16.004  0.00  0.00    +0.000 NA
ATOM     20  C   UNL     1       5.846   4.860  17.044  0.00  0.00    +0.000 A 
ATOM     21  H   UNL     1       7.998   5.688  14.857  0.00  0.00    +0.000 HD
BRANCH  18  22
ATOM     22  O   UNL     1       6.538   3.558  13.948  0.00  0.00    +0.000 OA
ATOM     23  H   UNL     1       6.147   4.078  13.232  0.00  0.00    +0.000 HD
ENDBRANCH  18  22
ENDBRANCH  13  20
ENDBRANCH   1  13
TORSDOF 4
ENDMDL
MODEL 2
REMARK VINA RESULT:      -7.5      0.827      1.402
REMARK  Name = 
REMARK  5 active torsions:
REMARK  status: ('A' for Active; 'I' for Inactive)
REMARK    1  A    between atoms: C_1  and  C_2
REMARK    2  A    between atoms: C_4  and  O_5
REMARK    3  A    between atoms: C_7  and  C_8
REMARK    4  A    between atoms: C_8  and  C_10
REMARK    5  A    between atoms: C_13  and  N_14
REMARK                            x       y       z     vdW  Elec       q    Type
REMARK                         _______ _______ _______ _____ _____    ______ ____
ROOT
ATOM      1  C   UNL     1       3.694   5.605  18.526  0.00  0.00    +0.000 A 
ATOM      2  C   UNL     1       2.912   5.692  19.681  0.00  0.00    +0.000 A 
ATOM      3  C   UNL     1       2.167   6.848  19.949  0.00  0.00    +0.000 A 
ATOM      4  C   UNL     1       2.163   7.948  19.080  0.00  0.00    +0.000 A 
ATOM      5  C   UNL     1       2.909   7.819  17.901  0.00  0.00    +0.000 A 
ATOM      6  C   UNL     1       3.652   6.666  17.619  0.00  0.00    +0.000 A 
ENDROOT
BRANCH   4   7
ATOM      7  N   UNL     1       1.467   9.101  19.360  0.00  0.00    +0.000 N 
ATOM      8  C   UNL     1       0.968   9.437  20.700  0.00  0.00    +0.000 C 
ATOM      9  C   UNL     1      -0.550   9.660  20.652  0.00  0.00    +0.000 C 
ATOM     10  O   UNL     1      -0.912  10.642  19.663  0.00  0.00    +0.000 OA
ATOM     11  C   UNL     1      -0.469  10.222  18.360  0.00  0.00    +0.000 C 
ATOM     12  C   UNL     1       1.058  10.043  18.308  0.00  0.00    +0.000 C 
ENDBRANCH   4   7
BRANCH   1  13
ATOM     13  C   UNL     1       4.540   4.387  18.322  0.00  0.00    +0.000 C 
ATOM     14  O   UNL     1       4.415   3.444  19.101  0.00  0.00    +0.000 OA
BRANCH  13  20
ATOM     15  C   UNL     1       7.628   5.572  18.276  0.00  0.00    +0.000 C 
ATOM     16  C   UNL     1       6.823   4.877  17.245  0.00  0.00    +0.000 A 
ATOM     17  N   UNL     1       7.325   4.614  15.992  0.00  0.00    +0.000 N 
ATOM     18  C   UNL     1       6.347   3.986  15.277  0.00  0.00    +0.000 A 
ATOM     19  N   UNL     1       5.258   3.856  15.974  0.00  0.00    +0.000 NA
ATOM     20  C   UNL     1       5.526   4.374  17.229  0.00  0.00    +0.000 A 
ATOM     21  H   UNL     1       8.251   4.845  15.664  0.00  0.00    +0.000 HD
BRANCH  18  22
ATOM     22  O   UNL     1       6.470   3.548  14.039  0.00  0.00    +0.000 OA
ATOM     23  H   UNL     1       5.755   2.925  13.850  0.00  0.00    +0.000 HD
ENDBRANCH  18  22
ENDBRANCH  13  20
ENDBRANCH   1  13
TORSDOF 4
ENDMDL
MODEL 3
REMARK VINA RESULT:      -7.5      1.729      2.629
REMARK  Name = 
REMARK  5 active torsions:
REMARK  status: ('A' for Active; 'I' for Inactive)
REMARK    1  A    between atoms: C_1  and  C_2
REMARK    2  A    between atoms: C_4  and  O_5
REMARK    3  A    between atoms: C_7  and  C_8
REMARK    4  A    between atoms: C_8  and  C_10
REMARK    5  A    between atoms: C_13  and  N_14
REMARK                            x       y       z     vdW  Elec       q    Type
REMARK                         _______ _______ _______ _____ _____    ______ ____
ROOT
ATOM      1  C   UNL     1       3.393   6.300  18.485  0.00  0.00    +0.000 A 
ATOM      2  C   UNL     1       3.319   7.400  17.625  0.00  0.00    +0.000 A 
ATOM      3  C   UNL     1       2.515   8.502  17.950  0.00  0.00    +0.000 A 
ATOM      4  C   UNL     1       1.770   8.553  19.137  0.00  0.00    +0.000 A 
ATOM      5  C   UNL     1       1.902   7.466  20.009  0.00  0.00    +0.000 A 
ATOM      6  C   UNL     1       2.708   6.364  19.699  0.00  0.00    +0.000 A 
ENDROOT
BRANCH   4   7
ATOM      7  N   UNL     1       0.946   9.614  19.439  0.00  0.00    +0.000 N 
ATOM      8  C   UNL     1       1.025  10.915  18.762  0.00  0.00    +0.000 C 
ATOM      9  C   UNL     1       1.256  12.028  19.794  0.00  0.00    +0.000 C 
ATOM     10  O   UNL     1       0.261  12.003  20.834  0.00  0.00    +0.000 OA
ATOM     11  C   UNL     1       0.284  10.735  21.514  0.00  0.00    +0.000 C 
ATOM     12  C   UNL     1      -0.009   9.569  20.556  0.00  0.00    +0.000 C 
ENDBRANCH   4   7
BRANCH   1  13
ATOM     13  C   UNL     1       4.197   5.111  18.059  0.00  0.00    +0.000 C 
ATOM     14  O   UNL     1       3.623   4.185  17.487  0.00  0.00    +0.000 OA
BRANCH  13  20
ATOM     15  C   UNL     1       6.758   4.391  16.093  0.00  0.00    +0.000 C 
ATOM     16  C   UNL     1       6.688   4.763  17.526  0.00  0.00    +0.000 A 
ATOM     17  N   UNL     1       7.818   4.860  18.304  0.00  0.00    +0.000 N 
ATOM     18  C   UNL     1       7.424   5.199  19.565  0.00  0.00    +0.000 A 
ATOM     19  N   UNL     1       6.131   5.298  19.650  0.00  0.00    +0.000 NA
ATOM     20  C   UNL     1       5.632   5.063  18.380  0.00  0.00    +0.000 A 
ATOM     21  H   UNL     1       8.766   4.707  17.993  0.00  0.00    +0.000 HD
BRANCH  18  22
ATOM     22  O   UNL     1       8.234   5.415  20.584  0.00  0.00    +0.000 OA
ATOM     23  H   UNL     1       9.066   4.944  20.433  0.00  0.00    +0.000 HD
ENDBRANCH  18  22
ENDBRANCH  13  20
ENDBRANCH   1  13
TORSDOF 4
ENDMDL
MODEL 4
REMARK VINA RESULT:      -7.5      1.792      2.509
REMARK  Name = 
REMARK  5 active torsions:
REMARK  status: ('A' for Active; 'I' for Inactive)
REMARK    1  A    between atoms: C_1  and  C_2
REMARK    2  A    between atoms: C_4  and  O_5
REMARK    3  A    between atoms: C_7  and  C_8
REMARK    4  A    between atoms: C_8  and  C_10
REMARK    5  A    between atoms: C_13  and  N_14
REMARK                            x       y       z     vdW  Elec       q    Type
REMARK                         _______ _______ _______ _____ _____    ______ ____
ROOT
ATOM      1  C   UNL     1       3.353   6.006  18.497  0.00  0.00    +0.000 A 
ATOM      2  C   UNL     1       2.658   5.721  19.675  0.00  0.00    +0.000 A 
ATOM      3  C   UNL     1       1.823   6.684  20.259  0.00  0.00    +0.000 A 
ATOM      4  C   UNL     1       1.642   7.952  19.690  0.00  0.00    +0.000 A 
ATOM      5  C   UNL     1       2.304   8.198  18.481  0.00  0.00    +0.000 A 
ATOM      6  C   UNL     1       3.134   7.241  17.885  0.00  0.00    +0.000 A 
ENDROOT
BRANCH   4   7
ATOM      7  N   UNL     1       0.857   8.915  20.282  0.00  0.00    +0.000 N 
ATOM      8  C   UNL     1       0.747  10.290  19.778  0.00  0.00    +0.000 C 
ATOM      9  C   UNL     1       1.139  11.284  20.880  0.00  0.00    +0.000 C 
ATOM     10  O   UNL     1       0.377  11.071  22.083  0.00  0.00    +0.000 OA
ATOM     11  C   UNL     1       0.587   9.736  22.575  0.00  0.00    +0.000 C 
ATOM     12  C   UNL     1       0.151   8.676  21.550  0.00  0.00    +0.000 C 
ENDBRANCH   4   7
BRANCH   1  13
ATOM     13  C   UNL     1       4.299   4.980  17.955  0.00  0.00    +0.000 C 
ATOM     14  O   UNL     1       3.854   4.094  17.227  0.00  0.00    +0.000 OA
BRANCH  13  20
ATOM     15  C   UNL     1       7.002   4.581  16.090  0.00  0.00    +0.000 C 
ATOM     16  C   UNL     1       6.833   4.868  17.534  0.00  0.00    +0.000 A 
ATOM     17  N   UNL     1       7.913   5.016  18.373  0.00  0.00    +0.000 N 
ATOM     18  C   UNL     1       7.433   5.255  19.628  0.00  0.00    +0.000 A 
ATOM     19  N   UNL     1       6.133   5.241  19.650  0.00  0.00    +0.000 NA
ATOM     20  C   UNL     1       5.716   5.034  18.346  0.00  0.00    +0.000 A 
ATOM     21  H   UNL     1       8.884   4.959  18.104  0.00  0.00    +0.000 HD
BRANCH  18  22
ATOM     22  O   UNL     1       8.172   5.481  20.696  0.00  0.00    +0.000 OA
ATOM     23  H   UNL     1       8.022   6.387  21.000  0.00  0.00    +0.000 HD
ENDBRANCH  18  22
ENDBRANCH  13  20
ENDBRANCH   1  13
TORSDOF 4
ENDMDL
MODEL 5
REMARK VINA RESULT:      -7.4      1.778      2.686
REMARK  Name = 
REMARK  5 active torsions:
REMARK  status: ('A' for Active; 'I' for Inactive)
REMARK    1  A    between atoms: C_1  and  C_2
REMARK    2  A    between atoms: C_4  and  O_5
REMARK    3  A    between atoms: C_7  and  C_8
REMARK    4  A    between atoms: C_8  and  C_10
REMARK    5  A    between atoms: C_13  and  N_14
REMARK                            x       y       z     vdW  Elec       q    Type
REMARK                         _______ _______ _______ _____ _____    ______ ____
ROOT
ATOM      1  C   UNL     1       3.337   6.206  18.410  0.00  0.00    +0.000 A 
ATOM      2  C   UNL     1       2.644   6.235  19.624  0.00  0.00    +0.000 A 
ATOM      3  C   UNL     1       1.916   7.374  19.998  0.00  0.00    +0.000 A 
ATOM      4  C   UNL     1       1.844   8.511  19.182  0.00  0.00    +0.000 A 
ATOM      5  C   UNL     1       2.500   8.440  17.947  0.00  0.00    +0.000 A 
ATOM      6  C   UNL     1       3.223   7.305  17.558  0.00  0.00    +0.000 A 
ENDROOT
BRANCH   4   7
ATOM      7  N   UNL     1       1.167   9.646  19.566  0.00  0.00    +0.000 N 
ATOM      8  C   UNL     1       1.051  10.083  20.963  0.00  0.00    +0.000 C 
ATOM      9  C   UNL     1      -0.429  10.216  21.348  0.00  0.00    +0.000 C 
ATOM     10  O   UNL     1      -1.140  11.074  20.437  0.00  0.00    +0.000 OA
ATOM     11  C   UNL     1      -1.060  10.554  19.098  0.00  0.00    +0.000 C 
ATOM     12  C   UNL     1       0.395  10.456  18.611  0.00  0.00    +0.000 C 
ENDBRANCH   4   7
BRANCH   1  13
ATOM     13  C   UNL     1       4.170   5.004  18.089  0.00  0.00    +0.000 C 
ATOM     14  O   UNL     1       3.618   4.016  17.606  0.00  0.00    +0.000 OA
BRANCH  13  20
ATOM     15  C   UNL     1       6.753   4.416  16.109  0.00  0.00    +0.000 C 
ATOM     16  C   UNL     1       6.672   4.777  17.543  0.00  0.00    +0.000 A 
ATOM     17  N   UNL     1       7.800   4.923  18.317  0.00  0.00    +0.000 N 
ATOM     18  C   UNL     1       7.396   5.237  19.582  0.00  0.00    +0.000 A 
ATOM     19  N   UNL     1       6.100   5.274  19.673  0.00  0.00    +0.000 NA
ATOM     20  C   UNL     1       5.607   5.022  18.404  0.00  0.00    +0.000 A 
ATOM     21  H   UNL     1       8.753   4.817  18.002  0.00  0.00    +0.000 HD
BRANCH  18  22
ATOM     22  O   UNL     1       8.199   5.485  20.599  0.00  0.00    +0.000 OA
ATOM     23  H   UNL     1       8.922   4.842  20.596  0.00  0.00    +0.000 HD
ENDBRANCH  18  22
ENDBRANCH  13  20
ENDBRANCH   1  13
TORSDOF 4
ENDMDL
MODEL 6
REMARK VINA RESULT:      -7.4      2.404      3.574
REMARK  Name = 
REMARK  5 active torsions:
REMARK  status: ('A' for Active; 'I' for Inactive)
REMARK    1  A    between atoms: C_1  and  C_2
REMARK    2  A    between atoms: C_4  and  O_5
REMARK    3  A    between atoms: C_7  and  C_8
REMARK    4  A    between atoms: C_8  and  C_10
REMARK    5  A    between atoms: C_13  and  N_14
REMARK                            x       y       z     vdW  Elec       q    Type
REMARK                         _______ _______ _______ _____ _____    ______ ____
ROOT
ATOM      1  C   UNL     1       3.095   6.581  18.436  0.00  0.00    +0.000 A 
ATOM      2  C   UNL     1       2.896   7.708  17.634  0.00  0.00    +0.000 A 
ATOM      3  C   UNL     1       2.144   8.792  18.107  0.00  0.00    +0.000 A 
ATOM      4  C   UNL     1       1.574   8.799  19.388  0.00  0.00    +0.000 A 
ATOM      5  C   UNL     1       1.832   7.684  20.195  0.00  0.00    +0.000 A 
ATOM      6  C   UNL     1       2.589   6.599  19.737  0.00  0.00    +0.000 A 
ENDROOT
BRANCH   4   7
ATOM      7  N   UNL     1       0.800   9.843  19.839  0.00  0.00    +0.000 N 
ATOM      8  C   UNL     1       1.027  11.242  19.455  0.00  0.00    +0.000 C 
ATOM      9  C   UNL     1       1.236  12.102  20.709  0.00  0.00    +0.000 C 
ATOM     10  O   UNL     1       0.151  11.953  21.643  0.00  0.00    +0.000 OA
ATOM     11  C   UNL     1       0.028  10.577  22.046  0.00  0.00    +0.000 C 
ATOM     12  C   UNL     1      -0.254   9.655  20.848  0.00  0.00    +0.000 C 
ENDBRANCH   4   7
BRANCH   1  13
ATOM     13  C   UNL     1       3.832   5.412  17.861  0.00  0.00    +0.000 C 
ATOM     14  O   UNL     1       4.426   5.556  16.792  0.00  0.00    +0.000 OA
BRANCH  13  20
ATOM     15  C   UNL     1       1.294   3.323  18.228  0.00  0.00    +0.000 C 
ATOM     16  C   UNL     1       2.699   3.258  18.692  0.00  0.00    +0.000 A 
ATOM     17  N   UNL     1       3.170   2.194  19.425  0.00  0.00    +0.000 N 
ATOM     18  C   UNL     1       4.483   2.437  19.711  0.00  0.00    +0.000 A 
ATOM     19  N   UNL     1       4.868   3.585  19.238  0.00  0.00    +0.000 NA
ATOM     20  C   UNL     1       3.785   4.119  18.562  0.00  0.00    +0.000 A 
ATOM     21  H   UNL     1       2.639   1.382  19.699  0.00  0.00    +0.000 HD
BRANCH  18  22
ATOM     22  O   UNL     1       5.281   1.622  20.373  0.00  0.00    +0.000 OA
ATOM     23  H   UNL     1       5.380   1.943  21.280  0.00  0.00    +0.000 HD
ENDBRANCH  18  22
ENDBRANCH  13  20
ENDBRANCH   1  13
TORSDOF 4
ENDMDL
MODEL 7
REMARK VINA RESULT:      -7.4      3.658      4.698
REMARK  Name = 
REMARK  5 active torsions:
REMARK  status: ('A' for Active; 'I' for Inactive)
REMARK    1  A    between atoms: C_1  and  C_2
REMARK    2  A    between atoms: C_4  and  O_5
REMARK    3  A    between atoms: C_7  and  C_8
REMARK    4  A    between atoms: C_8  and  C_10
REMARK    5  A    between atoms: C_13  and  N_14
REMARK                            x       y       z     vdW  Elec       q    Type
REMARK                         _______ _______ _______ _____ _____    ______ ____
ROOT
ATOM      1  C   UNL     1       5.511   5.072  16.172  0.00  0.00    +0.000 A 
ATOM      2  C   UNL     1       5.073   3.780  16.478  0.00  0.00    +0.000 A 
ATOM      3  C   UNL     1       3.998   3.585  17.356  0.00  0.00    +0.000 A 
ATOM      4  C   UNL     1       3.318   4.658  17.948  0.00  0.00    +0.000 A 
ATOM      5  C   UNL     1       3.736   5.944  17.585  0.00  0.00    +0.000 A 
ATOM      6  C   UNL     1       4.804   6.151  16.703  0.00  0.00    +0.000 A 
ENDROOT
BRANCH   4   7
ATOM      7  N   UNL     1       2.290   4.469  18.843  0.00  0.00    +0.000 N 
ATOM      8  C   UNL     1       2.178   5.202  20.111  0.00  0.00    +0.000 C 
ATOM      9  C   UNL     1       2.114   4.213  21.283  0.00  0.00    +0.000 C 
ATOM     10  O   UNL     1       1.063   3.246  21.107  0.00  0.00    +0.000 OA
ATOM     11  C   UNL     1       1.268   2.504  19.891  0.00  0.00    +0.000 C 
ATOM     12  C   UNL     1       1.274   3.422  18.657  0.00  0.00    +0.000 C 
ENDBRANCH   4   7
BRANCH   1  13
ATOM     13  C   UNL     1       6.716   5.232  15.297  0.00  0.00    +0.000 C 
ATOM     14  O   UNL     1       7.663   5.897  15.713  0.00  0.00    +0.000 OA
BRANCH  13  20
ATOM     15  C   UNL     1       8.598   5.958  12.676  0.00  0.00    +0.000 C 
ATOM     16  C   UNL     1       7.522   4.958  12.871  0.00  0.00    +0.000 A 
ATOM     17  N   UNL     1       7.128   4.113  11.860  0.00  0.00    +0.000 N 
ATOM     18  C   UNL     1       6.119   3.332  12.343  0.00  0.00    +0.000 A 
ATOM     19  N   UNL     1       5.828   3.637  13.572  0.00  0.00    +0.000 NA
ATOM     20  C   UNL     1       6.710   4.634  13.953  0.00  0.00    +0.000 A 
ATOM     21  H   UNL     1       7.518   4.080  10.930  0.00  0.00    +0.000 HD
BRANCH  18  22
ATOM     22  O   UNL     1       5.507   2.376  11.670  0.00  0.00    +0.000 OA
ATOM     23  H   UNL     1       6.055   2.118  10.916  0.00  0.00    +0.000 HD
ENDBRANCH  18  22
ENDBRANCH  13  20
ENDBRANCH   1  13
TORSDOF 4
ENDMDL
MODEL 8
REMARK VINA RESULT:      -7.4      2.295      2.708
REMARK  Name = 
REMARK  5 active torsions:
REMARK  status: ('A' for Active; 'I' for Inactive)
REMARK    1  A    between atoms: C_1  and  C_2
REMARK    2  A    between atoms: C_4  and  O_5
REMARK    3  A    between atoms: C_7  and  C_8
REMARK    4  A    between atoms: C_8  and  C_10
REMARK    5  A    between atoms: C_13  and  N_14
REMARK                            x       y       z     vdW  Elec       q    Type
REMARK                         _______ _______ _______ _____ _____    ______ ____
ROOT
ATOM      1  C   UNL     1       3.004   7.236  18.322  0.00  0.00    +0.000 A 
ATOM      2  C   UNL     1       2.617   6.756  19.577  0.00  0.00    +0.000 A 
ATOM      3  C   UNL     1       1.697   7.470  20.357  0.00  0.00    +0.000 A 
ATOM      4  C   UNL     1       1.126   8.673  19.918  0.00  0.00    +0.000 A 
ATOM      5  C   UNL     1       1.485   9.107  18.636  0.00  0.00    +0.000 A 
ATOM      6  C   UNL     1       2.396   8.398  17.844  0.00  0.00    +0.000 A 
ENDROOT
BRANCH   4   7
ATOM      7  N   UNL     1       0.256   9.398  20.699  0.00  0.00    +0.000 N 
ATOM      8  C   UNL     1      -0.041  10.819  20.471  0.00  0.00    +0.000 C 
ATOM      9  C   UNL     1       0.274  11.628  21.737  0.00  0.00    +0.000 C 
ATOM     10  O   UNL     1      -0.404  11.098  22.890  0.00  0.00    +0.000 OA
ATOM     11  C   UNL     1      -0.013   9.731  23.112  0.00  0.00    +0.000 C 
ATOM     12  C   UNL     1      -0.361   8.837  21.910  0.00  0.00    +0.000 C 
ENDBRANCH   4   7
BRANCH   1  13
ATOM     13  C   UNL     1       4.051   6.486  17.559  0.00  0.00    +0.000 C 
ATOM     14  O   UNL     1       4.552   7.015  16.568  0.00  0.00    +0.000 OA
BRANCH  13  20
ATOM     15  C   UNL     1       6.655   5.472  19.329  0.00  0.00    +0.000 C 
ATOM     16  C   UNL     1       5.515   4.732  18.739  0.00  0.00    +0.000 A 
ATOM     17  N   UNL     1       5.392   3.368  18.870  0.00  0.00    +0.000 N 
ATOM     18  C   UNL     1       4.260   2.989  18.210  0.00  0.00    +0.000 A 
ATOM     19  N   UNL     1       3.673   4.005  17.650  0.00  0.00    +0.000 NA
ATOM     20  C   UNL     1       4.413   5.125  17.986  0.00  0.00    +0.000 A 
ATOM     21  H   UNL     1       6.028   2.761  19.366  0.00  0.00    +0.000 HD
BRANCH  18  22
ATOM     22  O   UNL     1       3.794   1.757  18.142  0.00  0.00    +0.000 OA
ATOM     23  H   UNL     1       2.834   1.774  18.255  0.00  0.00    +0.000 HD
ENDBRANCH  18  22
ENDBRANCH  13  20
ENDBRANCH   1  13
TORSDOF 4
ENDMDL
MODEL 9
REMARK VINA RESULT:      -7.4      0.913      1.788
REMARK  Name = 
REMARK  5 active torsions:
REMARK  status: ('A' for Active; 'I' for Inactive)
REMARK    1  A    between atoms: C_1  and  C_2
REMARK    2  A    between atoms: C_4  and  O_5
REMARK    3  A    between atoms: C_7  and  C_8
REMARK    4  A    between atoms: C_8  and  C_10
REMARK    5  A    between atoms: C_13  and  N_14
REMARK                            x       y       z     vdW  Elec       q    Type
REMARK                         _______ _______ _______ _____ _____    ______ ____
ROOT
ATOM      1  C   UNL     1       3.722   5.581  18.511  0.00  0.00    +0.000 A 
ATOM      2  C   UNL     1       3.768   6.638  17.598  0.00  0.00    +0.000 A 
ATOM      3  C   UNL     1       3.032   7.808  17.829  0.00  0.00    +0.000 A 
ATOM      4  C   UNL     1       2.239   7.973  18.973  0.00  0.00    +0.000 A 
ATOM      5  C   UNL     1       2.251   6.925  19.901  0.00  0.00    +0.000 A 
ATOM      6  C   UNL     1       2.988   5.755  19.685  0.00  0.00    +0.000 A 
ENDROOT
BRANCH   4   7
ATOM      7  N   UNL     1       1.482   9.103  19.182  0.00  0.00    +0.000 N 
ATOM      8  C   UNL     1       0.991   9.513  20.505  0.00  0.00    +0.000 C 
ATOM      9  C   UNL     1      -0.538   9.645  20.477  0.00  0.00    +0.000 C 
ATOM     10  O   UNL     1      -0.976  10.525  19.426  0.00  0.00    +0.000 OA
ATOM     11  C   UNL     1      -0.536  10.032  18.148  0.00  0.00    +0.000 C 
ATOM     12  C   UNL     1       0.997   9.936  18.072  0.00  0.00    +0.000 C 
ENDBRANCH   4   7
BRANCH   1  13
ATOM     13  C   UNL     1       4.456   4.317  18.183  0.00  0.00    +0.000 C 
ATOM     14  O   UNL     1       4.208   3.305  18.837  0.00  0.00    +0.000 OA
BRANCH  13  20
ATOM     15  C   UNL     1       7.559   5.457  18.301  0.00  0.00    +0.000 C 
ATOM     16  C   UNL     1       6.783   4.819  17.212  0.00  0.00    +0.000 A 
ATOM     17  N   UNL     1       7.327   4.603  15.967  0.00  0.00    +0.000 N 
ATOM     18  C   UNL     1       6.368   4.021  15.191  0.00  0.00    +0.000 A 
ATOM     19  N   UNL     1       5.252   3.877  15.842  0.00  0.00    +0.000 NA
ATOM     20  C   UNL     1       5.480   4.337  17.128  0.00  0.00    +0.000 A 
ATOM     21  H   UNL     1       8.267   4.835  15.683  0.00  0.00    +0.000 HD
BRANCH  18  22
ATOM     22  O   UNL     1       6.530   3.635  13.940  0.00  0.00    +0.000 OA
ATOM     23  H   UNL     1       5.915   2.914  13.748  0.00  0.00    +0.000 HD
ENDBRANCH  18  22
ENDBRANCH  13  20
ENDBRANCH   1  13
TORSDOF 4
ENDMDL
