MODEL 1
REMARK VINA RESULT:      -9.4      0.000      0.000
REMARK  Name = 
REMARK  7 active torsions:
REMARK  status: ('A' for Active; 'I' for Inactive)
REMARK    1  A    between atoms: C_1  and  O_2
REMARK    2  A    between atoms: O_2  and  C_3
REMARK    3  A    between atoms: C_9  and  N_10
REMARK    4  A    between atoms: C_11  and  C_13
REMARK    5  A    between atoms: N_17  and  C_18
REMARK    6  A    between atoms: C_24  and  C_25
REMARK    7  A    between atoms: C_24  and  C_26
REMARK                            x       y       z     vdW  Elec       q    Type
REMARK                         _______ _______ _______ _____ _____    ______ ____
ROOT
ATOM      1  C   UNL     1       6.702   5.919  16.799  0.00  0.00    +0.000 A 
ATOM      2  C   UNL     1       6.336   5.026  15.795  0.00  0.00    +0.000 A 
ATOM      3  C   UNL     1       5.226   4.197  15.970  0.00  0.00    +0.000 A 
ATOM      4  C   UNL     1       4.470   4.257  17.141  0.00  0.00    +0.000 A 
ATOM      5  C   UNL     1       4.821   5.145  18.161  0.00  0.00    +0.000 A 
ATOM      6  C   UNL     1       5.938   5.981  17.971  0.00  0.00    +0.000 A 
ATOM      7  C   UNL     1       4.000   5.237  19.425  0.00  0.00    +0.000 C 
ATOM      8  C   UNL     1       3.134   3.987  19.568  0.00  0.00    +0.000 C 
ATOM      9  C   UNL     1       2.459   3.583  18.250  0.00  0.00    +0.000 C 
ATOM     10  C   UNL     1       1.787   2.217  18.464  0.00  0.00    +0.000 C 
ATOM     11  C   UNL     1       1.386   4.570  17.764  0.00  0.00    +0.000 C 
ATOM     12  O   UNL     1       3.416   3.391  17.197  0.00  0.00    +0.000 OA
ENDROOT
BRANCH   7  13
ATOM     13  N   UNL     1       3.240   6.471  19.410  0.00  0.00    +0.000 N 
ATOM     14  C   UNL     1       2.182   6.758  20.237  0.00  0.00    +0.000 C 
ATOM     15  O   UNL     1       1.731   5.957  21.047  0.00  0.00    +0.000 OA
ATOM     16  H   UNL     1       3.478   7.143  18.698  0.00  0.00    +0.000 HD
BRANCH  14  17
ATOM     17  C   UNL     1       1.625   8.071  20.014  0.00  0.00    +0.000 A 
ATOM     18  C   UNL     1       0.931   8.913  20.869  0.00  0.00    +0.000 A 
ATOM     19  C   UNL     1       0.662  10.075  20.115  0.00  0.00    +0.000 A 
ATOM     20  N   UNL     1       1.123   9.987  18.868  0.00  0.00    +0.000 NA
ATOM     21  N   UNL     1       1.680   8.755  18.819  0.00  0.00    +0.000 N 
ATOM     22  C   UNL     1       2.327   8.326  17.599  0.00  0.00    +0.000 C 
ATOM     23  C   UNL     1      -0.100  11.247  20.634  0.00  0.00    +0.000 C 
ATOM     24  C   UNL     1      -0.246  11.172  22.165  0.00  0.00    +0.000 C 
ATOM     25  C   UNL     1      -0.609   9.756  22.642  0.00  0.00    +0.000 C 
ATOM     26  C   UNL     1       0.493   8.749  22.283  0.00  0.00    +0.000 C 
ENDBRANCH  14  17
ENDBRANCH   7  13
BRANCH   1  28
ATOM     27  C   UNL     1       7.706   7.918  17.602  0.00  0.00    +0.000 C 
ATOM     28  O   UNL     1       7.768   6.774  16.755  0.00  0.00    +0.000 OA
ENDBRANCH   1  28
TORSDOF 3
ENDMDL
MODEL 2
REMARK VINA RESULT:      -8.2      4.094      8.933
REMARK  Name = 
REMARK  7 active torsions:
REMARK  status: ('A' for Active; 'I' for Inactive)
REMARK    1  A    between atoms: C_1  and  O_2
REMARK    2  A    between atoms: O_2  and  C_3
REMARK    3  A    between atoms: C_9  and  N_10
REMARK    4  A    between atoms: C_11  and  C_13
REMARK    5  A    between atoms: N_17  and  C_18
REMARK    6  A    between atoms: C_24  and  C_25
REMARK    7  A    between atoms: C_24  and  C_26
REMARK                            x       y       z     vdW  Elec       q    Type
REMARK                         _______ _______ _______ _____ _____    ______ ____
ROOT
ATOM      1  C   UNL     1      -3.585  13.104  21.480  0.00  0.00    +0.000 A 
ATOM      2  C   UNL     1      -4.880  12.814  21.056  0.00  0.00    +0.000 A 
ATOM      3  C   UNL     1      -5.092  12.259  19.793  0.00  0.00    +0.000 A 
ATOM      4  C   UNL     1      -4.018  11.982  18.947  0.00  0.00    +0.000 A 
ATOM      5  C   UNL     1      -2.711  12.266  19.353  0.00  0.00    +0.000 A 
ATOM      6  C   UNL     1      -2.508  12.820  20.632  0.00  0.00    +0.000 A 
ATOM      7  C   UNL     1      -1.536  11.952  18.457  0.00  0.00    +0.000 C 
ATOM      8  C   UNL     1      -2.020  11.763  17.021  0.00  0.00    +0.000 C 
ATOM      9  C   UNL     1      -3.292  10.908  16.935  0.00  0.00    +0.000 C 
ATOM     10  C   UNL     1      -3.794  10.954  15.483  0.00  0.00    +0.000 C 
ATOM     11  C   UNL     1      -3.088   9.435  17.321  0.00  0.00    +0.000 C 
ATOM     12  O   UNL     1      -4.354  11.449  17.736  0.00  0.00    +0.000 OA
ENDROOT
BRANCH   7  13
ATOM     13  N   UNL     1      -0.828  10.804  18.987  0.00  0.00    +0.000 N 
ATOM     14  C   UNL     1       0.422  10.838  19.553  0.00  0.00    +0.000 C 
ATOM     15  O   UNL     1       1.100  11.857  19.614  0.00  0.00    +0.000 OA
ATOM     16  H   UNL     1      -1.271   9.905  18.878  0.00  0.00    +0.000 HD
BRANCH  14  17
ATOM     17  C   UNL     1       0.875   9.547  20.013  0.00  0.00    +0.000 A 
ATOM     18  C   UNL     1       1.628   8.574  19.373  0.00  0.00    +0.000 A 
ATOM     19  C   UNL     1       1.786   7.540  20.320  0.00  0.00    +0.000 A 
ATOM     20  N   UNL     1       1.169   7.807  21.469  0.00  0.00    +0.000 NA
ATOM     21  N   UNL     1       0.601   9.015  21.255  0.00  0.00    +0.000 N 
ATOM     22  C   UNL     1      -0.134   9.646  22.328  0.00  0.00    +0.000 C 
ATOM     23  C   UNL     1       2.513   6.266  20.048  0.00  0.00    +0.000 C 
ATOM     24  C   UNL     1       3.344   6.374  18.755  0.00  0.00    +0.000 C 
ATOM     25  C   UNL     1       2.564   7.063  17.623  0.00  0.00    +0.000 C 
ATOM     26  C   UNL     1       2.197   8.506  17.999  0.00  0.00    +0.000 C 
ENDBRANCH  14  17
ENDBRANCH   7  13
BRANCH   1  28
ATOM     27  C   UNL     1      -2.269  12.960  23.453  0.00  0.00    +0.000 C 
ATOM     28  O   UNL     1      -3.245  13.656  22.684  0.00  0.00    +0.000 OA
ENDBRANCH   1  28
TORSDOF 3
ENDMDL
MODEL 3
REMARK VINA RESULT:      -8.2      2.415      7.359
REMARK  Name = 
REMARK  7 active torsions:
REMARK  status: ('A' for Active; 'I' for Inactive)
REMARK    1  A    between atoms: C_1  and  O_2
REMARK    2  A    between atoms: O_2  and  C_3
REMARK    3  A    between atoms: C_9  and  N_10
REMARK    4  A    between atoms: C_11  and  C_13
REMARK    5  A    between atoms: N_17  and  C_18
REMARK    6  A    between atoms: C_24  and  C_25
REMARK    7  A    between atoms: C_24  and  C_26
REMARK                            x       y       z     vdW  Elec       q    Type
REMARK                         _______ _______ _______ _____ _____    ______ ____
ROOT
ATOM      1  C   UNL     1       1.557   8.616  18.767  0.00  0.00    +0.000 A 
ATOM      2  C   UNL     1       1.704   8.564  20.151  0.00  0.00    +0.000 A 
ATOM      3  C   UNL     1       2.053   7.362  20.770  0.00  0.00    +0.000 A 
ATOM      4  C   UNL     1       2.266   6.208  20.015  0.00  0.00    +0.000 A 
ATOM      5  C   UNL     1       2.122   6.239  18.626  0.00  0.00    +0.000 A 
ATOM      6  C   UNL     1       1.775   7.459  18.011  0.00  0.00    +0.000 A 
ATOM      7  C   UNL     1       2.369   5.004  17.793  0.00  0.00    +0.000 C 
ATOM      8  C   UNL     1       2.315   3.764  18.684  0.00  0.00    +0.000 C 
ATOM      9  C   UNL     1       3.071   3.955  20.005  0.00  0.00    +0.000 C 
ATOM     10  C   UNL     1       2.782   2.734  20.894  0.00  0.00    +0.000 C 
ATOM     11  C   UNL     1       4.595   4.077  19.847  0.00  0.00    +0.000 C 
ATOM     12  O   UNL     1       2.593   5.096  20.735  0.00  0.00    +0.000 OA
ENDROOT
BRANCH   7  13
ATOM     13  N   UNL     1       3.622   5.153  17.081  0.00  0.00    +0.000 N 
ATOM     14  C   UNL     1       4.353   4.123  16.543  0.00  0.00    +0.000 C 
ATOM     15  O   UNL     1       4.039   2.945  16.666  0.00  0.00    +0.000 OA
ATOM     16  H   UNL     1       4.008   6.083  17.028  0.00  0.00    +0.000 HD
BRANCH  14  17
ATOM     17  C   UNL     1       5.552   4.566  15.871  0.00  0.00    +0.000 A 
ATOM     18  C   UNL     1       5.958   4.408  14.555  0.00  0.00    +0.000 A 
ATOM     19  C   UNL     1       7.199   5.074  14.463  0.00  0.00    +0.000 A 
ATOM     20  N   UNL     1       7.578   5.600  15.626  0.00  0.00    +0.000 NA
ATOM     21  N   UNL     1       6.580   5.259  16.473  0.00  0.00    +0.000 N 
ATOM     22  C   UNL     1       6.640   5.708  17.846  0.00  0.00    +0.000 C 
ATOM     23  C   UNL     1       8.022   5.134  13.221  0.00  0.00    +0.000 C 
ATOM     24  C   UNL     1       7.201   4.690  11.996  0.00  0.00    +0.000 C 
ATOM     25  C   UNL     1       6.356   3.439  12.290  0.00  0.00    +0.000 C 
ATOM     26  C   UNL     1       5.330   3.709  13.400  0.00  0.00    +0.000 C 
ENDBRANCH  14  17
ENDBRANCH   7  13
BRANCH   1  28
ATOM     27  C   UNL     1       0.230  10.582  18.622  0.00  0.00    +0.000 C 
ATOM     28  O   UNL     1       1.209   9.725  18.044  0.00  0.00    +0.000 OA
ENDBRANCH   1  28
TORSDOF 3
ENDMDL
MODEL 4
REMARK VINA RESULT:      -8.1      2.392      5.470
REMARK  Name = 
REMARK  7 active torsions:
REMARK  status: ('A' for Active; 'I' for Inactive)
REMARK    1  A    between atoms: C_1  and  O_2
REMARK    2  A    between atoms: O_2  and  C_3
REMARK    3  A    between atoms: C_9  and  N_10
REMARK    4  A    between atoms: C_11  and  C_13
REMARK    5  A    between atoms: N_17  and  C_18
REMARK    6  A    between atoms: C_24  and  C_25
REMARK    7  A    between atoms: C_24  and  C_26
REMARK                            x       y       z     vdW  Elec       q    Type
REMARK                         _______ _______ _______ _____ _____    ______ ____
ROOT
ATOM      1  C   UNL     1       5.431   4.232  13.907  0.00  0.00    +0.000 A 
ATOM      2  C   UNL     1       6.790   3.955  14.033  0.00  0.00    +0.000 A 
ATOM      3  C   UNL     1       7.561   4.655  14.963  0.00  0.00    +0.000 A 
ATOM      4  C   UNL     1       6.983   5.628  15.778  0.00  0.00    +0.000 A 
ATOM      5  C   UNL     1       5.622   5.922  15.667  0.00  0.00    +0.000 A 
ATOM      6  C   UNL     1       4.852   5.205  14.730  0.00  0.00    +0.000 A 
ATOM      7  C   UNL     1       4.977   6.958  16.557  0.00  0.00    +0.000 C 
ATOM      8  C   UNL     1       6.053   7.858  17.163  0.00  0.00    +0.000 C 
ATOM      9  C   UNL     1       7.265   7.065  17.671  0.00  0.00    +0.000 C 
ATOM     10  C   UNL     1       8.355   8.074  18.068  0.00  0.00    +0.000 C 
ATOM     11  C   UNL     1       6.970   6.178  18.892  0.00  0.00    +0.000 C 
ATOM     12  O   UNL     1       7.841   6.249  16.639  0.00  0.00    +0.000 OA
ENDROOT
BRANCH   7  13
ATOM     13  N   UNL     1       4.154   6.291  17.545  0.00  0.00    +0.000 N 
ATOM     14  C   UNL     1       2.990   6.791  18.073  0.00  0.00    +0.000 C 
ATOM     15  O   UNL     1       2.554   7.902  17.796  0.00  0.00    +0.000 OA
ATOM     16  H   UNL     1       4.499   5.416  17.909  0.00  0.00    +0.000 HD
BRANCH  14  17
ATOM     17  C   UNL     1       2.368   5.902  19.025  0.00  0.00    +0.000 A 
ATOM     18  C   UNL     1       2.182   4.528  18.987  0.00  0.00    +0.000 A 
ATOM     19  C   UNL     1       1.544   4.202  20.203  0.00  0.00    +0.000 A 
ATOM     20  N   UNL     1       1.314   5.276  20.957  0.00  0.00    +0.000 NA
ATOM     21  N   UNL     1       1.796   6.299  20.214  0.00  0.00    +0.000 N 
ATOM     22  C   UNL     1       1.748   7.640  20.751  0.00  0.00    +0.000 C 
ATOM     23  C   UNL     1       1.123   2.823  20.579  0.00  0.00    +0.000 C 
ATOM     24  C   UNL     1       1.772   1.778  19.651  0.00  0.00    +0.000 C 
ATOM     25  C   UNL     1       1.731   2.212  18.176  0.00  0.00    +0.000 C 
ATOM     26  C   UNL     1       2.522   3.509  17.956  0.00  0.00    +0.000 C 
ENDBRANCH  14  17
ENDBRANCH   7  13
BRANCH   1  28
ATOM     27  C   UNL     1       5.135   3.148  11.813  0.00  0.00    +0.000 C 
ATOM     28  O   UNL     1       4.572   3.626  13.031  0.00  0.00    +0.000 OA
ENDBRANCH   1  28
TORSDOF 3
ENDMDL
MODEL 5
REMARK VINA RESULT:      -7.8      4.709      9.283
REMARK  Name = 
REMARK  7 active torsions:
REMARK  status: ('A' for Active; 'I' for Inactive)
REMARK    1  A    between atoms: C_1  and  O_2
REMARK    2  A    between atoms: O_2  and  C_3
REMARK    3  A    between atoms: C_9  and  N_10
REMARK    4  A    between atoms: C_11  and  C_13
REMARK    5  A    between atoms: N_17  and  C_18
REMARK    6  A    between atoms: C_24  and  C_25
REMARK    7  A    between atoms: C_24  and  C_26
REMARK                            x       y       z     vdW  Elec       q    Type
REMARK                         _______ _______ _______ _____ _____    ______ ____
ROOT
ATOM      1  C   UNL     1      -5.188  12.320  20.647  0.00  0.00    +0.000 A 
ATOM      2  C   UNL     1      -6.236  11.773  19.912  0.00  0.00    +0.000 A 
ATOM      3  C   UNL     1      -6.006  11.288  18.623  0.00  0.00    +0.000 A 
ATOM      4  C   UNL     1      -4.729  11.336  18.062  0.00  0.00    +0.000 A 
ATOM      5  C   UNL     1      -3.664  11.882  18.782  0.00  0.00    +0.000 A 
ATOM      6  C   UNL     1      -3.907  12.364  20.084  0.00  0.00    +0.000 A 
ATOM      7  C   UNL     1      -2.272  11.923  18.197  0.00  0.00    +0.000 C 
ATOM      8  C   UNL     1      -2.346  11.743  16.681  0.00  0.00    +0.000 C 
ATOM      9  C   UNL     1      -3.314  10.627  16.267  0.00  0.00    +0.000 C 
ATOM     10  C   UNL     1      -3.459  10.672  14.737  0.00  0.00    +0.000 C 
ATOM     11  C   UNL     1      -2.851   9.214  16.659  0.00  0.00    +0.000 C 
ATOM     12  O   UNL     1      -4.633  10.840  16.794  0.00  0.00    +0.000 OA
ENDROOT
BRANCH   7  13
ATOM     13  N   UNL     1      -1.449  10.932  18.859  0.00  0.00    +0.000 N 
ATOM     14  C   UNL     1      -0.292  11.199  19.549  0.00  0.00    +0.000 C 
ATOM     15  O   UNL     1       0.197  12.319  19.626  0.00  0.00    +0.000 OA
ATOM     16  H   UNL     1      -1.723   9.968  18.753  0.00  0.00    +0.000 HD
BRANCH  14  17
ATOM     17  C   UNL     1       0.312  10.021  20.125  0.00  0.00    +0.000 A 
ATOM     18  C   UNL     1       1.134   9.059  19.555  0.00  0.00    +0.000 A 
ATOM     19  C   UNL     1       1.441   8.162  20.600  0.00  0.00    +0.000 A 
ATOM     20  N   UNL     1       0.851   8.499  21.746  0.00  0.00    +0.000 NA
ATOM     21  N   UNL     1       0.150   9.612  21.431  0.00  0.00    +0.000 N 
ATOM     22  C   UNL     1      -0.597  10.288  22.467  0.00  0.00    +0.000 C 
ATOM     23  C   UNL     1       2.283   6.944  20.431  0.00  0.00    +0.000 C 
ATOM     24  C   UNL     1       3.041   6.982  19.090  0.00  0.00    +0.000 C 
ATOM     25  C   UNL     1       2.144   7.455  17.934  0.00  0.00    +0.000 C 
ATOM     26  C   UNL     1       1.645   8.888  18.167  0.00  0.00    +0.000 C 
ENDBRANCH  14  17
ENDBRANCH   7  13
BRANCH   1  28
ATOM     27  C   UNL     1      -6.600  13.040  22.418  0.00  0.00    +0.000 C 
ATOM     28  O   UNL     1      -5.284  12.837  21.910  0.00  0.00    +0.000 OA
ENDBRANCH   1  28
TORSDOF 3
ENDMDL
MODEL 6
REMARK VINA RESULT:      -7.7      4.407      8.238
REMARK  Name = 
REMARK  7 active torsions:
REMARK  status: ('A' for Active; 'I' for Inactive)
REMARK    1  A    between atoms: C_1  and  O_2
REMARK    2  A    between atoms: O_2  and  C_3
REMARK    3  A    between atoms: C_9  and  N_10
REMARK    4  A    between atoms: C_11  and  C_13
REMARK    5  A    between atoms: N_17  and  C_18
REMARK    6  A    between atoms: C_24  and  C_25
REMARK    7  A    between atoms: C_24  and  C_26
REMARK                            x       y       z     vdW  Elec       q    Type
REMARK                         _______ _______ _______ _____ _____    ______ ____
ROOT
ATOM      1  C   UNL     1       1.126   8.861  20.568  0.00  0.00    +0.000 A 
ATOM      2  C   UNL     1       1.081   8.616  21.939  0.00  0.00    +0.000 A 
ATOM      3  C   UNL     1       0.523   9.563  22.799  0.00  0.00    +0.000 A 
ATOM      4  C   UNL     1      -0.001  10.756  22.300  0.00  0.00    +0.000 A 
ATOM      5  C   UNL     1       0.035  11.023  20.929  0.00  0.00    +0.000 A 
ATOM      6  C   UNL     1       0.595  10.057  20.070  0.00  0.00    +0.000 A 
ATOM      7  C   UNL     1      -0.547  12.300  20.371  0.00  0.00    +0.000 C 
ATOM      8  C   UNL     1      -0.700  13.327  21.492  0.00  0.00    +0.000 C 
ATOM      9  C   UNL     1      -1.288  12.719  22.772  0.00  0.00    +0.000 C 
ATOM     10  C   UNL     1      -1.208  13.782  23.879  0.00  0.00    +0.000 C 
ATOM     11  C   UNL     1      -2.754  12.274  22.644  0.00  0.00    +0.000 C 
ATOM     12  O   UNL     1      -0.510  11.605  23.240  0.00  0.00    +0.000 OA
ENDROOT
BRANCH   7  13
ATOM     13  N   UNL     1      -1.787  11.999  19.686  0.00  0.00    +0.000 N 
ATOM     14  C   UNL     1      -2.005  12.156  18.340  0.00  0.00    +0.000 C 
ATOM     15  O   UNL     1      -1.171  12.631  17.579  0.00  0.00    +0.000 OA
ATOM     16  H   UNL     1      -2.563  11.703  20.258  0.00  0.00    +0.000 HD
BRANCH  14  17
ATOM     17  C   UNL     1      -3.330  11.757  17.928  0.00  0.00    +0.000 A 
ATOM     18  C   UNL     1      -4.557  11.928  18.550  0.00  0.00    +0.000 A 
ATOM     19  C   UNL     1      -5.505  11.364  17.669  0.00  0.00    +0.000 A 
ATOM     20  N   UNL     1      -4.940  10.851  16.578  0.00  0.00    +0.000 NA
ATOM     21  N   UNL     1      -3.619  11.075  16.766  0.00  0.00    +0.000 N 
ATOM     22  C   UNL     1      -2.687  10.675  15.736  0.00  0.00    +0.000 C 
ATOM     23  C   UNL     1      -6.968  11.299  17.952  0.00  0.00    +0.000 C 
ATOM     24  C   UNL     1      -7.341  12.214  19.133  0.00  0.00    +0.000 C 
ATOM     25  C   UNL     1      -6.335  12.099  20.291  0.00  0.00    +0.000 C 
ATOM     26  C   UNL     1      -4.931  12.540  19.855  0.00  0.00    +0.000 C 
ENDBRANCH  14  17
ENDBRANCH   7  13
BRANCH   1  28
ATOM     27  C   UNL     1       2.187   6.789  20.096  0.00  0.00    +0.000 C 
ATOM     28  O   UNL     1       1.653   8.022  19.625  0.00  0.00    +0.000 OA
ENDBRANCH   1  28
TORSDOF 3
ENDMDL
MODEL 7
REMARK VINA RESULT:      -7.4      6.183      9.986
REMARK  Name = 
REMARK  7 active torsions:
REMARK  status: ('A' for Active; 'I' for Inactive)
REMARK    1  A    between atoms: C_1  and  O_2
REMARK    2  A    between atoms: O_2  and  C_3
REMARK    3  A    between atoms: C_9  and  N_10
REMARK    4  A    between atoms: C_11  and  C_13
REMARK    5  A    between atoms: N_17  and  C_18
REMARK    6  A    between atoms: C_24  and  C_25
REMARK    7  A    between atoms: C_24  and  C_26
REMARK                            x       y       z     vdW  Elec       q    Type
REMARK                         _______ _______ _______ _____ _____    ______ ____
ROOT
ATOM      1  C   UNL     1      -0.527  18.007  17.658  0.00  0.00    +0.000 A 
ATOM      2  C   UNL     1       0.619  18.403  16.973  0.00  0.00    +0.000 A 
ATOM      3  C   UNL     1       1.839  17.778  17.236  0.00  0.00    +0.000 A 
ATOM      4  C   UNL     1       1.925  16.751  18.176  0.00  0.00    +0.000 A 
ATOM      5  C   UNL     1       0.788  16.339  18.875  0.00  0.00    +0.000 A 
ATOM      6  C   UNL     1      -0.440  16.972  18.597  0.00  0.00    +0.000 A 
ATOM      7  C   UNL     1       0.860  15.214  19.880  0.00  0.00    +0.000 C 
ATOM      8  C   UNL     1       2.312  14.990  20.297  0.00  0.00    +0.000 C 
ATOM      9  C   UNL     1       3.278  15.008  19.104  0.00  0.00    +0.000 C 
ATOM     10  C   UNL     1       4.712  14.976  19.657  0.00  0.00    +0.000 C 
ATOM     11  C   UNL     1       3.112  13.820  18.142  0.00  0.00    +0.000 C 
ATOM     12  O   UNL     1       3.173  16.226  18.351  0.00  0.00    +0.000 OA
ENDROOT
BRANCH   7  13
ATOM     13  N   UNL     1       0.228  14.036  19.322  0.00  0.00    +0.000 N 
ATOM     14  C   UNL     1      -0.208  12.954  20.045  0.00  0.00    +0.000 C 
ATOM     15  O   UNL     1      -0.050  12.853  21.256  0.00  0.00    +0.000 OA
ATOM     16  H   UNL     1       0.156  13.991  18.317  0.00  0.00    +0.000 HD
BRANCH  14  17
ATOM     17  C   UNL     1      -0.818  11.931  19.230  0.00  0.00    +0.000 A 
ATOM     18  C   UNL     1      -2.142  11.742  18.861  0.00  0.00    +0.000 A 
ATOM     19  C   UNL     1      -2.140  10.599  18.034  0.00  0.00    +0.000 A 
ATOM     20  N   UNL     1      -0.923  10.076  17.895  0.00  0.00    +0.000 NA
ATOM     21  N   UNL     1      -0.140  10.882  18.648  0.00  0.00    +0.000 N 
ATOM     22  C   UNL     1       1.282  10.630  18.699  0.00  0.00    +0.000 C 
ATOM     23  C   UNL     1      -3.368  10.007  17.429  0.00  0.00    +0.000 C 
ATOM     24  C   UNL     1      -4.556  10.982  17.534  0.00  0.00    +0.000 C 
ATOM     25  C   UNL     1      -4.634  11.651  18.916  0.00  0.00    +0.000 C 
ATOM     26  C   UNL     1      -3.382  12.493  19.199  0.00  0.00    +0.000 C 
ENDBRANCH  14  17
ENDBRANCH   7  13
BRANCH   1  28
ATOM     27  C   UNL     1      -2.589  18.621  18.666  0.00  0.00    +0.000 C 
ATOM     28  O   UNL     1      -1.775  18.544  17.500  0.00  0.00    +0.000 OA
ENDBRANCH   1  28
TORSDOF 3
ENDMDL
MODEL 8
REMARK VINA RESULT:      -7.3      7.557      9.782
REMARK  Name = 
REMARK  7 active torsions:
REMARK  status: ('A' for Active; 'I' for Inactive)
REMARK    1  A    between atoms: C_1  and  O_2
REMARK    2  A    between atoms: O_2  and  C_3
REMARK    3  A    between atoms: C_9  and  N_10
REMARK    4  A    between atoms: C_11  and  C_13
REMARK    5  A    between atoms: N_17  and  C_18
REMARK    6  A    between atoms: C_24  and  C_25
REMARK    7  A    between atoms: C_24  and  C_26
REMARK                            x       y       z     vdW  Elec       q    Type
REMARK                         _______ _______ _______ _____ _____    ______ ____
ROOT
ATOM      1  C   UNL     1      -3.029  11.007  16.996  0.00  0.00    +0.000 A 
ATOM      2  C   UNL     1      -4.381  11.345  16.995  0.00  0.00    +0.000 A 
ATOM      3  C   UNL     1      -4.950  11.948  18.117  0.00  0.00    +0.000 A 
ATOM      4  C   UNL     1      -4.177  12.227  19.245  0.00  0.00    +0.000 A 
ATOM      5  C   UNL     1      -2.820  11.895  19.268  0.00  0.00    +0.000 A 
ATOM      6  C   UNL     1      -2.254  11.292  18.127  0.00  0.00    +0.000 A 
ATOM      7  C   UNL     1      -1.965  12.210  20.473  0.00  0.00    +0.000 C 
ATOM      8  C   UNL     1      -2.859  12.461  21.686  0.00  0.00    +0.000 C 
ATOM      9  C   UNL     1      -4.065  13.350  21.355  0.00  0.00    +0.000 C 
ATOM     10  C   UNL     1      -4.989  13.367  22.584  0.00  0.00    +0.000 C 
ATOM     11  C   UNL     1      -3.701  14.804  21.014  0.00  0.00    +0.000 C 
ATOM     12  O   UNL     1      -4.849  12.809  20.280  0.00  0.00    +0.000 OA
ENDROOT
BRANCH   7  13
ATOM     13  N   UNL     1      -1.089  13.320  20.158  0.00  0.00    +0.000 N 
ATOM     14  C   UNL     1       0.035  13.665  20.866  0.00  0.00    +0.000 C 
ATOM     15  O   UNL     1       0.383  13.090  21.890  0.00  0.00    +0.000 OA
ATOM     16  H   UNL     1      -1.364  13.913  19.390  0.00  0.00    +0.000 HD
BRANCH  14  17
ATOM     17  C   UNL     1       0.729  14.805  20.313  0.00  0.00    +0.000 A 
ATOM     18  C   UNL     1       1.739  14.873  19.365  0.00  0.00    +0.000 A 
ATOM     19  C   UNL     1       2.002  16.249  19.196  0.00  0.00    +0.000 A 
ATOM     20  N   UNL     1       1.244  17.009  19.984  0.00  0.00    +0.000 NA
ATOM     21  N   UNL     1       0.498  16.115  20.672  0.00  0.00    +0.000 N 
ATOM     22  C   UNL     1      -0.488  16.599  21.612  0.00  0.00    +0.000 C 
ATOM     23  C   UNL     1       3.049  16.790  18.283  0.00  0.00    +0.000 C 
ATOM     24  C   UNL     1       3.549  15.702  17.315  0.00  0.00    +0.000 C 
ATOM     25  C   UNL     1       3.780  14.358  18.027  0.00  0.00    +0.000 C 
ATOM     26  C   UNL     1       2.474  13.813  18.622  0.00  0.00    +0.000 C 
ENDBRANCH  14  17
ENDBRANCH   7  13
BRANCH   1  28
ATOM     27  C   UNL     1      -3.072  10.239  14.749  0.00  0.00    +0.000 C 
ATOM     28  O   UNL     1      -2.357  10.405  15.969  0.00  0.00    +0.000 OA
ENDBRANCH   1  28
TORSDOF 3
ENDMDL
MODEL 9
REMARK VINA RESULT:      -7.3      6.322     10.613
REMARK  Name = 
REMARK  7 active torsions:
REMARK  status: ('A' for Active; 'I' for Inactive)
REMARK    1  A    between atoms: C_1  and  O_2
REMARK    2  A    between atoms: O_2  and  C_3
REMARK    3  A    between atoms: C_9  and  N_10
REMARK    4  A    between atoms: C_11  and  C_13
REMARK    5  A    between atoms: N_17  and  C_18
REMARK    6  A    between atoms: C_24  and  C_25
REMARK    7  A    between atoms: C_24  and  C_26
REMARK                            x       y       z     vdW  Elec       q    Type
REMARK                         _______ _______ _______ _____ _____    ______ ____
ROOT
ATOM      1  C   UNL     1      -0.976  18.275  17.980  0.00  0.00    +0.000 A 
ATOM      2  C   UNL     1      -0.259  18.495  16.807  0.00  0.00    +0.000 A 
ATOM      3  C   UNL     1       1.077  18.098  16.721  0.00  0.00    +0.000 A 
ATOM      4  C   UNL     1       1.704  17.473  17.799  0.00  0.00    +0.000 A 
ATOM      5  C   UNL     1       1.003  17.244  18.986  0.00  0.00    +0.000 A 
ATOM      6  C   UNL     1      -0.346  17.644  19.059  0.00  0.00    +0.000 A 
ATOM      7  C   UNL     1       1.662  16.550  20.154  0.00  0.00    +0.000 C 
ATOM      8  C   UNL     1       3.180  16.598  19.992  0.00  0.00    +0.000 C 
ATOM      9  C   UNL     1       3.630  16.273  18.561  0.00  0.00    +0.000 C 
ATOM     10  C   UNL     1       5.140  16.547  18.468  0.00  0.00    +0.000 C 
ATOM     11  C   UNL     1       3.384  14.816  18.139  0.00  0.00    +0.000 C 
ATOM     12  O   UNL     1       3.012  17.140  17.596  0.00  0.00    +0.000 OA
ENDROOT
BRANCH   7  13
ATOM     13  N   UNL     1       1.133  15.206  20.269  0.00  0.00    +0.000 N 
ATOM     14  C   UNL     1       1.182  14.430  21.400  0.00  0.00    +0.000 C 
ATOM     15  O   UNL     1       1.743  14.786  22.430  0.00  0.00    +0.000 OA
ATOM     16  H   UNL     1       0.749  14.795  19.432  0.00  0.00    +0.000 HD
BRANCH  14  17
ATOM     17  C   UNL     1       0.559  13.139  21.233  0.00  0.00    +0.000 A 
ATOM     18  C   UNL     1       0.836  12.113  20.342  0.00  0.00    +0.000 A 
ATOM     19  C   UNL     1      -0.075  11.083  20.663  0.00  0.00    +0.000 A 
ATOM     20  N   UNL     1      -0.889  11.420  21.662  0.00  0.00    +0.000 NA
ATOM     21  N   UNL     1      -0.507  12.679  21.976  0.00  0.00    +0.000 N 
ATOM     22  C   UNL     1      -1.163  13.359  23.069  0.00  0.00    +0.000 C 
ATOM     23  C   UNL     1      -0.157   9.787  19.931  0.00  0.00    +0.000 C 
ATOM     24  C   UNL     1       1.080   9.583  19.035  0.00  0.00    +0.000 C 
ATOM     25  C   UNL     1       1.458  10.865  18.274  0.00  0.00    +0.000 C 
ATOM     26  C   UNL     1       1.832  11.996  19.242  0.00  0.00    +0.000 C 
ENDBRANCH  14  17
ENDBRANCH   7  13
BRANCH   1  28
ATOM     27  C   UNL     1      -2.925  18.033  19.318  0.00  0.00    +0.000 C 
ATOM     28  O   UNL     1      -2.281  18.625  18.194  0.00  0.00    +0.000 OA
ENDBRANCH   1  28
TORSDOF 3
ENDMDL
