MODEL 1
REMARK VINA RESULT:      -8.6      0.000      0.000
REMARK  Name = 
REMARK  6 active torsions:
REMARK  status: ('A' for Active; 'I' for Inactive)
REMARK    1  A    between atoms: C_1  and  C_2
REMARK    2  A    between atoms: C_2  and  C_3
REMARK    3  A    between atoms: C_10  and  O_11
REMARK    4  A    between atoms: O_11  and  C_12
REMARK    5  A    between atoms: C_12  and  C_13
REMARK    6  A    between atoms: C_15  and  C_16
REMARK                            x       y       z     vdW  Elec       q    Type
REMARK                         _______ _______ _______ _____ _____    ______ ____
ROOT
ATOM      1  C   UNL     1       1.959   4.073  20.106  0.00  0.00    +0.000 A 
ATOM      2  C   UNL     1       1.422   5.202  20.596  0.00  0.00    +0.000 A 
ATOM      3  C   UNL     1       2.027   6.519  20.357  0.00  0.00    +0.000 A 
ATOM      4  O   UNL     1       1.486   7.534  20.784  0.00  0.00    +0.000 OA
ATOM      5  O   UNL     1       3.205   6.543  19.678  0.00  0.00    +0.000 OA
ATOM      6  C   UNL     1       3.783   5.359  19.147  0.00  0.00    +0.000 A 
ATOM      7  N   UNL     1       4.983   5.542  18.497  0.00  0.00    +0.000 NA
ATOM      8  C   UNL     1       5.573   4.494  18.043  0.00  0.00    +0.000 A 
ATOM      9  N   UNL     1       5.042   3.247  18.100  0.00  0.00    +0.000 N 
ATOM     10  C   UNL     1       3.833   3.008  18.665  0.00  0.00    +0.000 A 
ATOM     11  O   UNL     1       3.354   1.882  18.599  0.00  0.00    +0.000 OA
ATOM     12  C   UNL     1       3.176   4.169  19.319  0.00  0.00    +0.000 A 
ATOM     13  H   UNL     1       5.453   2.456  17.637  0.00  0.00    +0.000 HD
ENDROOT
BRANCH   1  15
ATOM     14  C   UNL     1       1.373   2.443  21.935  0.00  0.00    +0.000 C 
ATOM     15  C   UNL     1       1.344   2.735  20.440  0.00  0.00    +0.000 C 
ENDBRANCH   1  15
BRANCH   8  16
ATOM     16  O   UNL     1       6.788   4.616  17.458  0.00  0.00    +0.000 OA
BRANCH  16  17
ATOM     17  C   UNL     1       6.943   5.600  16.414  0.00  0.00    +0.000 C 
BRANCH  17  18
ATOM     18  C   UNL     1       6.865   5.008  15.058  0.00  0.00    +0.000 A 
ATOM     19  C   UNL     1       5.982   4.021  14.572  0.00  0.00    +0.000 A 
ATOM     20  C   UNL     1       6.340   3.873  13.257  0.00  0.00    +0.000 A 
ATOM     21  C   UNL     1       5.850   3.032  12.154  0.00  0.00    +0.000 C 
ATOM     22  O   UNL     1       7.371   4.709  12.970  0.00  0.00    +0.000 OA
ATOM     23  N   UNL     1       7.707   5.427  14.104  0.00  0.00    +0.000 NA
ENDBRANCH  17  18
ENDBRANCH  16  17
ENDBRANCH   8  16
TORSDOF 4
ENDMDL
MODEL 2
REMARK VINA RESULT:      -8.3      0.991      1.117
REMARK  Name = 
REMARK  6 active torsions:
REMARK  status: ('A' for Active; 'I' for Inactive)
REMARK    1  A    between atoms: C_1  and  C_2
REMARK    2  A    between atoms: C_2  and  C_3
REMARK    3  A    between atoms: C_10  and  O_11
REMARK    4  A    between atoms: O_11  and  C_12
REMARK    5  A    between atoms: C_12  and  C_13
REMARK    6  A    between atoms: C_15  and  C_16
REMARK                            x       y       z     vdW  Elec       q    Type
REMARK                         _______ _______ _______ _____ _____    ______ ____
ROOT
ATOM      1  C   UNL     1       1.828   4.232  20.254  0.00  0.00    +0.000 A 
ATOM      2  C   UNL     1       1.216   5.394  20.529  0.00  0.00    +0.000 A 
ATOM      3  C   UNL     1       1.878   6.690  20.328  0.00  0.00    +0.000 A 
ATOM      4  O   UNL     1       1.275   7.734  20.551  0.00  0.00    +0.000 OA
ATOM      5  O   UNL     1       3.175   6.663  19.917  0.00  0.00    +0.000 OA
ATOM      6  C   UNL     1       3.836   5.443  19.614  0.00  0.00    +0.000 A 
ATOM      7  N   UNL     1       5.149   5.577  19.225  0.00  0.00    +0.000 NA
ATOM      8  C   UNL     1       5.806   4.498  18.988  0.00  0.00    +0.000 A 
ATOM      9  N   UNL     1       5.257   3.258  19.024  0.00  0.00    +0.000 N 
ATOM     10  C   UNL     1       3.951   3.062  19.333  0.00  0.00    +0.000 A 
ATOM     11  O   UNL     1       3.481   1.934  19.250  0.00  0.00    +0.000 OA
ATOM     12  C   UNL     1       3.187   4.269  19.741  0.00  0.00    +0.000 A 
ATOM     13  H   UNL     1       5.745   2.435  18.721  0.00  0.00    +0.000 HD
ENDROOT
BRANCH   1  15
ATOM     14  C   UNL     1       1.416   2.426  21.960  0.00  0.00    +0.000 C 
ATOM     15  C   UNL     1       1.136   2.923  20.547  0.00  0.00    +0.000 C 
ENDBRANCH   1  15
BRANCH   8  16
ATOM     16  O   UNL     1       7.121   4.575  18.670  0.00  0.00    +0.000 OA
BRANCH  16  17
ATOM     17  C   UNL     1       7.526   5.563  17.700  0.00  0.00    +0.000 C 
BRANCH  17  18
ATOM     18  C   UNL     1       6.930   5.326  16.364  0.00  0.00    +0.000 A 
ATOM     19  C   UNL     1       7.030   4.186  15.539  0.00  0.00    +0.000 A 
ATOM     20  C   UNL     1       6.272   4.502  14.441  0.00  0.00    +0.000 A 
ATOM     21  C   UNL     1       5.926   3.792  13.201  0.00  0.00    +0.000 C 
ATOM     22  O   UNL     1       5.755   5.749  14.591  0.00  0.00    +0.000 OA
ATOM     23  N   UNL     1       6.168   6.274  15.802  0.00  0.00    +0.000 NA
ENDBRANCH  17  18
ENDBRANCH  16  17
ENDBRANCH   8  16
TORSDOF 4
ENDMDL
MODEL 3
REMARK VINA RESULT:      -8.3      2.136      3.111
REMARK  Name = 
REMARK  6 active torsions:
REMARK  status: ('A' for Active; 'I' for Inactive)
REMARK    1  A    between atoms: C_1  and  C_2
REMARK    2  A    between atoms: C_2  and  C_3
REMARK    3  A    between atoms: C_10  and  O_11
REMARK    4  A    between atoms: O_11  and  C_12
REMARK    5  A    between atoms: C_12  and  C_13
REMARK    6  A    between atoms: C_15  and  C_16
REMARK                            x       y       z     vdW  Elec       q    Type
REMARK                         _______ _______ _______ _____ _____    ______ ____
ROOT
ATOM      1  C   UNL     1       1.673   4.193  20.097  0.00  0.00    +0.000 A 
ATOM      2  C   UNL     1       1.289   5.381  20.591  0.00  0.00    +0.000 A 
ATOM      3  C   UNL     1       1.969   6.632  20.229  0.00  0.00    +0.000 A 
ATOM      4  O   UNL     1       1.565   7.704  20.666  0.00  0.00    +0.000 OA
ATOM      5  O   UNL     1       3.061   6.529  19.424  0.00  0.00    +0.000 OA
ATOM      6  C   UNL     1       3.478   5.282  18.888  0.00  0.00    +0.000 A 
ATOM      7  N   UNL     1       4.607   5.337  18.103  0.00  0.00    +0.000 NA
ATOM      8  C   UNL     1       5.054   4.227  17.635  0.00  0.00    +0.000 A 
ATOM      9  N   UNL     1       4.433   3.034  17.805  0.00  0.00    +0.000 N 
ATOM     10  C   UNL     1       3.280   2.920  18.509  0.00  0.00    +0.000 A 
ATOM     11  O   UNL     1       2.706   1.838  18.546  0.00  0.00    +0.000 OA
ATOM     12  C   UNL     1       2.798   4.156  19.178  0.00  0.00    +0.000 A 
ATOM     13  H   UNL     1       4.723   2.194  17.336  0.00  0.00    +0.000 HD
ENDROOT
BRANCH   1  15
ATOM     14  C   UNL     1       1.494   2.462  21.916  0.00  0.00    +0.000 C 
ATOM     15  C   UNL     1       0.992   2.926  20.556  0.00  0.00    +0.000 C 
ENDBRANCH   1  15
BRANCH   8  16
ATOM     16  O   UNL     1       6.202   4.222  16.915  0.00  0.00    +0.000 OA
BRANCH  16  17
ATOM     17  C   UNL     1       7.425   4.586  17.587  0.00  0.00    +0.000 C 
BRANCH  17  18
ATOM     18  C   UNL     1       7.654   6.050  17.600  0.00  0.00    +0.000 A 
ATOM     19  C   UNL     1       8.161   6.859  18.639  0.00  0.00    +0.000 A 
ATOM     20  C   UNL     1       8.180   8.119  18.101  0.00  0.00    +0.000 A 
ATOM     21  C   UNL     1       8.588   9.438  18.605  0.00  0.00    +0.000 C 
ATOM     22  O   UNL     1       7.712   8.075  16.826  0.00  0.00    +0.000 OA
ATOM     23  N   UNL     1       7.378   6.772  16.506  0.00  0.00    +0.000 NA
ENDBRANCH  17  18
ENDBRANCH  16  17
ENDBRANCH   8  16
TORSDOF 4
ENDMDL
MODEL 4
REMARK VINA RESULT:      -8.2      1.588      2.698
REMARK  Name = 
REMARK  6 active torsions:
REMARK  status: ('A' for Active; 'I' for Inactive)
REMARK    1  A    between atoms: C_1  and  C_2
REMARK    2  A    between atoms: C_2  and  C_3
REMARK    3  A    between atoms: C_10  and  O_11
REMARK    4  A    between atoms: O_11  and  C_12
REMARK    5  A    between atoms: C_12  and  C_13
REMARK    6  A    between atoms: C_15  and  C_16
REMARK                            x       y       z     vdW  Elec       q    Type
REMARK                         _______ _______ _______ _____ _____    ______ ____
ROOT
ATOM      1  C   UNL     1       2.586   3.509  19.682  0.00  0.00    +0.000 A 
ATOM      2  C   UNL     1       3.125   2.560  20.464  0.00  0.00    +0.000 A 
ATOM      3  C   UNL     1       4.576   2.342  20.536  0.00  0.00    +0.000 A 
ATOM      4  O   UNL     1       5.037   1.494  21.293  0.00  0.00    +0.000 OA
ATOM      5  O   UNL     1       5.354   3.096  19.715  0.00  0.00    +0.000 OA
ATOM      6  C   UNL     1       4.802   4.109  18.886  0.00  0.00    +0.000 A 
ATOM      7  N   UNL     1       5.714   4.777  18.101  0.00  0.00    +0.000 NA
ATOM      8  C   UNL     1       5.257   5.669  17.296  0.00  0.00    +0.000 A 
ATOM      9  N   UNL     1       3.953   6.034  17.239  0.00  0.00    +0.000 N 
ATOM     10  C   UNL     1       3.014   5.464  18.034  0.00  0.00    +0.000 A 
ATOM     11  O   UNL     1       1.870   5.902  18.016  0.00  0.00    +0.000 OA
ATOM     12  C   UNL     1       3.475   4.338  18.886  0.00  0.00    +0.000 A 
ATOM     13  H   UNL     1       3.626   6.813  16.696  0.00  0.00    +0.000 HD
ENDROOT
BRANCH   1  15
ATOM     14  C   UNL     1       0.449   2.494  18.817  0.00  0.00    +0.000 C 
ATOM     15  C   UNL     1       1.086   3.647  19.583  0.00  0.00    +0.000 C 
ENDBRANCH   1  15
BRANCH   8  16
ATOM     16  O   UNL     1       6.108   6.304  16.454  0.00  0.00    +0.000 OA
BRANCH  16  17
ATOM     17  C   UNL     1       7.261   5.578  15.981  0.00  0.00    +0.000 C 
BRANCH  17  18
ATOM     18  C   UNL     1       7.038   4.960  14.653  0.00  0.00    +0.000 A 
ATOM     19  C   UNL     1       6.112   3.960  14.285  0.00  0.00    +0.000 A 
ATOM     20  C   UNL     1       6.325   3.787  12.942  0.00  0.00    +0.000 A 
ATOM     21  C   UNL     1       5.722   2.924  11.916  0.00  0.00    +0.000 C 
ATOM     22  O   UNL     1       7.315   4.621  12.528  0.00  0.00    +0.000 OA
ATOM     23  N   UNL     1       7.769   5.362  13.605  0.00  0.00    +0.000 NA
ENDBRANCH  17  18
ENDBRANCH  16  17
ENDBRANCH   8  16
TORSDOF 4
ENDMDL
MODEL 5
REMARK VINA RESULT:      -8.2      1.999      3.098
REMARK  Name = 
REMARK  6 active torsions:
REMARK  status: ('A' for Active; 'I' for Inactive)
REMARK    1  A    between atoms: C_1  and  C_2
REMARK    2  A    between atoms: C_2  and  C_3
REMARK    3  A    between atoms: C_10  and  O_11
REMARK    4  A    between atoms: O_11  and  C_12
REMARK    5  A    between atoms: C_12  and  C_13
REMARK    6  A    between atoms: C_15  and  C_16
REMARK                            x       y       z     vdW  Elec       q    Type
REMARK                         _______ _______ _______ _____ _____    ______ ____
ROOT
ATOM      1  C   UNL     1       1.556   4.447  20.010  0.00  0.00    +0.000 A 
ATOM      2  C   UNL     1       1.299   5.603  20.642  0.00  0.00    +0.000 A 
ATOM      3  C   UNL     1       1.912   6.871  20.225  0.00  0.00    +0.000 A 
ATOM      4  O   UNL     1       1.622   7.916  20.800  0.00  0.00    +0.000 OA
ATOM      5  O   UNL     1       2.816   6.816  19.211  0.00  0.00    +0.000 OA
ATOM      6  C   UNL     1       3.095   5.603  18.526  0.00  0.00    +0.000 A 
ATOM      7  N   UNL     1       4.042   5.703  17.532  0.00  0.00    +0.000 NA
ATOM      8  C   UNL     1       4.367   4.623  16.917  0.00  0.00    +0.000 A 
ATOM      9  N   UNL     1       3.774   3.423  17.138  0.00  0.00    +0.000 N 
ATOM     10  C   UNL     1       2.786   3.270  18.054  0.00  0.00    +0.000 A 
ATOM     11  O   UNL     1       2.215   2.190  18.141  0.00  0.00    +0.000 OA
ATOM     12  C   UNL     1       2.470   4.463  18.880  0.00  0.00    +0.000 A 
ATOM     13  H   UNL     1       3.949   2.614  16.570  0.00  0.00    +0.000 HD
ENDROOT
BRANCH   1  15
ATOM     14  C   UNL     1       1.734   2.595  21.707  0.00  0.00    +0.000 C 
ATOM     15  C   UNL     1       0.963   3.156  20.520  0.00  0.00    +0.000 C 
ENDBRANCH   1  15
BRANCH   8  16
ATOM     16  O   UNL     1       5.344   4.659  15.980  0.00  0.00    +0.000 OA
BRANCH  16  17
ATOM     17  C   UNL     1       6.706   4.459  16.412  0.00  0.00    +0.000 C 
BRANCH  17  18
ATOM     18  C   UNL     1       7.243   5.620  17.159  0.00  0.00    +0.000 A 
ATOM     19  C   UNL     1       7.328   6.970  16.758  0.00  0.00    +0.000 A 
ATOM     20  C   UNL     1       7.881   7.605  17.839  0.00  0.00    +0.000 A 
ATOM     21  C   UNL     1       8.246   9.000  18.127  0.00  0.00    +0.000 C 
ATOM     22  O   UNL     1       8.118   6.700  18.824  0.00  0.00    +0.000 OA
ATOM     23  N   UNL     1       7.718   5.446  18.400  0.00  0.00    +0.000 NA
ENDBRANCH  17  18
ENDBRANCH  16  17
ENDBRANCH   8  16
TORSDOF 4
ENDMDL
MODEL 6
REMARK VINA RESULT:      -8.0      1.165      1.185
REMARK  Name = 
REMARK  6 active torsions:
REMARK  status: ('A' for Active; 'I' for Inactive)
REMARK    1  A    between atoms: C_1  and  C_2
REMARK    2  A    between atoms: C_2  and  C_3
REMARK    3  A    between atoms: C_10  and  O_11
REMARK    4  A    between atoms: O_11  and  C_12
REMARK    5  A    between atoms: C_12  and  C_13
REMARK    6  A    between atoms: C_15  and  C_16
REMARK                            x       y       z     vdW  Elec       q    Type
REMARK                         _______ _______ _______ _____ _____    ______ ____
ROOT
ATOM      1  C   UNL     1       1.741   4.826  20.047  0.00  0.00    +0.000 A 
ATOM      2  C   UNL     1       1.200   5.806  20.789  0.00  0.00    +0.000 A 
ATOM      3  C   UNL     1       1.516   7.222  20.559  0.00  0.00    +0.000 A 
ATOM      4  O   UNL     1       0.972   8.093  21.229  0.00  0.00    +0.000 OA
ATOM      5  O   UNL     1       2.444   7.499  19.604  0.00  0.00    +0.000 OA
ATOM      6  C   UNL     1       3.020   6.476  18.805  0.00  0.00    +0.000 A 
ATOM      7  N   UNL     1       3.954   6.912  17.892  0.00  0.00    +0.000 NA
ATOM      8  C   UNL     1       4.542   6.019  17.179  0.00  0.00    +0.000 A 
ATOM      9  N   UNL     1       4.236   4.698  17.225  0.00  0.00    +0.000 N 
ATOM     10  C   UNL     1       3.279   4.212  18.052  0.00  0.00    +0.000 A 
ATOM     11  O   UNL     1       2.971   3.028  17.980  0.00  0.00    +0.000 OA
ATOM     12  C   UNL     1       2.665   5.190  18.987  0.00  0.00    +0.000 A 
ATOM     13  H   UNL     1       4.614   4.027  16.580  0.00  0.00    +0.000 HD
ENDROOT
BRANCH   1  15
ATOM     14  C   UNL     1       2.266   2.872  21.546  0.00  0.00    +0.000 C 
ATOM     15  C   UNL     1       1.445   3.381  20.369  0.00  0.00    +0.000 C 
ENDBRANCH   1  15
BRANCH   8  16
ATOM     16  O   UNL     1       5.517   6.392  16.316  0.00  0.00    +0.000 OA
BRANCH  16  17
ATOM     17  C   UNL     1       6.650   5.513  16.151  0.00  0.00    +0.000 C 
BRANCH  17  18
ATOM     18  C   UNL     1       6.721   4.926  14.793  0.00  0.00    +0.000 A 
ATOM     19  C   UNL     1       5.984   3.850  14.254  0.00  0.00    +0.000 A 
ATOM     20  C   UNL     1       6.436   3.750  12.963  0.00  0.00    +0.000 A 
ATOM     21  C   UNL     1       6.111   2.868  11.833  0.00  0.00    +0.000 C 
ATOM     22  O   UNL     1       7.384   4.698  12.741  0.00  0.00    +0.000 OA
ATOM     23  N   UNL     1       7.568   5.441  13.892  0.00  0.00    +0.000 NA
ENDBRANCH  17  18
ENDBRANCH  16  17
ENDBRANCH   8  16
TORSDOF 4
ENDMDL
MODEL 7
REMARK VINA RESULT:      -7.9      2.086      3.091
REMARK  Name = 
REMARK  6 active torsions:
REMARK  status: ('A' for Active; 'I' for Inactive)
REMARK    1  A    between atoms: C_1  and  C_2
REMARK    2  A    between atoms: C_2  and  C_3
REMARK    3  A    between atoms: C_10  and  O_11
REMARK    4  A    between atoms: O_11  and  C_12
REMARK    5  A    between atoms: C_12  and  C_13
REMARK    6  A    between atoms: C_15  and  C_16
REMARK                            x       y       z     vdW  Elec       q    Type
REMARK                         _______ _______ _______ _____ _____    ______ ____
ROOT
ATOM      1  C   UNL     1       1.679   7.944  19.990  0.00  0.00    +0.000 A 
ATOM      2  C   UNL     1       1.518   9.069  19.276  0.00  0.00    +0.000 A 
ATOM      3  C   UNL     1       2.115   9.238  17.944  0.00  0.00    +0.000 A 
ATOM      4  O   UNL     1       1.912  10.263  17.302  0.00  0.00    +0.000 OA
ATOM      5  O   UNL     1       2.906   8.230  17.490  0.00  0.00    +0.000 OA
ATOM      6  C   UNL     1       3.083   7.030  18.230  0.00  0.00    +0.000 A 
ATOM      7  N   UNL     1       3.924   6.109  17.647  0.00  0.00    +0.000 NA
ATOM      8  C   UNL     1       4.156   5.027  18.301  0.00  0.00    +0.000 A 
ATOM      9  N   UNL     1       3.560   4.717  19.479  0.00  0.00    +0.000 N 
ATOM     10  C   UNL     1       2.670   5.549  20.073  0.00  0.00    +0.000 A 
ATOM     11  O   UNL     1       2.084   5.176  21.082  0.00  0.00    +0.000 OA
ATOM     12  C   UNL     1       2.471   6.868  19.419  0.00  0.00    +0.000 A 
ATOM     13  H   UNL     1       3.655   3.820  19.921  0.00  0.00    +0.000 HD
ENDROOT
BRANCH   1  15
ATOM     14  C   UNL     1       0.783   9.210  21.974  0.00  0.00    +0.000 C 
ATOM     15  C   UNL     1       1.110   7.844  21.385  0.00  0.00    +0.000 C 
ENDBRANCH   1  15
BRANCH   8  16
ATOM     16  O   UNL     1       5.031   4.122  17.801  0.00  0.00    +0.000 OA
BRANCH  16  17
ATOM     17  C   UNL     1       6.370   4.568  17.499  0.00  0.00    +0.000 C 
BRANCH  17  18
ATOM     18  C   UNL     1       6.646   4.594  16.044  0.00  0.00    +0.000 A 
ATOM     19  C   UNL     1       6.078   3.807  15.019  0.00  0.00    +0.000 A 
ATOM     20  C   UNL     1       6.678   4.266  13.875  0.00  0.00    +0.000 A 
ATOM     21  C   UNL     1       6.564   3.915  12.452  0.00  0.00    +0.000 C 
ATOM     22  O   UNL     1       7.552   5.258  14.188  0.00  0.00    +0.000 OA
ATOM     23  N   UNL     1       7.536   5.468  15.555  0.00  0.00    +0.000 NA
ENDBRANCH  17  18
ENDBRANCH  16  17
ENDBRANCH   8  16
TORSDOF 4
ENDMDL
MODEL 8
REMARK VINA RESULT:      -7.8      1.790      2.754
REMARK  Name = 
REMARK  6 active torsions:
REMARK  status: ('A' for Active; 'I' for Inactive)
REMARK    1  A    between atoms: C_1  and  C_2
REMARK    2  A    between atoms: C_2  and  C_3
REMARK    3  A    between atoms: C_10  and  O_11
REMARK    4  A    between atoms: O_11  and  C_12
REMARK    5  A    between atoms: C_12  and  C_13
REMARK    6  A    between atoms: C_15  and  C_16
REMARK                            x       y       z     vdW  Elec       q    Type
REMARK                         _______ _______ _______ _____ _____    ______ ____
ROOT
ATOM      1  C   UNL     1       1.575   4.400  20.195  0.00  0.00    +0.000 A 
ATOM      2  C   UNL     1       1.413   5.625  20.720  0.00  0.00    +0.000 A 
ATOM      3  C   UNL     1       1.975   6.825  20.086  0.00  0.00    +0.000 A 
ATOM      4  O   UNL     1       1.772   7.933  20.571  0.00  0.00    +0.000 OA
ATOM      5  O   UNL     1       2.737   6.636  18.975  0.00  0.00    +0.000 OA
ATOM      6  C   UNL     1       2.913   5.348  18.402  0.00  0.00    +0.000 A 
ATOM      7  N   UNL     1       3.722   5.316  17.289  0.00  0.00    +0.000 NA
ATOM      8  C   UNL     1       3.955   4.167  16.763  0.00  0.00    +0.000 A 
ATOM      9  N   UNL     1       3.387   3.013  17.194  0.00  0.00    +0.000 N 
ATOM     10  C   UNL     1       2.527   2.985  18.242  0.00  0.00    +0.000 A 
ATOM     11  O   UNL     1       1.964   1.935  18.525  0.00  0.00    +0.000 OA
ATOM     12  C   UNL     1       2.332   4.270  18.962  0.00  0.00    +0.000 A 
ATOM     13  H   UNL     1       3.479   2.141  16.704  0.00  0.00    +0.000 HD
ENDROOT
BRANCH   1  15
ATOM     14  C   UNL     1       2.068   2.595  21.880  0.00  0.00    +0.000 C 
ATOM     15  C   UNL     1       1.044   3.188  20.921  0.00  0.00    +0.000 C 
ENDBRANCH   1  15
BRANCH   8  16
ATOM     16  O   UNL     1       4.800   4.076  15.709  0.00  0.00    +0.000 OA
BRANCH  16  17
ATOM     17  C   UNL     1       6.201   3.861  15.979  0.00  0.00    +0.000 C 
BRANCH  17  18
ATOM     18  C   UNL     1       6.872   5.074  16.502  0.00  0.00    +0.000 A 
ATOM     19  C   UNL     1       7.072   5.468  17.842  0.00  0.00    +0.000 A 
ATOM     20  C   UNL     1       7.761   6.649  17.742  0.00  0.00    +0.000 A 
ATOM     21  C   UNL     1       8.301   7.601  18.723  0.00  0.00    +0.000 C 
ATOM     22  O   UNL     1       7.960   6.949  16.432  0.00  0.00    +0.000 OA
ATOM     23  N   UNL     1       7.400   5.959  15.645  0.00  0.00    +0.000 NA
ENDBRANCH  17  18
ENDBRANCH  16  17
ENDBRANCH   8  16
TORSDOF 4
ENDMDL
MODEL 9
REMARK VINA RESULT:      -7.7      4.270      6.792
REMARK  Name = 
REMARK  6 active torsions:
REMARK  status: ('A' for Active; 'I' for Inactive)
REMARK    1  A    between atoms: C_1  and  C_2
REMARK    2  A    between atoms: C_2  and  C_3
REMARK    3  A    between atoms: C_10  and  O_11
REMARK    4  A    between atoms: O_11  and  C_12
REMARK    5  A    between atoms: C_12  and  C_13
REMARK    6  A    between atoms: C_15  and  C_16
REMARK                            x       y       z     vdW  Elec       q    Type
REMARK                         _______ _______ _______ _____ _____    ______ ____
ROOT
ATOM      1  C   UNL     1       5.382   3.752  16.472  0.00  0.00    +0.000 A 
ATOM      2  C   UNL     1       5.489   3.515  15.155  0.00  0.00    +0.000 A 
ATOM      3  C   UNL     1       6.415   4.271  14.301  0.00  0.00    +0.000 A 
ATOM      4  O   UNL     1       6.517   4.001  13.109  0.00  0.00    +0.000 OA
ATOM      5  O   UNL     1       7.112   5.280  14.889  0.00  0.00    +0.000 OA
ATOM      6  C   UNL     1       7.016   5.540  16.282  0.00  0.00    +0.000 A 
ATOM      7  N   UNL     1       7.771   6.602  16.726  0.00  0.00    +0.000 NA
ATOM      8  C   UNL     1       7.679   6.909  17.971  0.00  0.00    +0.000 A 
ATOM      9  N   UNL     1       6.951   6.201  18.870  0.00  0.00    +0.000 N 
ATOM     10  C   UNL     1       6.240   5.104  18.511  0.00  0.00    +0.000 A 
ATOM     11  O   UNL     1       5.684   4.442  19.379  0.00  0.00    +0.000 OA
ATOM     12  C   UNL     1       6.212   4.790  17.059  0.00  0.00    +0.000 A 
ATOM     13  H   UNL     1       6.982   6.377  19.858  0.00  0.00    +0.000 HD
ENDROOT
BRANCH   1  15
ATOM     14  C   UNL     1       2.958   3.565  17.129  0.00  0.00    +0.000 C 
ATOM     15  C   UNL     1       4.364   3.002  17.296  0.00  0.00    +0.000 C 
ENDBRANCH   1  15
BRANCH   8  16
ATOM     16  O   UNL     1       8.349   7.989  18.440  0.00  0.00    +0.000 OA
BRANCH  16  17
ATOM     17  C   UNL     1       8.129   9.259  17.791  0.00  0.00    +0.000 C 
BRANCH  17  18
ATOM     18  C   UNL     1       8.880  10.364  18.432  0.00  0.00    +0.000 A 
ATOM     19  C   UNL     1       9.643  10.344  19.619  0.00  0.00    +0.000 A 
ATOM     20  C   UNL     1      10.128  11.622  19.724  0.00  0.00    +0.000 A 
ATOM     21  C   UNL     1      10.990  12.310  20.696  0.00  0.00    +0.000 C 
ATOM     22  O   UNL     1       9.683  12.364  18.676  0.00  0.00    +0.000 OA
ATOM     23  N   UNL     1       8.894  11.574  17.859  0.00  0.00    +0.000 NA
ENDBRANCH  17  18
ENDBRANCH  16  17
ENDBRANCH   8  16
TORSDOF 4
ENDMDL
