MODEL 1
REMARK VINA RESULT:      -7.3      0.000      0.000
REMARK  Name = 
REMARK  7 active torsions:
REMARK  status: ('A' for Active; 'I' for Inactive)
REMARK    1  A    between atoms: O_1  and  C_2
REMARK    2  A    between atoms: C_2  and  C_3
REMARK    3  A    between atoms: C_2  and  C_16
REMARK    4  A    between atoms: C_3  and  O_4
REMARK    5  A    between atoms: O_4  and  N_5
REMARK    6  A    between atoms: C_6  and  C_7
REMARK    7  A    between atoms: C_16  and  N_17
REMARK                            x       y       z     vdW  Elec       q    Type
REMARK                         _______ _______ _______ _____ _____    ______ ____
ROOT
ATOM      1  O   UNL     1       7.396   6.540  16.747  0.00  0.00    +0.000 OA
ENDROOT
BRANCH   1   2
ATOM      2  N   UNL     1       6.472   5.629  17.269  0.00  0.00    +0.000 NA
ATOM      3  C   UNL     1       5.395   6.262  17.625  0.00  0.00    +0.000 C 
BRANCH   3   4
ATOM      4  C   UNL     1       4.259   5.566  18.156  0.00  0.00    +0.000 A 
ATOM      5  N   UNL     1       3.438   4.798  17.460  0.00  0.00    +0.000 NA
ATOM      6  C   UNL     1       2.586   4.298  18.416  0.00  0.00    +0.000 A 
ATOM      7  C   UNL     1       1.517   3.397  18.321  0.00  0.00    +0.000 A 
ATOM      8  C   UNL     1       0.842   3.049  19.503  0.00  0.00    +0.000 A 
ATOM      9  C   UNL     1       1.212   3.594  20.739  0.00  0.00    +0.000 A 
ATOM     10  C   UNL     1       2.270   4.505  20.847  0.00  0.00    +0.000 A 
ATOM     11  C   UNL     1       2.919   4.812  19.658  0.00  0.00    +0.000 A 
ATOM     12  O   UNL     1       3.987   5.639  19.497  0.00  0.00    +0.000 OA
ENDBRANCH   3   4
ENDBRANCH   1   2
BRANCH   1  13
ATOM     13  C   UNL     1       7.115   7.834  17.304  0.00  0.00    +0.000 C 
BRANCH  13  14
ATOM     14  C   UNL     1       8.414   8.368  17.908  0.00  0.00    +0.000 C 
BRANCH  14  15
ATOM     15  O   UNL     1       8.681   7.670  19.135  0.00  0.00    +0.000 OA
ATOM     16  H   UNL     1       9.562   7.960  19.431  0.00  0.00    +0.000 HD
ENDBRANCH  14  15
BRANCH  14  17
ATOM     17  C   UNL     1       8.329   9.890  18.177  0.00  0.00    +0.000 C 
BRANCH  17  18
ATOM     18  N   UNL     1       9.543  10.467  18.793  0.00  0.00    +0.000 NA
ATOM     19  C   UNL     1      10.303  11.313  17.865  0.00  0.00    +0.000 C 
ATOM     20  C   UNL     1      11.609  11.787  18.500  0.00  0.00    +0.000 C 
ATOM     21  C   UNL     1      11.351  12.530  19.802  0.00  0.00    +0.000 C 
ATOM     22  C   UNL     1      10.482  11.689  20.731  0.00  0.00    +0.000 C 
ATOM     23  C   UNL     1       9.214  11.201  20.025  0.00  0.00    +0.000 C 
ENDBRANCH  17  18
ENDBRANCH  14  17
ENDBRANCH  13  14
ENDBRANCH   1  13
TORSDOF 7
ENDMDL
MODEL 2
REMARK VINA RESULT:      -7.2      4.938      7.373
REMARK  Name = 
REMARK  7 active torsions:
REMARK  status: ('A' for Active; 'I' for Inactive)
REMARK    1  A    between atoms: O_1  and  C_2
REMARK    2  A    between atoms: C_2  and  C_3
REMARK    3  A    between atoms: C_2  and  C_16
REMARK    4  A    between atoms: C_3  and  O_4
REMARK    5  A    between atoms: O_4  and  N_5
REMARK    6  A    between atoms: C_6  and  C_7
REMARK    7  A    between atoms: C_16  and  N_17
REMARK                            x       y       z     vdW  Elec       q    Type
REMARK                         _______ _______ _______ _____ _____    ______ ____
ROOT
ATOM      1  O   UNL     1       5.099   6.235  16.321  0.00  0.00    +0.000 OA
ENDROOT
BRANCH   1   2
ATOM      2  N   UNL     1       4.472   6.673  17.492  0.00  0.00    +0.000 NA
ATOM      3  C   UNL     1       3.513   7.493  17.187  0.00  0.00    +0.000 C 
BRANCH   3   4
ATOM      4  C   UNL     1       2.669   8.066  18.195  0.00  0.00    +0.000 A 
ATOM      5  N   UNL     1       1.985   9.191  18.071  0.00  0.00    +0.000 NA
ATOM      6  C   UNL     1       1.276   9.262  19.246  0.00  0.00    +0.000 A 
ATOM      7  C   UNL     1       0.344  10.199  19.709  0.00  0.00    +0.000 A 
ATOM      8  C   UNL     1      -0.245   9.980  20.965  0.00  0.00    +0.000 A 
ATOM      9  C   UNL     1       0.097   8.866  21.744  0.00  0.00    +0.000 A 
ATOM     10  C   UNL     1       1.037   7.929  21.300  0.00  0.00    +0.000 A 
ATOM     11  C   UNL     1       1.585   8.175  20.048  0.00  0.00    +0.000 A 
ATOM     12  O   UNL     1       2.490   7.407  19.384  0.00  0.00    +0.000 OA
ENDBRANCH   3   4
ENDBRANCH   1   2
BRANCH   1  13
ATOM     13  C   UNL     1       5.321   4.820  16.431  0.00  0.00    +0.000 C 
BRANCH  13  14
ATOM     14  C   UNL     1       5.212   4.450  17.910  0.00  0.00    +0.000 C 
BRANCH  14  15
ATOM     15  O   UNL     1       6.501   4.029  18.383  0.00  0.00    +0.000 OA
ATOM     16  H   UNL     1       6.793   4.700  19.023  0.00  0.00    +0.000 HD
ENDBRANCH  14  15
BRANCH  14  17
ATOM     17  C   UNL     1       4.175   3.322  18.135  0.00  0.00    +0.000 C 
BRANCH  17  18
ATOM     18  N   UNL     1       3.284   3.539  19.295  0.00  0.00    +0.000 NA
ATOM     19  C   UNL     1       1.873   3.664  18.910  0.00  0.00    +0.000 C 
ATOM     20  C   UNL     1       1.004   4.011  20.117  0.00  0.00    +0.000 C 
ATOM     21  C   UNL     1       1.160   2.978  21.223  0.00  0.00    +0.000 C 
ATOM     22  C   UNL     1       2.635   2.778  21.559  0.00  0.00    +0.000 C 
ATOM     23  C   UNL     1       3.462   2.486  20.305  0.00  0.00    +0.000 C 
ENDBRANCH  17  18
ENDBRANCH  14  17
ENDBRANCH  13  14
ENDBRANCH   1  13
TORSDOF 7
ENDMDL
MODEL 3
REMARK VINA RESULT:      -7.1      4.670      7.515
REMARK  Name = 
REMARK  7 active torsions:
REMARK  status: ('A' for Active; 'I' for Inactive)
REMARK    1  A    between atoms: O_1  and  C_2
REMARK    2  A    between atoms: C_2  and  C_3
REMARK    3  A    between atoms: C_2  and  C_16
REMARK    4  A    between atoms: C_3  and  O_4
REMARK    5  A    between atoms: O_4  and  N_5
REMARK    6  A    between atoms: C_6  and  C_7
REMARK    7  A    between atoms: C_16  and  N_17
REMARK                            x       y       z     vdW  Elec       q    Type
REMARK                         _______ _______ _______ _____ _____    ______ ____
ROOT
ATOM      1  O   UNL     1       4.834   6.458  16.488  0.00  0.00    +0.000 OA
ENDROOT
BRANCH   1   2
ATOM      2  N   UNL     1       4.329   7.140  17.600  0.00  0.00    +0.000 NA
ATOM      3  C   UNL     1       3.122   7.546  17.345  0.00  0.00    +0.000 C 
BRANCH   3   4
ATOM      4  C   UNL     1       2.342   8.242  18.328  0.00  0.00    +0.000 A 
ATOM      5  N   UNL     1       1.647   9.345  18.112  0.00  0.00    +0.000 NA
ATOM      6  C   UNL     1       1.015   9.561  19.313  0.00  0.00    +0.000 A 
ATOM      7  C   UNL     1       0.110  10.551  19.717  0.00  0.00    +0.000 A 
ATOM      8  C   UNL     1      -0.395  10.489  21.026  0.00  0.00    +0.000 A 
ATOM      9  C   UNL     1       0.001   9.478  21.911  0.00  0.00    +0.000 A 
ATOM     10  C   UNL     1       0.915   8.490  21.526  0.00  0.00    +0.000 A 
ATOM     11  C   UNL     1       1.380   8.580  20.220  0.00  0.00    +0.000 A 
ATOM     12  O   UNL     1       2.244   7.734  19.597  0.00  0.00    +0.000 OA
ENDBRANCH   3   4
ENDBRANCH   1   2
BRANCH   1  13
ATOM     13  C   UNL     1       5.863   5.563  16.940  0.00  0.00    +0.000 C 
BRANCH  13  14
ATOM     14  C   UNL     1       5.253   4.661  18.012  0.00  0.00    +0.000 C 
BRANCH  14  15
ATOM     15  O   UNL     1       6.303   3.919  18.652  0.00  0.00    +0.000 OA
ATOM     16  H   UNL     1       7.140   4.329  18.372  0.00  0.00    +0.000 HD
ENDBRANCH  14  15
BRANCH  14  17
ATOM     17  C   UNL     1       4.214   3.686  17.406  0.00  0.00    +0.000 C 
BRANCH  17  18
ATOM     18  N   UNL     1       2.902   3.694  18.089  0.00  0.00    +0.000 NA
ATOM     19  C   UNL     1       2.281   2.365  18.139  0.00  0.00    +0.000 C 
ATOM     20  C   UNL     1       0.878   2.439  18.739  0.00  0.00    +0.000 C 
ATOM     21  C   UNL     1       0.903   3.064  20.125  0.00  0.00    +0.000 C 
ATOM     22  C   UNL     1       1.632   4.403  20.092  0.00  0.00    +0.000 C 
ATOM     23  C   UNL     1       3.009   4.277  19.435  0.00  0.00    +0.000 C 
ENDBRANCH  17  18
ENDBRANCH  14  17
ENDBRANCH  13  14
ENDBRANCH   1  13
TORSDOF 7
ENDMDL
MODEL 4
REMARK VINA RESULT:      -7.1      4.782      7.955
REMARK  Name = 
REMARK  7 active torsions:
REMARK  status: ('A' for Active; 'I' for Inactive)
REMARK    1  A    between atoms: O_1  and  C_2
REMARK    2  A    between atoms: C_2  and  C_3
REMARK    3  A    between atoms: C_2  and  C_16
REMARK    4  A    between atoms: C_3  and  O_4
REMARK    5  A    between atoms: O_4  and  N_5
REMARK    6  A    between atoms: C_6  and  C_7
REMARK    7  A    between atoms: C_16  and  N_17
REMARK                            x       y       z     vdW  Elec       q    Type
REMARK                         _______ _______ _______ _____ _____    ______ ____
ROOT
ATOM      1  O   UNL     1       3.777   6.188  17.549  0.00  0.00    +0.000 OA
ENDROOT
BRANCH   1   2
ATOM      2  N   UNL     1       3.203   6.692  18.721  0.00  0.00    +0.000 NA
ATOM      3  C   UNL     1       2.390   7.658  18.423  0.00  0.00    +0.000 C 
BRANCH   3   4
ATOM      4  C   UNL     1       1.626   8.333  19.432  0.00  0.00    +0.000 A 
ATOM      5  N   UNL     1       1.490   7.933  20.685  0.00  0.00    +0.000 NA
ATOM      6  C   UNL     1       0.759   8.943  21.262  0.00  0.00    +0.000 A 
ATOM      7  C   UNL     1       0.316   9.128  22.578  0.00  0.00    +0.000 A 
ATOM      8  C   UNL     1      -0.400  10.299  22.876  0.00  0.00    +0.000 A 
ATOM      9  C   UNL     1      -0.679  11.251  21.886  0.00  0.00    +0.000 A 
ATOM     10  C   UNL     1      -0.255  11.073  20.564  0.00  0.00    +0.000 A 
ATOM     11  C   UNL     1       0.461   9.909  20.315  0.00  0.00    +0.000 A 
ATOM     12  O   UNL     1       1.005   9.518  19.132  0.00  0.00    +0.000 OA
ENDBRANCH   3   4
ENDBRANCH   1   2
BRANCH   1  13
ATOM     13  C   UNL     1       5.160   5.903  17.813  0.00  0.00    +0.000 C 
BRANCH  13  14
ATOM     14  C   UNL     1       5.226   4.541  18.504  0.00  0.00    +0.000 C 
BRANCH  14  15
ATOM     15  O   UNL     1       6.584   4.072  18.482  0.00  0.00    +0.000 OA
ATOM     16  H   UNL     1       7.009   4.422  19.284  0.00  0.00    +0.000 HD
ENDBRANCH  14  15
BRANCH  14  17
ATOM     17  C   UNL     1       4.303   3.509  17.810  0.00  0.00    +0.000 C 
BRANCH  17  18
ATOM     18  N   UNL     1       3.232   2.973  18.678  0.00  0.00    +0.000 NA
ATOM     19  C   UNL     1       3.359   3.411  20.073  0.00  0.00    +0.000 C 
ATOM     20  C   UNL     1       2.311   2.739  20.956  0.00  0.00    +0.000 C 
ATOM     21  C   UNL     1       0.904   3.008  20.444  0.00  0.00    +0.000 C 
ATOM     22  C   UNL     1       0.796   2.641  18.968  0.00  0.00    +0.000 C 
ATOM     23  C   UNL     1       1.903   3.303  18.142  0.00  0.00    +0.000 C 
ENDBRANCH  17  18
ENDBRANCH  14  17
ENDBRANCH  13  14
ENDBRANCH   1  13
TORSDOF 7
ENDMDL
MODEL 5
REMARK VINA RESULT:      -7.1      1.857      8.945
REMARK  Name = 
REMARK  7 active torsions:
REMARK  status: ('A' for Active; 'I' for Inactive)
REMARK    1  A    between atoms: O_1  and  C_2
REMARK    2  A    between atoms: C_2  and  C_3
REMARK    3  A    between atoms: C_2  and  C_16
REMARK    4  A    between atoms: C_3  and  O_4
REMARK    5  A    between atoms: O_4  and  N_5
REMARK    6  A    between atoms: C_6  and  C_7
REMARK    7  A    between atoms: C_16  and  N_17
REMARK                            x       y       z     vdW  Elec       q    Type
REMARK                         _______ _______ _______ _____ _____    ______ ____
ROOT
ATOM      1  O   UNL     1       7.210   7.418  17.187  0.00  0.00    +0.000 OA
ENDROOT
BRANCH   1   2
ATOM      2  N   UNL     1       7.887   8.642  17.195  0.00  0.00    +0.000 NA
ATOM      3  C   UNL     1       8.324   8.886  18.392  0.00  0.00    +0.000 C 
BRANCH   3   4
ATOM      4  C   UNL     1       9.096  10.060  18.683  0.00  0.00    +0.000 A 
ATOM      5  N   UNL     1       9.352  10.526  19.894  0.00  0.00    +0.000 NA
ATOM      6  C   UNL     1      10.186  11.591  19.653  0.00  0.00    +0.000 A 
ATOM      7  C   UNL     1      10.832  12.476  20.526  0.00  0.00    +0.000 A 
ATOM      8  C   UNL     1      11.661  13.465  19.970  0.00  0.00    +0.000 A 
ATOM      9  C   UNL     1      11.829  13.577  18.583  0.00  0.00    +0.000 A 
ATOM     10  C   UNL     1      11.179  12.708  17.698  0.00  0.00    +0.000 A 
ATOM     11  C   UNL     1      10.380  11.738  18.289  0.00  0.00    +0.000 A 
ATOM     12  O   UNL     1       9.672  10.763  17.658  0.00  0.00    +0.000 OA
ENDBRANCH   3   4
ENDBRANCH   1   2
BRANCH   1  13
ATOM     13  C   UNL     1       7.746   6.601  18.240  0.00  0.00    +0.000 C 
BRANCH  13  14
ATOM     14  C   UNL     1       6.904   5.327  18.310  0.00  0.00    +0.000 C 
BRANCH  14  15
ATOM     15  O   UNL     1       7.745   4.196  18.032  0.00  0.00    +0.000 OA
ATOM     16  H   UNL     1       8.545   4.546  17.604  0.00  0.00    +0.000 HD
ENDBRANCH  14  15
BRANCH  14  17
ATOM     17  C   UNL     1       5.730   5.370  17.303  0.00  0.00    +0.000 C 
BRANCH  17  18
ATOM     18  N   UNL     1       4.400   5.540  17.927  0.00  0.00    +0.000 NA
ATOM     19  C   UNL     1       4.409   5.257  19.367  0.00  0.00    +0.000 C 
ATOM     20  C   UNL     1       2.998   5.322  19.947  0.00  0.00    +0.000 C 
ATOM     21  C   UNL     1       2.353   6.674  19.678  0.00  0.00    +0.000 C 
ATOM     22  C   UNL     1       2.428   7.012  18.193  0.00  0.00    +0.000 C 
ATOM     23  C   UNL     1       3.856   6.879  17.657  0.00  0.00    +0.000 C 
ENDBRANCH  17  18
ENDBRANCH  14  17
ENDBRANCH  13  14
ENDBRANCH   1  13
TORSDOF 7
ENDMDL
MODEL 6
REMARK VINA RESULT:      -7.0      1.725      9.111
REMARK  Name = 
REMARK  7 active torsions:
REMARK  status: ('A' for Active; 'I' for Inactive)
REMARK    1  A    between atoms: O_1  and  C_2
REMARK    2  A    between atoms: C_2  and  C_3
REMARK    3  A    between atoms: C_2  and  C_16
REMARK    4  A    between atoms: C_3  and  O_4
REMARK    5  A    between atoms: O_4  and  N_5
REMARK    6  A    between atoms: C_6  and  C_7
REMARK    7  A    between atoms: C_16  and  N_17
REMARK                            x       y       z     vdW  Elec       q    Type
REMARK                         _______ _______ _______ _____ _____    ______ ____
ROOT
ATOM      1  O   UNL     1       7.239   6.811  16.900  0.00  0.00    +0.000 OA
ENDROOT
BRANCH   1   2
ATOM      2  N   UNL     1       7.706   8.129  16.948  0.00  0.00    +0.000 NA
ATOM      3  C   UNL     1       8.124   8.395  18.148  0.00  0.00    +0.000 C 
BRANCH   3   4
ATOM      4  C   UNL     1       8.698   9.668  18.476  0.00  0.00    +0.000 A 
ATOM      5  N   UNL     1       8.541  10.781  17.779  0.00  0.00    +0.000 NA
ATOM      6  C   UNL     1       9.196  11.723  18.535  0.00  0.00    +0.000 A 
ATOM      7  C   UNL     1       9.362  13.102  18.354  0.00  0.00    +0.000 A 
ATOM      8  C   UNL     1      10.072  13.816  19.334  0.00  0.00    +0.000 A 
ATOM      9  C   UNL     1      10.614  13.171  20.454  0.00  0.00    +0.000 A 
ATOM     10  C   UNL     1      10.468  11.791  20.641  0.00  0.00    +0.000 A 
ATOM     11  C   UNL     1       9.748  11.126  19.657  0.00  0.00    +0.000 A 
ATOM     12  O   UNL     1       9.442   9.801  19.620  0.00  0.00    +0.000 OA
ENDBRANCH   3   4
ENDBRANCH   1   2
BRANCH   1  13
ATOM     13  C   UNL     1       6.536   6.539  18.123  0.00  0.00    +0.000 C 
BRANCH  13  14
ATOM     14  C   UNL     1       6.138   5.063  18.107  0.00  0.00    +0.000 C 
BRANCH  14  15
ATOM     15  O   UNL     1       7.319   4.258  18.251  0.00  0.00    +0.000 OA
ATOM     16  H   UNL     1       7.070   3.354  17.994  0.00  0.00    +0.000 HD
ENDBRANCH  14  15
BRANCH  14  17
ATOM     17  C   UNL     1       5.404   4.690  16.796  0.00  0.00    +0.000 C 
BRANCH  17  18
ATOM     18  N   UNL     1       4.020   4.207  16.991  0.00  0.00    +0.000 NA
ATOM     19  C   UNL     1       3.964   2.887  17.631  0.00  0.00    +0.000 C 
ATOM     20  C   UNL     1       2.528   2.372  17.701  0.00  0.00    +0.000 C 
ATOM     21  C   UNL     1       1.625   3.353  18.433  0.00  0.00    +0.000 C 
ATOM     22  C   UNL     1       1.753   4.747  17.828  0.00  0.00    +0.000 C 
ATOM     23  C   UNL     1       3.217   5.187  17.737  0.00  0.00    +0.000 C 
ENDBRANCH  17  18
ENDBRANCH  14  17
ENDBRANCH  13  14
ENDBRANCH   1  13
TORSDOF 7
ENDMDL
MODEL 7
REMARK VINA RESULT:      -7.0      1.531      9.107
REMARK  Name = 
REMARK  7 active torsions:
REMARK  status: ('A' for Active; 'I' for Inactive)
REMARK    1  A    between atoms: O_1  and  C_2
REMARK    2  A    between atoms: C_2  and  C_3
REMARK    3  A    between atoms: C_2  and  C_16
REMARK    4  A    between atoms: C_3  and  O_4
REMARK    5  A    between atoms: O_4  and  N_5
REMARK    6  A    between atoms: C_6  and  C_7
REMARK    7  A    between atoms: C_16  and  N_17
REMARK                            x       y       z     vdW  Elec       q    Type
REMARK                         _______ _______ _______ _____ _____    ______ ____
ROOT
ATOM      1  O   UNL     1       7.268   6.962  17.102  0.00  0.00    +0.000 OA
ENDROOT
BRANCH   1   2
ATOM      2  N   UNL     1       7.799   8.256  17.076  0.00  0.00    +0.000 NA
ATOM      3  C   UNL     1       8.198   8.582  18.267  0.00  0.00    +0.000 C 
BRANCH   3   4
ATOM      4  C   UNL     1       8.828   9.845  18.527  0.00  0.00    +0.000 A 
ATOM      5  N   UNL     1       8.752  10.911  17.749  0.00  0.00    +0.000 NA
ATOM      6  C   UNL     1       9.430  11.871  18.462  0.00  0.00    +0.000 A 
ATOM      7  C   UNL     1       9.673  13.224  18.192  0.00  0.00    +0.000 A 
ATOM      8  C   UNL     1      10.386  13.970  19.145  0.00  0.00    +0.000 A 
ATOM      9  C   UNL     1      10.856  13.380  20.326  0.00  0.00    +0.000 A 
ATOM     10  C   UNL     1      10.632  12.026  20.603  0.00  0.00    +0.000 A 
ATOM     11  C   UNL     1       9.912  11.329  19.642  0.00  0.00    +0.000 A 
ATOM     12  O   UNL     1       9.538  10.022  19.686  0.00  0.00    +0.000 OA
ENDBRANCH   3   4
ENDBRANCH   1   2
BRANCH   1  13
ATOM     13  C   UNL     1       7.542   6.389  18.390  0.00  0.00    +0.000 C 
BRANCH  13  14
ATOM     14  C   UNL     1       6.455   5.352  18.674  0.00  0.00    +0.000 C 
BRANCH  14  15
ATOM     15  O   UNL     1       6.855   4.090  18.115  0.00  0.00    +0.000 OA
ATOM     16  H   UNL     1       6.291   3.942  17.337  0.00  0.00    +0.000 HD
ENDBRANCH  14  15
BRANCH  14  17
ATOM     17  C   UNL     1       5.093   5.783  18.078  0.00  0.00    +0.000 C 
BRANCH  17  18
ATOM     18  N   UNL     1       3.985   4.842  18.353  0.00  0.00    +0.000 NA
ATOM     19  C   UNL     1       3.783   4.607  19.787  0.00  0.00    +0.000 C 
ATOM     20  C   UNL     1       2.716   3.540  20.023  0.00  0.00    +0.000 C 
ATOM     21  C   UNL     1       1.401   3.918  19.359  0.00  0.00    +0.000 C 
ATOM     22  C   UNL     1       1.625   4.254  17.888  0.00  0.00    +0.000 C 
ATOM     23  C   UNL     1       2.739   5.290  17.712  0.00  0.00    +0.000 C 
ENDBRANCH  17  18
ENDBRANCH  14  17
ENDBRANCH  13  14
ENDBRANCH   1  13
TORSDOF 7
ENDMDL
MODEL 8
REMARK VINA RESULT:      -7.0      1.714      9.122
REMARK  Name = 
REMARK  7 active torsions:
REMARK  status: ('A' for Active; 'I' for Inactive)
REMARK    1  A    between atoms: O_1  and  C_2
REMARK    2  A    between atoms: C_2  and  C_3
REMARK    3  A    between atoms: C_2  and  C_16
REMARK    4  A    between atoms: C_3  and  O_4
REMARK    5  A    between atoms: O_4  and  N_5
REMARK    6  A    between atoms: C_6  and  C_7
REMARK    7  A    between atoms: C_16  and  N_17
REMARK                            x       y       z     vdW  Elec       q    Type
REMARK                         _______ _______ _______ _____ _____    ______ ____
ROOT
ATOM      1  O   UNL     1       7.043   7.064  17.154  0.00  0.00    +0.000 OA
ENDROOT
BRANCH   1   2
ATOM      2  N   UNL     1       8.010   7.846  17.793  0.00  0.00    +0.000 NA
ATOM      3  C   UNL     1       7.723   9.102  17.635  0.00  0.00    +0.000 C 
BRANCH   3   4
ATOM      4  C   UNL     1       8.526  10.134  18.225  0.00  0.00    +0.000 A 
ATOM      5  N   UNL     1       9.311   9.985  19.278  0.00  0.00    +0.000 NA
ATOM      6  C   UNL     1       9.924  11.210  19.393  0.00  0.00    +0.000 A 
ATOM      7  C   UNL     1      10.891  11.680  20.290  0.00  0.00    +0.000 A 
ATOM      8  C   UNL     1      11.353  12.997  20.134  0.00  0.00    +0.000 A 
ATOM      9  C   UNL     1      10.853  13.826  19.120  0.00  0.00    +0.000 A 
ATOM     10  C   UNL     1       9.876  13.375  18.225  0.00  0.00    +0.000 A 
ATOM     11  C   UNL     1       9.458  12.063  18.406  0.00  0.00    +0.000 A 
ATOM     12  O   UNL     1       8.549  11.382  17.658  0.00  0.00    +0.000 OA
ENDBRANCH   3   4
ENDBRANCH   1   2
BRANCH   1  13
ATOM     13  C   UNL     1       7.214   5.702  17.578  0.00  0.00    +0.000 C 
BRANCH  13  14
ATOM     14  C   UNL     1       6.286   5.470  18.770  0.00  0.00    +0.000 C 
BRANCH  14  15
ATOM     15  O   UNL     1       7.074   5.407  19.970  0.00  0.00    +0.000 OA
ATOM     16  H   UNL     1       6.511   4.996  20.648  0.00  0.00    +0.000 HD
ENDBRANCH  14  15
BRANCH  14  17
ATOM     17  C   UNL     1       5.471   4.164  18.607  0.00  0.00    +0.000 C 
BRANCH  17  18
ATOM     18  N   UNL     1       4.043   4.290  18.967  0.00  0.00    +0.000 NA
ATOM     19  C   UNL     1       3.599   3.248  19.901  0.00  0.00    +0.000 C 
ATOM     20  C   UNL     1       2.095   3.338  20.149  0.00  0.00    +0.000 C 
ATOM     21  C   UNL     1       1.703   4.714  20.667  0.00  0.00    +0.000 C 
ATOM     22  C   UNL     1       2.245   5.802  19.747  0.00  0.00    +0.000 C 
ATOM     23  C   UNL     1       3.745   5.630  19.494  0.00  0.00    +0.000 C 
ENDBRANCH  17  18
ENDBRANCH  14  17
ENDBRANCH  13  14
ENDBRANCH   1  13
TORSDOF 7
ENDMDL
MODEL 9
REMARK VINA RESULT:      -7.0      1.672      9.170
REMARK  Name = 
REMARK  7 active torsions:
REMARK  status: ('A' for Active; 'I' for Inactive)
REMARK    1  A    between atoms: O_1  and  C_2
REMARK    2  A    between atoms: C_2  and  C_3
REMARK    3  A    between atoms: C_2  and  C_16
REMARK    4  A    between atoms: C_3  and  O_4
REMARK    5  A    between atoms: O_4  and  N_5
REMARK    6  A    between atoms: C_6  and  C_7
REMARK    7  A    between atoms: C_16  and  N_17
REMARK                            x       y       z     vdW  Elec       q    Type
REMARK                         _______ _______ _______ _____ _____    ______ ____
ROOT
ATOM      1  O   UNL     1       7.434   6.856  18.048  0.00  0.00    +0.000 OA
ENDROOT
BRANCH   1   2
ATOM      2  N   UNL     1       8.356   7.829  18.447  0.00  0.00    +0.000 NA
ATOM      3  C   UNL     1       7.980   8.989  18.001  0.00  0.00    +0.000 C 
BRANCH   3   4
ATOM      4  C   UNL     1       8.720  10.182  18.298  0.00  0.00    +0.000 A 
ATOM      5  N   UNL     1       8.576  11.344  17.684  0.00  0.00    +0.000 NA
ATOM      6  C   UNL     1       9.424  12.175  18.377  0.00  0.00    +0.000 A 
ATOM      7  C   UNL     1       9.698  13.541  18.237  0.00  0.00    +0.000 A 
ATOM      8  C   UNL     1      10.609  14.127  19.131  0.00  0.00    +0.000 A 
ATOM      9  C   UNL     1      11.239  13.369  20.127  0.00  0.00    +0.000 A 
ATOM     10  C   UNL     1      10.985  11.999  20.270  0.00  0.00    +0.000 A 
ATOM     11  C   UNL     1      10.069  11.463  19.376  0.00  0.00    +0.000 A 
ATOM     12  O   UNL     1       9.630  10.177  19.323  0.00  0.00    +0.000 OA
ENDBRANCH   3   4
ENDBRANCH   1   2
BRANCH   1  13
ATOM     13  C   UNL     1       7.362   5.856  19.076  0.00  0.00    +0.000 C 
BRANCH  13  14
ATOM     14  C   UNL     1       6.089   5.043  18.840  0.00  0.00    +0.000 C 
BRANCH  14  15
ATOM     15  O   UNL     1       6.436   3.813  18.183  0.00  0.00    +0.000 OA
ATOM     16  H   UNL     1       7.366   3.633  18.406  0.00  0.00    +0.000 HD
ENDBRANCH  14  15
BRANCH  14  17
ATOM     17  C   UNL     1       5.068   5.827  17.982  0.00  0.00    +0.000 C 
BRANCH  17  18
ATOM     18  N   UNL     1       3.654   5.561  18.326  0.00  0.00    +0.000 NA
ATOM     19  C   UNL     1       3.096   4.422  17.588  0.00  0.00    +0.000 C 
ATOM     20  C   UNL     1       1.605   4.259  17.878  0.00  0.00    +0.000 C 
ATOM     21  C   UNL     1       1.347   4.101  19.369  0.00  0.00    +0.000 C 
ATOM     22  C   UNL     1       2.008   5.235  20.146  0.00  0.00    +0.000 C 
ATOM     23  C   UNL     1       3.486   5.383  19.776  0.00  0.00    +0.000 C 
ENDBRANCH  17  18
ENDBRANCH  14  17
ENDBRANCH  13  14
ENDBRANCH   1  13
TORSDOF 7
ENDMDL
