MODEL 1
REMARK VINA RESULT:      -8.6      0.000      0.000
REMARK  Name = 
REMARK  9 active torsions:
REMARK  status: ('A' for Active; 'I' for Inactive)
REMARK    1  A    between atoms: C_1  and  C_2
REMARK    2  A    between atoms: C_2  and  O_3
REMARK    3  A    between atoms: O_3  and  C_4
REMARK    4  A    between atoms: C_4  and  C_6
REMARK    5  A    between atoms: C_9  and  C_10
REMARK    6  A    between atoms: N_12  and  C_13
REMARK    7  A    between atoms: C_16  and  C_17
REMARK    8  A    between atoms: C_18  and  N_19
REMARK    9  A    between atoms: C_24  and  C_25
REMARK                            x       y       z     vdW  Elec       q    Type
REMARK                         _______ _______ _______ _____ _____    ______ ____
ROOT
ATOM      1  C   UNL     1       1.880   8.366  19.565  0.00  0.00    +0.000 A 
ATOM      2  C   UNL     1       1.532   7.933  20.842  0.00  0.00    +0.000 A 
ATOM      3  C   UNL     1       0.610   8.637  21.613  0.00  0.00    +0.000 A 
ATOM      4  C   UNL     1       0.007   9.802  21.127  0.00  0.00    +0.000 A 
ATOM      5  C   UNL     1      -0.940  10.548  22.027  0.00  0.00    +0.000 C 
ATOM      6  C   UNL     1       0.329  10.261  19.833  0.00  0.00    +0.000 A 
ATOM      7  C   UNL     1       1.283   9.536  19.081  0.00  0.00    +0.000 A 
ENDROOT
BRANCH   6   8
ATOM      8  N   UNL     1      -0.259  11.440  19.342  0.00  0.00    +0.000 N 
ATOM      9  C   UNL     1       0.265  12.716  19.182  0.00  0.00    +0.000 A 
ATOM     10  N   UNL     1      -0.535  13.644  18.644  0.00  0.00    +0.000 NA
ATOM     11  C   UNL     1      -0.044  14.894  18.564  0.00  0.00    +0.000 A 
ATOM     12  C   UNL     1       1.200  15.257  19.029  0.00  0.00    +0.000 A 
ATOM     13  C   UNL     1       1.955  14.245  19.577  0.00  0.00    +0.000 A 
ATOM     14  N   UNL     1       1.492  12.986  19.634  0.00  0.00    +0.000 NA
ATOM     15  H   UNL     1      -1.261  11.464  19.231  0.00  0.00    +0.000 HD
BRANCH  13  16
ATOM     16  C   UNL     1       3.295  14.415  20.158  0.00  0.00    +0.000 A 
ATOM     17  C   UNL     1       3.595  14.142  21.497  0.00  0.00    +0.000 A 
ATOM     18  C   UNL     1       4.887  14.346  21.985  0.00  0.00    +0.000 A 
ATOM     19  C   UNL     1       5.855  14.827  21.119  0.00  0.00    +0.000 A 
ATOM     20  N   UNL     1       5.619  15.113  19.825  0.00  0.00    +0.000 NA
ATOM     21  C   UNL     1       4.356  14.899  19.380  0.00  0.00    +0.000 A 
ENDBRANCH  13  16
ENDBRANCH   6   8
BRANCH   1  24
ATOM     22  C   UNL     1       2.846   6.303  18.576  0.00  0.00    +0.000 C 
ATOM     23  O   UNL     1       2.080   5.490  19.084  0.00  0.00    +0.000 OA
ATOM     24  N   UNL     1       2.808   7.678  18.739  0.00  0.00    +0.000 N 
ATOM     25  H   UNL     1       3.389   8.249  18.135  0.00  0.00    +0.000 HD
BRANCH  22  29
ATOM     26  C   UNL     1       5.667   4.939  15.653  0.00  0.00    +0.000 A 
ATOM     27  C   UNL     1       5.640   6.272  16.072  0.00  0.00    +0.000 A 
ATOM     28  C   UNL     1       4.740   6.674  17.057  0.00  0.00    +0.000 A 
ATOM     29  C   UNL     1       3.863   5.751  17.642  0.00  0.00    +0.000 A 
ATOM     30  C   UNL     1       3.894   4.411  17.245  0.00  0.00    +0.000 A 
ATOM     31  C   UNL     1       4.798   4.007  16.247  0.00  0.00    +0.000 A 
BRANCH  26  32
ATOM     32  C   UNL     1       6.567   4.614  14.513  0.00  0.00    +0.000 C 
ATOM     33  O   UNL     1       7.495   5.325  14.167  0.00  0.00    +0.000 OA
BRANCH  32  34
ATOM     34  O   UNL     1       6.119   3.515  13.860  0.00  0.00    +0.000 OA
BRANCH  34  36
ATOM     35  C   UNL     1       4.935   3.257  11.807  0.00  0.00    +0.000 C 
ATOM     36  C   UNL     1       6.285   3.554  12.436  0.00  0.00    +0.000 C 
ENDBRANCH  34  36
ENDBRANCH  32  34
ENDBRANCH  26  32
ENDBRANCH  22  29
ENDBRANCH   1  24
TORSDOF 7
ENDMDL
MODEL 2
REMARK VINA RESULT:      -8.4      2.184      3.101
REMARK  Name = 
REMARK  9 active torsions:
REMARK  status: ('A' for Active; 'I' for Inactive)
REMARK    1  A    between atoms: C_1  and  C_2
REMARK    2  A    between atoms: C_2  and  O_3
REMARK    3  A    between atoms: O_3  and  C_4
REMARK    4  A    between atoms: C_4  and  C_6
REMARK    5  A    between atoms: C_9  and  C_10
REMARK    6  A    between atoms: N_12  and  C_13
REMARK    7  A    between atoms: C_16  and  C_17
REMARK    8  A    between atoms: C_18  and  N_19
REMARK    9  A    between atoms: C_24  and  C_25
REMARK                            x       y       z     vdW  Elec       q    Type
REMARK                         _______ _______ _______ _____ _____    ______ ____
ROOT
ATOM      1  C   UNL     1       0.783   9.613  18.427  0.00  0.00    +0.000 A 
ATOM      2  C   UNL     1      -0.405   9.642  17.702  0.00  0.00    +0.000 A 
ATOM      3  C   UNL     1      -1.456  10.476  18.078  0.00  0.00    +0.000 A 
ATOM      4  C   UNL     1      -1.348  11.309  19.198  0.00  0.00    +0.000 A 
ATOM      5  C   UNL     1      -2.535  12.147  19.585  0.00  0.00    +0.000 C 
ATOM      6  C   UNL     1      -0.153  11.312  19.946  0.00  0.00    +0.000 A 
ATOM      7  C   UNL     1       0.890  10.441  19.551  0.00  0.00    +0.000 A 
ENDROOT
BRANCH   6   8
ATOM      8  N   UNL     1      -0.040  12.133  21.081  0.00  0.00    +0.000 N 
ATOM      9  C   UNL     1       0.376  13.452  21.209  0.00  0.00    +0.000 A 
ATOM     10  N   UNL     1       0.341  13.990  22.434  0.00  0.00    +0.000 NA
ATOM     11  C   UNL     1       0.818  15.242  22.558  0.00  0.00    +0.000 A 
ATOM     12  C   UNL     1       1.355  15.963  21.516  0.00  0.00    +0.000 A 
ATOM     13  C   UNL     1       1.363  15.333  20.292  0.00  0.00    +0.000 A 
ATOM     14  N   UNL     1       0.861  14.095  20.144  0.00  0.00    +0.000 NA
ATOM     15  H   UNL     1      -0.094  11.702  21.991  0.00  0.00    +0.000 HD
BRANCH  13  16
ATOM     16  C   UNL     1       1.913  15.905  19.054  0.00  0.00    +0.000 A 
ATOM     17  C   UNL     1       2.915  15.287  18.298  0.00  0.00    +0.000 A 
ATOM     18  C   UNL     1       3.404  15.899  17.143  0.00  0.00    +0.000 A 
ATOM     19  C   UNL     1       2.882  17.126  16.770  0.00  0.00    +0.000 A 
ATOM     20  N   UNL     1       1.924  17.767  17.464  0.00  0.00    +0.000 NA
ATOM     21  C   UNL     1       1.466  17.144  18.578  0.00  0.00    +0.000 A 
ENDBRANCH  13  16
ENDBRANCH   6   8
BRANCH   1  24
ATOM     22  C   UNL     1       2.347   7.730  18.845  0.00  0.00    +0.000 C 
ATOM     23  O   UNL     1       1.866   7.334  19.902  0.00  0.00    +0.000 OA
ATOM     24  N   UNL     1       1.885   8.787  18.078  0.00  0.00    +0.000 N 
ATOM     25  H   UNL     1       2.265   8.906  17.146  0.00  0.00    +0.000 HD
BRANCH  22  29
ATOM     26  C   UNL     1       5.794   5.503  17.610  0.00  0.00    +0.000 A 
ATOM     27  C   UNL     1       5.024   5.104  18.707  0.00  0.00    +0.000 A 
ATOM     28  C   UNL     1       3.883   5.825  19.055  0.00  0.00    +0.000 A 
ATOM     29  C   UNL     1       3.491   6.946  18.311  0.00  0.00    +0.000 A 
ATOM     30  C   UNL     1       4.243   7.343  17.200  0.00  0.00    +0.000 A 
ATOM     31  C   UNL     1       5.397   6.619  16.853  0.00  0.00    +0.000 A 
BRANCH  26  32
ATOM     32  C   UNL     1       7.061   4.759  17.376  0.00  0.00    +0.000 C 
ATOM     33  O   UNL     1       7.844   4.471  18.265  0.00  0.00    +0.000 OA
BRANCH  32  34
ATOM     34  O   UNL     1       7.265   4.583  16.048  0.00  0.00    +0.000 OA
BRANCH  34  36
ATOM     35  C   UNL     1       5.940   4.206  14.103  0.00  0.00    +0.000 C 
ATOM     36  C   UNL     1       6.397   3.625  15.430  0.00  0.00    +0.000 C 
ENDBRANCH  34  36
ENDBRANCH  32  34
ENDBRANCH  26  32
ENDBRANCH  22  29
ENDBRANCH   1  24
TORSDOF 7
ENDMDL
MODEL 3
REMARK VINA RESULT:      -8.3      4.366      7.361
REMARK  Name = 
REMARK  9 active torsions:
REMARK  status: ('A' for Active; 'I' for Inactive)
REMARK    1  A    between atoms: C_1  and  C_2
REMARK    2  A    between atoms: C_2  and  O_3
REMARK    3  A    between atoms: O_3  and  C_4
REMARK    4  A    between atoms: C_4  and  C_6
REMARK    5  A    between atoms: C_9  and  C_10
REMARK    6  A    between atoms: N_12  and  C_13
REMARK    7  A    between atoms: C_16  and  C_17
REMARK    8  A    between atoms: C_18  and  N_19
REMARK    9  A    between atoms: C_24  and  C_25
REMARK                            x       y       z     vdW  Elec       q    Type
REMARK                         _______ _______ _______ _____ _____    ______ ____
ROOT
ATOM      1  C   UNL     1      -0.244  11.996  21.805  0.00  0.00    +0.000 A 
ATOM      2  C   UNL     1       0.186  13.285  21.501  0.00  0.00    +0.000 A 
ATOM      3  C   UNL     1      -0.539  14.400  21.915  0.00  0.00    +0.000 A 
ATOM      4  C   UNL     1      -1.722  14.257  22.650  0.00  0.00    +0.000 A 
ATOM      5  C   UNL     1      -2.488  15.497  23.023  0.00  0.00    +0.000 C 
ATOM      6  C   UNL     1      -2.177  12.966  22.985  0.00  0.00    +0.000 A 
ATOM      7  C   UNL     1      -1.431  11.851  22.534  0.00  0.00    +0.000 A 
ENDROOT
BRANCH   6   8
ATOM      8  N   UNL     1      -3.372  12.811  23.708  0.00  0.00    +0.000 N 
ATOM      9  C   UNL     1      -4.673  12.590  23.274  0.00  0.00    +0.000 A 
ATOM     10  N   UNL     1      -5.616  12.443  24.213  0.00  0.00    +0.000 NA
ATOM     11  C   UNL     1      -6.883  12.307  23.781  0.00  0.00    +0.000 A 
ATOM     12  C   UNL     1      -7.246  12.343  22.454  0.00  0.00    +0.000 A 
ATOM     13  C   UNL     1      -6.218  12.508  21.554  0.00  0.00    +0.000 A 
ATOM     14  N   UNL     1      -4.944  12.613  21.967  0.00  0.00    +0.000 NA
ATOM     15  H   UNL     1      -3.375  13.055  24.687  0.00  0.00    +0.000 HD
BRANCH  13  16
ATOM     16  C   UNL     1      -6.382  12.602  20.096  0.00  0.00    +0.000 A 
ATOM     17  C   UNL     1      -7.566  13.021  19.479  0.00  0.00    +0.000 A 
ATOM     18  C   UNL     1      -7.656  13.067  18.087  0.00  0.00    +0.000 A 
ATOM     19  C   UNL     1      -6.556  12.686  17.337  0.00  0.00    +0.000 A 
ATOM     20  N   UNL     1      -5.397  12.268  17.879  0.00  0.00    +0.000 NA
ATOM     21  C   UNL     1      -5.339  12.240  19.234  0.00  0.00    +0.000 A 
ENDBRANCH  13  16
ENDBRANCH   6   8
BRANCH   1  24
ATOM     22  C   UNL     1       0.318  10.196  20.189  0.00  0.00    +0.000 C 
ATOM     23  O   UNL     1      -0.406  10.557  19.267  0.00  0.00    +0.000 OA
ATOM     24  N   UNL     1       0.465  10.829  21.412  0.00  0.00    +0.000 N 
ATOM     25  H   UNL     1       1.216  10.527  22.022  0.00  0.00    +0.000 HD
BRANCH  22  29
ATOM     26  C   UNL     1       2.566   6.693  19.170  0.00  0.00    +0.000 A 
ATOM     27  C   UNL     1       2.405   7.744  18.263  0.00  0.00    +0.000 A 
ATOM     28  C   UNL     1       1.705   8.889  18.641  0.00  0.00    +0.000 A 
ATOM     29  C   UNL     1       1.166   9.004  19.929  0.00  0.00    +0.000 A 
ATOM     30  C   UNL     1       1.338   7.967  20.852  0.00  0.00    +0.000 A 
ATOM     31  C   UNL     1       2.038   6.809  20.467  0.00  0.00    +0.000 A 
BRANCH  26  32
ATOM     32  C   UNL     1       3.216   5.458  18.654  0.00  0.00    +0.000 C 
ATOM     33  O   UNL     1       4.313   5.073  19.020  0.00  0.00    +0.000 OA
BRANCH  32  34
ATOM     34  O   UNL     1       2.481   4.927  17.646  0.00  0.00    +0.000 OA
BRANCH  34  36
ATOM     35  C   UNL     1       2.012   2.621  18.028  0.00  0.00    +0.000 C 
ATOM     36  C   UNL     1       1.446   4.029  18.068  0.00  0.00    +0.000 C 
ENDBRANCH  34  36
ENDBRANCH  32  34
ENDBRANCH  26  32
ENDBRANCH  22  29
ENDBRANCH   1  24
TORSDOF 7
ENDMDL
MODEL 4
REMARK VINA RESULT:      -8.2      4.362      7.442
REMARK  Name = 
REMARK  9 active torsions:
REMARK  status: ('A' for Active; 'I' for Inactive)
REMARK    1  A    between atoms: C_1  and  C_2
REMARK    2  A    between atoms: C_2  and  O_3
REMARK    3  A    between atoms: O_3  and  C_4
REMARK    4  A    between atoms: C_4  and  C_6
REMARK    5  A    between atoms: C_9  and  C_10
REMARK    6  A    between atoms: N_12  and  C_13
REMARK    7  A    between atoms: C_16  and  C_17
REMARK    8  A    between atoms: C_18  and  N_19
REMARK    9  A    between atoms: C_24  and  C_25
REMARK                            x       y       z     vdW  Elec       q    Type
REMARK                         _______ _______ _______ _____ _____    ______ ____
ROOT
ATOM      1  C   UNL     1      -0.206  12.194  21.658  0.00  0.00    +0.000 A 
ATOM      2  C   UNL     1       0.321  13.478  21.542  0.00  0.00    +0.000 A 
ATOM      3  C   UNL     1      -0.307  14.569  22.137  0.00  0.00    +0.000 A 
ATOM      4  C   UNL     1      -1.489  14.407  22.870  0.00  0.00    +0.000 A 
ATOM      5  C   UNL     1      -2.149  15.631  23.444  0.00  0.00    +0.000 C 
ATOM      6  C   UNL     1      -2.042  13.118  23.016  0.00  0.00    +0.000 A 
ATOM      7  C   UNL     1      -1.392  12.032  22.384  0.00  0.00    +0.000 A 
ENDROOT
BRANCH   6   8
ATOM      8  N   UNL     1      -3.237  12.948  23.736  0.00  0.00    +0.000 N 
ATOM      9  C   UNL     1      -4.527  12.671  23.300  0.00  0.00    +0.000 A 
ATOM     10  N   UNL     1      -5.472  12.523  24.237  0.00  0.00    +0.000 NA
ATOM     11  C   UNL     1      -6.730  12.332  23.801  0.00  0.00    +0.000 A 
ATOM     12  C   UNL     1      -7.084  12.313  22.471  0.00  0.00    +0.000 A 
ATOM     13  C   UNL     1      -6.054  12.483  21.573  0.00  0.00    +0.000 A 
ATOM     14  N   UNL     1      -4.787  12.643  21.991  0.00  0.00    +0.000 NA
ATOM     15  H   UNL     1      -3.255  13.223  24.706  0.00  0.00    +0.000 HD
BRANCH  13  16
ATOM     16  C   UNL     1      -6.210  12.526  20.112  0.00  0.00    +0.000 A 
ATOM     17  C   UNL     1      -5.182  12.210  19.218  0.00  0.00    +0.000 A 
ATOM     18  C   UNL     1      -5.395  12.293  17.841  0.00  0.00    +0.000 A 
ATOM     19  C   UNL     1      -6.639  12.698  17.386  0.00  0.00    +0.000 A 
ATOM     20  N   UNL     1      -7.659  13.022  18.201  0.00  0.00    +0.000 NA
ATOM     21  C   UNL     1      -7.422  12.926  19.533  0.00  0.00    +0.000 A 
ENDBRANCH  13  16
ENDBRANCH   6   8
BRANCH   1  24
ATOM     22  C   UNL     1       0.244  10.662  19.756  0.00  0.00    +0.000 C 
ATOM     23  O   UNL     1      -0.404  11.253  18.898  0.00  0.00    +0.000 OA
ATOM     24  N   UNL     1       0.402  11.050  21.077  0.00  0.00    +0.000 N 
ATOM     25  H   UNL     1       1.096  10.569  21.638  0.00  0.00    +0.000 HD
BRANCH  22  29
ATOM     26  C   UNL     1       2.612   7.253  18.690  0.00  0.00    +0.000 A 
ATOM     27  C   UNL     1       2.125   7.424  19.989  0.00  0.00    +0.000 A 
ATOM     28  C   UNL     1       1.321   8.521  20.292  0.00  0.00    +0.000 A 
ATOM     29  C   UNL     1       0.984   9.455  19.303  0.00  0.00    +0.000 A 
ATOM     30  C   UNL     1       1.449   9.284  17.996  0.00  0.00    +0.000 A 
ATOM     31  C   UNL     1       2.266   8.181  17.692  0.00  0.00    +0.000 A 
BRANCH  26  32
ATOM     32  C   UNL     1       3.563   6.129  18.474  0.00  0.00    +0.000 C 
ATOM     33  O   UNL     1       4.016   5.834  17.381  0.00  0.00    +0.000 OA
BRANCH  32  34
ATOM     34  O   UNL     1       3.727   5.426  19.620  0.00  0.00    +0.000 OA
BRANCH  34  36
ATOM     35  C   UNL     1       2.043   3.738  19.584  0.00  0.00    +0.000 C 
ATOM     36  C   UNL     1       3.534   4.011  19.489  0.00  0.00    +0.000 C 
ENDBRANCH  34  36
ENDBRANCH  32  34
ENDBRANCH  26  32
ENDBRANCH  22  29
ENDBRANCH   1  24
TORSDOF 7
ENDMDL
MODEL 5
REMARK VINA RESULT:      -8.2      3.050      4.064
REMARK  Name = 
REMARK  9 active torsions:
REMARK  status: ('A' for Active; 'I' for Inactive)
REMARK    1  A    between atoms: C_1  and  C_2
REMARK    2  A    between atoms: C_2  and  O_3
REMARK    3  A    between atoms: O_3  and  C_4
REMARK    4  A    between atoms: C_4  and  C_6
REMARK    5  A    between atoms: C_9  and  C_10
REMARK    6  A    between atoms: N_12  and  C_13
REMARK    7  A    between atoms: C_16  and  C_17
REMARK    8  A    between atoms: C_18  and  N_19
REMARK    9  A    between atoms: C_24  and  C_25
REMARK                            x       y       z     vdW  Elec       q    Type
REMARK                         _______ _______ _______ _____ _____    ______ ____
ROOT
ATOM      1  C   UNL     1       0.029  10.232  19.760  0.00  0.00    +0.000 A 
ATOM      2  C   UNL     1      -1.143  10.450  19.040  0.00  0.00    +0.000 A 
ATOM      3  C   UNL     1      -1.921  11.584  19.261  0.00  0.00    +0.000 A 
ATOM      4  C   UNL     1      -1.548  12.538  20.215  0.00  0.00    +0.000 A 
ATOM      5  C   UNL     1      -2.457  13.714  20.446  0.00  0.00    +0.000 C 
ATOM      6  C   UNL     1      -0.361  12.352  20.952  0.00  0.00    +0.000 A 
ATOM      7  C   UNL     1       0.399  11.182  20.719  0.00  0.00    +0.000 A 
ENDROOT
BRANCH   6   8
ATOM      8  N   UNL     1       0.014  13.297  21.924  0.00  0.00    +0.000 N 
ATOM      9  C   UNL     1       0.600  14.549  21.792  0.00  0.00    +0.000 A 
ATOM     10  N   UNL     1       0.809  15.249  22.914  0.00  0.00    +0.000 NA
ATOM     11  C   UNL     1       1.447  16.426  22.782  0.00  0.00    +0.000 A 
ATOM     12  C   UNL     1       1.909  16.915  21.582  0.00  0.00    +0.000 A 
ATOM     13  C   UNL     1       1.662  16.130  20.478  0.00  0.00    +0.000 A 
ATOM     14  N   UNL     1       0.999  14.966  20.588  0.00  0.00    +0.000 NA
ATOM     15  H   UNL     1       0.041  13.005  22.888  0.00  0.00    +0.000 HD
BRANCH  13  16
ATOM     16  C   UNL     1       2.091  16.444  19.108  0.00  0.00    +0.000 A 
ATOM     17  C   UNL     1       3.017  15.675  18.394  0.00  0.00    +0.000 A 
ATOM     18  C   UNL     1       3.393  16.046  17.102  0.00  0.00    +0.000 A 
ATOM     19  C   UNL     1       2.837  17.188  16.551  0.00  0.00    +0.000 A 
ATOM     20  N   UNL     1       1.949  17.968  17.195  0.00  0.00    +0.000 NA
ATOM     21  C   UNL     1       1.600  17.577  18.447  0.00  0.00    +0.000 A 
ENDBRANCH  13  16
ENDBRANCH   6   8
BRANCH   1  24
ATOM     22  C   UNL     1       1.719   8.927  18.491  0.00  0.00    +0.000 C 
ATOM     23  O   UNL     1       1.913   9.729  17.583  0.00  0.00    +0.000 OA
ATOM     24  N   UNL     1       0.860   9.096  19.565  0.00  0.00    +0.000 N 
ATOM     25  H   UNL     1       0.914   8.436  20.332  0.00  0.00    +0.000 HD
BRANCH  22  29
ATOM     26  C   UNL     1       4.190   5.434  18.729  0.00  0.00    +0.000 A 
ATOM     27  C   UNL     1       3.149   5.652  19.635  0.00  0.00    +0.000 A 
ATOM     28  C   UNL     1       2.335   6.776  19.503  0.00  0.00    +0.000 A 
ATOM     29  C   UNL     1       2.544   7.691  18.463  0.00  0.00    +0.000 A 
ATOM     30  C   UNL     1       3.571   7.474  17.539  0.00  0.00    +0.000 A 
ATOM     31  C   UNL     1       4.396   6.344  17.676  0.00  0.00    +0.000 A 
BRANCH  26  32
ATOM     32  C   UNL     1       5.090   4.283  19.008  0.00  0.00    +0.000 C 
ATOM     33  O   UNL     1       6.303   4.336  18.895  0.00  0.00    +0.000 OA
BRANCH  32  34
ATOM     34  O   UNL     1       4.362   3.168  19.261  0.00  0.00    +0.000 OA
BRANCH  34  36
ATOM     35  C   UNL     1       2.446   2.285  18.150  0.00  0.00    +0.000 C 
ATOM     36  C   UNL     1       3.956   2.439  18.095  0.00  0.00    +0.000 C 
ENDBRANCH  34  36
ENDBRANCH  32  34
ENDBRANCH  26  32
ENDBRANCH  22  29
ENDBRANCH   1  24
TORSDOF 7
ENDMDL
MODEL 6
REMARK VINA RESULT:      -8.2      4.195      9.649
REMARK  Name = 
REMARK  9 active torsions:
REMARK  status: ('A' for Active; 'I' for Inactive)
REMARK    1  A    between atoms: C_1  and  C_2
REMARK    2  A    between atoms: C_2  and  O_3
REMARK    3  A    between atoms: O_3  and  C_4
REMARK    4  A    between atoms: C_4  and  C_6
REMARK    5  A    between atoms: C_9  and  C_10
REMARK    6  A    between atoms: N_12  and  C_13
REMARK    7  A    between atoms: C_16  and  C_17
REMARK    8  A    between atoms: C_18  and  N_19
REMARK    9  A    between atoms: C_24  and  C_25
REMARK                            x       y       z     vdW  Elec       q    Type
REMARK                         _______ _______ _______ _____ _____    ______ ____
ROOT
ATOM      1  C   UNL     1       2.041   5.196  20.392  0.00  0.00    +0.000 A 
ATOM      2  C   UNL     1       2.104   4.084  21.227  0.00  0.00    +0.000 A 
ATOM      3  C   UNL     1       2.584   2.862  20.761  0.00  0.00    +0.000 A 
ATOM      4  C   UNL     1       3.018   2.717  19.438  0.00  0.00    +0.000 A 
ATOM      5  C   UNL     1       3.476   1.360  18.979  0.00  0.00    +0.000 C 
ATOM      6  C   UNL     1       2.978   3.828  18.571  0.00  0.00    +0.000 A 
ATOM      7  C   UNL     1       2.468   5.051  19.067  0.00  0.00    +0.000 A 
ENDROOT
BRANCH   6   8
ATOM      8  N   UNL     1       3.396   3.689  17.236  0.00  0.00    +0.000 N 
ATOM      9  C   UNL     1       4.509   4.195  16.576  0.00  0.00    +0.000 A 
ATOM     10  N   UNL     1       4.666   3.857  15.291  0.00  0.00    +0.000 NA
ATOM     11  C   UNL     1       5.705   4.414  14.642  0.00  0.00    +0.000 A 
ATOM     12  C   UNL     1       6.570   5.317  15.217  0.00  0.00    +0.000 A 
ATOM     13  C   UNL     1       6.332   5.619  16.538  0.00  0.00    +0.000 A 
ATOM     14  N   UNL     1       5.319   5.047  17.210  0.00  0.00    +0.000 NA
ATOM     15  H   UNL     1       2.742   3.315  16.566  0.00  0.00    +0.000 HD
BRANCH  13  16
ATOM     16  C   UNL     1       7.111   6.576  17.337  0.00  0.00    +0.000 A 
ATOM     17  C   UNL     1       7.288   7.917  16.977  0.00  0.00    +0.000 A 
ATOM     18  C   UNL     1       8.059   8.764  17.774  0.00  0.00    +0.000 A 
ATOM     19  C   UNL     1       8.645   8.248  18.918  0.00  0.00    +0.000 A 
ATOM     20  N   UNL     1       8.514   6.967  19.306  0.00  0.00    +0.000 NA
ATOM     21  C   UNL     1       7.754   6.170  18.513  0.00  0.00    +0.000 A 
ENDBRANCH  13  16
ENDBRANCH   6   8
BRANCH   1  24
ATOM     22  C   UNL     1       1.769   7.652  20.140  0.00  0.00    +0.000 C 
ATOM     23  O   UNL     1       2.345   7.782  19.065  0.00  0.00    +0.000 OA
ATOM     24  N   UNL     1       1.568   6.464  20.823  0.00  0.00    +0.000 N 
ATOM     25  H   UNL     1       0.933   6.467  21.614  0.00  0.00    +0.000 HD
BRANCH  22  29
ATOM     26  C   UNL     1      -0.200  11.008  21.935  0.00  0.00    +0.000 A 
ATOM     27  C   UNL     1       0.231   9.921  22.701  0.00  0.00    +0.000 A 
ATOM     28  C   UNL     1       0.908   8.866  22.093  0.00  0.00    +0.000 A 
ATOM     29  C   UNL     1       1.171   8.884  20.717  0.00  0.00    +0.000 A 
ATOM     30  C   UNL     1       0.763   9.975  19.943  0.00  0.00    +0.000 A 
ATOM     31  C   UNL     1       0.074  11.037  20.556  0.00  0.00    +0.000 A 
BRANCH  26  32
ATOM     32  C   UNL     1      -1.022  12.034  22.632  0.00  0.00    +0.000 C 
ATOM     33  O   UNL     1      -0.548  12.907  23.339  0.00  0.00    +0.000 OA
BRANCH  32  34
ATOM     34  O   UNL     1      -2.341  11.767  22.473  0.00  0.00    +0.000 OA
BRANCH  34  36
ATOM     35  C   UNL     1      -3.884  12.370  24.186  0.00  0.00    +0.000 C 
ATOM     36  C   UNL     1      -3.221  12.816  22.896  0.00  0.00    +0.000 C 
ENDBRANCH  34  36
ENDBRANCH  32  34
ENDBRANCH  26  32
ENDBRANCH  22  29
ENDBRANCH   1  24
TORSDOF 7
ENDMDL
MODEL 7
REMARK VINA RESULT:      -8.1      4.351      7.338
REMARK  Name = 
REMARK  9 active torsions:
REMARK  status: ('A' for Active; 'I' for Inactive)
REMARK    1  A    between atoms: C_1  and  C_2
REMARK    2  A    between atoms: C_2  and  O_3
REMARK    3  A    between atoms: O_3  and  C_4
REMARK    4  A    between atoms: C_4  and  C_6
REMARK    5  A    between atoms: C_9  and  C_10
REMARK    6  A    between atoms: N_12  and  C_13
REMARK    7  A    between atoms: C_16  and  C_17
REMARK    8  A    between atoms: C_18  and  N_19
REMARK    9  A    between atoms: C_24  and  C_25
REMARK                            x       y       z     vdW  Elec       q    Type
REMARK                         _______ _______ _______ _____ _____    ______ ____
ROOT
ATOM      1  C   UNL     1      -0.492  12.294  21.640  0.00  0.00    +0.000 A 
ATOM      2  C   UNL     1       0.156  13.519  21.773  0.00  0.00    +0.000 A 
ATOM      3  C   UNL     1      -0.384  14.537  22.555  0.00  0.00    +0.000 A 
ATOM      4  C   UNL     1      -1.597  14.358  23.231  0.00  0.00    +0.000 A 
ATOM      5  C   UNL     1      -2.156  15.512  24.017  0.00  0.00    +0.000 C 
ATOM      6  C   UNL     1      -2.272  13.125  23.126  0.00  0.00    +0.000 A 
ATOM      7  C   UNL     1      -1.709  12.117  22.309  0.00  0.00    +0.000 A 
ENDROOT
BRANCH   6   8
ATOM      8  N   UNL     1      -3.499  12.941  23.788  0.00  0.00    +0.000 N 
ATOM      9  C   UNL     1      -4.764  12.655  23.290  0.00  0.00    +0.000 A 
ATOM     10  N   UNL     1      -5.751  12.495  24.179  0.00  0.00    +0.000 NA
ATOM     11  C   UNL     1      -6.986  12.296  23.683  0.00  0.00    +0.000 A 
ATOM     12  C   UNL     1      -7.275  12.281  22.338  0.00  0.00    +0.000 A 
ATOM     13  C   UNL     1      -6.206  12.464  21.491  0.00  0.00    +0.000 A 
ATOM     14  N   UNL     1      -4.962  12.632  21.969  0.00  0.00    +0.000 NA
ATOM     15  H   UNL     1      -3.565  13.211  24.757  0.00  0.00    +0.000 HD
BRANCH  13  16
ATOM     16  C   UNL     1      -6.292  12.513  20.024  0.00  0.00    +0.000 A 
ATOM     17  C   UNL     1      -7.431  12.938  19.332  0.00  0.00    +0.000 A 
ATOM     18  C   UNL     1      -7.449  12.939  17.936  0.00  0.00    +0.000 A 
ATOM     19  C   UNL     1      -6.321  12.506  17.259  0.00  0.00    +0.000 A 
ATOM     20  N   UNL     1      -5.203  12.080  17.874  0.00  0.00    +0.000 NA
ATOM     21  C   UNL     1      -5.216  12.096  19.230  0.00  0.00    +0.000 A 
ENDBRANCH  13  16
ENDBRANCH   6   8
BRANCH   1  24
ATOM     22  C   UNL     1       0.755  10.164  21.369  0.00  0.00    +0.000 C 
ATOM     23  O   UNL     1       1.035   9.974  22.549  0.00  0.00    +0.000 OA
ATOM     24  N   UNL     1       0.023  11.224  20.861  0.00  0.00    +0.000 N 
ATOM     25  H   UNL     1      -0.282  11.178  19.895  0.00  0.00    +0.000 HD
BRANCH  22  29
ATOM     26  C   UNL     1       2.278   7.082  18.811  0.00  0.00    +0.000 A 
ATOM     27  C   UNL     1       2.044   6.850  20.169  0.00  0.00    +0.000 A 
ATOM     28  C   UNL     1       1.506   7.861  20.965  0.00  0.00    +0.000 A 
ATOM     29  C   UNL     1       1.187   9.110  20.415  0.00  0.00    +0.000 A 
ATOM     30  C   UNL     1       1.400   9.347  19.053  0.00  0.00    +0.000 A 
ATOM     31  C   UNL     1       1.949   8.329  18.253  0.00  0.00    +0.000 A 
BRANCH  26  32
ATOM     32  C   UNL     1       2.967   6.000  18.057  0.00  0.00    +0.000 C 
ATOM     33  O   UNL     1       2.413   4.976  17.696  0.00  0.00    +0.000 OA
BRANCH  32  34
ATOM     34  O   UNL     1       4.293   6.263  17.965  0.00  0.00    +0.000 OA
BRANCH  34  36
ATOM     35  C   UNL     1       5.376   5.509  15.979  0.00  0.00    +0.000 C 
ATOM     36  C   UNL     1       4.730   6.697  16.670  0.00  0.00    +0.000 C 
ENDBRANCH  34  36
ENDBRANCH  32  34
ENDBRANCH  26  32
ENDBRANCH  22  29
ENDBRANCH   1  24
TORSDOF 7
ENDMDL
MODEL 8
REMARK VINA RESULT:      -8.1      0.911      1.404
REMARK  Name = 
REMARK  9 active torsions:
REMARK  status: ('A' for Active; 'I' for Inactive)
REMARK    1  A    between atoms: C_1  and  C_2
REMARK    2  A    between atoms: C_2  and  O_3
REMARK    3  A    between atoms: O_3  and  C_4
REMARK    4  A    between atoms: C_4  and  C_6
REMARK    5  A    between atoms: C_9  and  C_10
REMARK    6  A    between atoms: N_12  and  C_13
REMARK    7  A    between atoms: C_16  and  C_17
REMARK    8  A    between atoms: C_18  and  N_19
REMARK    9  A    between atoms: C_24  and  C_25
REMARK                            x       y       z     vdW  Elec       q    Type
REMARK                         _______ _______ _______ _____ _____    ______ ____
ROOT
ATOM      1  C   UNL     1       1.451   8.700  20.010  0.00  0.00    +0.000 A 
ATOM      2  C   UNL     1       1.280   8.169  21.285  0.00  0.00    +0.000 A 
ATOM      3  C   UNL     1       0.466   8.801  22.223  0.00  0.00    +0.000 A 
ATOM      4  C   UNL     1      -0.202   9.990  21.910  0.00  0.00    +0.000 A 
ATOM      5  C   UNL     1      -1.024  10.654  22.981  0.00  0.00    +0.000 C 
ATOM      6  C   UNL     1      -0.059  10.547  20.623  0.00  0.00    +0.000 A 
ATOM      7  C   UNL     1       0.789   9.893  19.698  0.00  0.00    +0.000 A 
ENDROOT
BRANCH   6   8
ATOM      8  N   UNL     1      -0.713  11.750  20.304  0.00  0.00    +0.000 N 
ATOM      9  C   UNL     1      -0.207  13.020  20.062  0.00  0.00    +0.000 A 
ATOM     10  N   UNL     1      -1.085  13.978  19.739  0.00  0.00    +0.000 NA
ATOM     11  C   UNL     1      -0.594  15.221  19.582  0.00  0.00    +0.000 A 
ATOM     12  C   UNL     1       0.730  15.547  19.765  0.00  0.00    +0.000 A 
ATOM     13  C   UNL     1       1.565  14.507  20.107  0.00  0.00    +0.000 A 
ATOM     14  N   UNL     1       1.096  13.255  20.235  0.00  0.00    +0.000 NA
ATOM     15  H   UNL     1      -1.713  11.795  20.420  0.00  0.00    +0.000 HD
BRANCH  13  16
ATOM     16  C   UNL     1       3.004  14.635  20.377  0.00  0.00    +0.000 A 
ATOM     17  C   UNL     1       3.933  15.065  19.424  0.00  0.00    +0.000 A 
ATOM     18  C   UNL     1       5.289  15.144  19.746  0.00  0.00    +0.000 A 
ATOM     19  C   UNL     1       5.689  14.783  21.021  0.00  0.00    +0.000 A 
ATOM     20  N   UNL     1       4.840  14.355  21.974  0.00  0.00    +0.000 NA
ATOM     21  C   UNL     1       3.529  14.296  21.631  0.00  0.00    +0.000 A 
ENDBRANCH  13  16
ENDBRANCH   6   8
BRANCH   1  24
ATOM     22  C   UNL     1       2.674   6.765  19.044  0.00  0.00    +0.000 C 
ATOM     23  O   UNL     1       2.378   5.930  19.893  0.00  0.00    +0.000 OA
ATOM     24  N   UNL     1       2.263   8.088  19.017  0.00  0.00    +0.000 N 
ATOM     25  H   UNL     1       2.437   8.627  18.177  0.00  0.00    +0.000 HD
BRANCH  22  29
ATOM     26  C   UNL     1       5.202   5.166  15.976  0.00  0.00    +0.000 A 
ATOM     27  C   UNL     1       4.411   4.334  16.775  0.00  0.00    +0.000 A 
ATOM     28  C   UNL     1       3.566   4.889  17.734  0.00  0.00    +0.000 A 
ATOM     29  C   UNL     1       3.492   6.278  17.903  0.00  0.00    +0.000 A 
ATOM     30  C   UNL     1       4.264   7.121  17.097  0.00  0.00    +0.000 A 
ATOM     31  C   UNL     1       5.122   6.560  16.134  0.00  0.00    +0.000 A 
BRANCH  26  32
ATOM     32  C   UNL     1       6.167   4.496  15.063  0.00  0.00    +0.000 C 
ATOM     33  O   UNL     1       7.356   4.386  15.307  0.00  0.00    +0.000 OA
BRANCH  32  34
ATOM     34  O   UNL     1       5.559   4.165  13.898  0.00  0.00    +0.000 OA
BRANCH  34  36
ATOM     35  C   UNL     1       5.611   2.812  11.936  0.00  0.00    +0.000 C 
ATOM     36  C   UNL     1       6.439   3.660  12.885  0.00  0.00    +0.000 C 
ENDBRANCH  34  36
ENDBRANCH  32  34
ENDBRANCH  26  32
ENDBRANCH  22  29
ENDBRANCH   1  24
TORSDOF 7
ENDMDL
MODEL 9
REMARK VINA RESULT:      -8.1      4.206      7.280
REMARK  Name = 
REMARK  9 active torsions:
REMARK  status: ('A' for Active; 'I' for Inactive)
REMARK    1  A    between atoms: C_1  and  C_2
REMARK    2  A    between atoms: C_2  and  O_3
REMARK    3  A    between atoms: O_3  and  C_4
REMARK    4  A    between atoms: C_4  and  C_6
REMARK    5  A    between atoms: C_9  and  C_10
REMARK    6  A    between atoms: N_12  and  C_13
REMARK    7  A    between atoms: C_16  and  C_17
REMARK    8  A    between atoms: C_18  and  N_19
REMARK    9  A    between atoms: C_24  and  C_25
REMARK                            x       y       z     vdW  Elec       q    Type
REMARK                         _______ _______ _______ _____ _____    ______ ____
ROOT
ATOM      1  C   UNL     1       0.069  11.473  21.389  0.00  0.00    +0.000 A 
ATOM      2  C   UNL     1       0.512  12.671  20.833  0.00  0.00    +0.000 A 
ATOM      3  C   UNL     1      -0.109  13.879  21.144  0.00  0.00    +0.000 A 
ATOM      4  C   UNL     1      -1.196  13.924  22.025  0.00  0.00    +0.000 A 
ATOM      5  C   UNL     1      -1.857  15.250  22.280  0.00  0.00    +0.000 C 
ATOM      6  C   UNL     1      -1.660  12.729  22.613  0.00  0.00    +0.000 A 
ATOM      7  C   UNL     1      -1.023  11.516  22.264  0.00  0.00    +0.000 A 
ENDROOT
BRANCH   6   8
ATOM      8  N   UNL     1      -2.762  12.762  23.486  0.00  0.00    +0.000 N 
ATOM      9  C   UNL     1      -4.121  12.624  23.236  0.00  0.00    +0.000 A 
ATOM     10  N   UNL     1      -4.945  12.661  24.290  0.00  0.00    +0.000 NA
ATOM     11  C   UNL     1      -6.264  12.604  24.029  0.00  0.00    +0.000 A 
ATOM     12  C   UNL     1      -6.789  12.543  22.758  0.00  0.00    +0.000 A 
ATOM     13  C   UNL     1      -5.874  12.519  21.730  0.00  0.00    +0.000 A 
ATOM     14  N   UNL     1      -4.553  12.543  21.975  0.00  0.00    +0.000 NA
ATOM     15  H   UNL     1      -2.619  13.101  24.425  0.00  0.00    +0.000 HD
BRANCH  13  16
ATOM     16  C   UNL     1      -6.215  12.484  20.301  0.00  0.00    +0.000 A 
ATOM     17  C   UNL     1      -6.516  11.306  19.608  0.00  0.00    +0.000 A 
ATOM     18  C   UNL     1      -6.811  11.346  18.244  0.00  0.00    +0.000 A 
ATOM     19  C   UNL     1      -6.792  12.571  17.597  0.00  0.00    +0.000 A 
ATOM     20  N   UNL     1      -6.501  13.732  18.212  0.00  0.00    +0.000 NA
ATOM     21  C   UNL     1      -6.225  13.660  19.539  0.00  0.00    +0.000 A 
ENDBRANCH  13  16
ENDBRANCH   6   8
BRANCH   1  24
ATOM     22  C   UNL     1       0.832   9.688  19.839  0.00  0.00    +0.000 C 
ATOM     23  O   UNL     1       0.511  10.224  18.784  0.00  0.00    +0.000 OA
ATOM     24  N   UNL     1       0.674  10.219  21.110  0.00  0.00    +0.000 N 
ATOM     25  H   UNL     1       1.132   9.752  21.885  0.00  0.00    +0.000 HD
BRANCH  22  29
ATOM     26  C   UNL     1       2.634   5.848  19.231  0.00  0.00    +0.000 A 
ATOM     27  C   UNL     1       2.693   6.843  18.251  0.00  0.00    +0.000 A 
ATOM     28  C   UNL     1       2.135   8.097  18.498  0.00  0.00    +0.000 A 
ATOM     29  C   UNL     1       1.521   8.376  19.726  0.00  0.00    +0.000 A 
ATOM     30  C   UNL     1       1.472   7.395  20.721  0.00  0.00    +0.000 A 
ATOM     31  C   UNL     1       2.029   6.128  20.469  0.00  0.00    +0.000 A 
BRANCH  26  32
ATOM     32  C   UNL     1       3.139   4.502  18.848  0.00  0.00    +0.000 C 
ATOM     33  O   UNL     1       3.321   4.157  17.693  0.00  0.00    +0.000 OA
BRANCH  32  34
ATOM     34  O   UNL     1       3.226   3.705  19.941  0.00  0.00    +0.000 OA
BRANCH  34  36
ATOM     35  C   UNL     1       1.594   2.603  21.283  0.00  0.00    +0.000 C 
ATOM     36  C   UNL     1       2.318   2.596  19.948  0.00  0.00    +0.000 C 
ENDBRANCH  34  36
ENDBRANCH  32  34
ENDBRANCH  26  32
ENDBRANCH  22  29
ENDBRANCH   1  24
TORSDOF 7
ENDMDL
