MODEL 1
REMARK VINA RESULT:      -8.5      0.000      0.000
REMARK  Name = 
REMARK  6 active torsions:
REMARK  status: ('A' for Active; 'I' for Inactive)
REMARK    1  A    between atoms: C_2  and  C_3
REMARK    2  A    between atoms: N_5  and  C_6
REMARK    3  A    between atoms: C_6  and  C_7
REMARK    4  A    between atoms: C_9  and  C_10
REMARK    5  A    between atoms: C_15  and  C_16
REMARK    6  A    between atoms: C_19  and  C_20
REMARK                            x       y       z     vdW  Elec       q    Type
REMARK                         _______ _______ _______ _____ _____    ______ ____
ROOT
ATOM      1  C   UNL     1       3.296   3.755  18.968  0.00  0.00    +0.000 C 
ATOM      2  O   UNL     1       3.843   2.656  18.868  0.00  0.00    +0.000 OA
ATOM      3  N   UNL     1       4.004   4.937  19.173  0.00  0.00    +0.000 N 
ATOM      4  C   UNL     1       3.349   6.139  19.008  0.00  0.00    +0.000 A 
ATOM      5  N   UNL     1       2.624   6.736  19.920  0.00  0.00    +0.000 NA
ATOM      6  C   UNL     1       2.048   7.871  19.372  0.00  0.00    +0.000 A 
ATOM      7  C   UNL     1       2.286   8.049  18.022  0.00  0.00    +0.000 A 
ATOM      8  S   UNL     1       3.357   6.836  17.449  0.00  0.00    +0.000 S 
ENDROOT
BRANCH   6   9
ATOM      9  C   UNL     1       1.232   8.758  20.193  0.00  0.00    +0.000 A 
ATOM     10  C   UNL     1       0.920   8.447  21.523  0.00  0.00    +0.000 A 
ATOM     11  C   UNL     1       0.117   9.302  22.280  0.00  0.00    +0.000 A 
ATOM     12  C   UNL     1      -0.397  10.482  21.724  0.00  0.00    +0.000 A 
ATOM     13  C   UNL     1      -0.093  10.790  20.392  0.00  0.00    +0.000 A 
ATOM     14  C   UNL     1       0.711   9.933  19.634  0.00  0.00    +0.000 A 
BRANCH  12  15
ATOM     15  C   UNL     1      -1.270  11.412  22.533  0.00  0.00    +0.000 C 
ATOM     16  F   UNL     1      -1.899  10.799  23.573  0.00  0.00    +0.000 F 
ATOM     17  F   UNL     1      -0.568  12.445  23.075  0.00  0.00    +0.000 F 
ATOM     18  F   UNL     1      -2.257  11.980  21.788  0.00  0.00    +0.000 F 
ENDBRANCH  12  15
ENDBRANCH   6   9
BRANCH   1  20
ATOM     19  C   UNL     1       0.994   3.132  19.639  0.00  0.00    +0.000 C 
ATOM     20  C   UNL     1       1.804   3.843  18.844  0.00  0.00    +0.000 C 
ENDBRANCH   1  20
BRANCH   3  21
ATOM     21  C   UNL     1       5.460   4.891  19.253  0.00  0.00    +0.000 C 
BRANCH  21  22
ATOM     22  C   UNL     1       6.089   4.987  17.909  0.00  0.00    +0.000 A 
ATOM     23  C   UNL     1       6.035   4.257  16.743  0.00  0.00    +0.000 A 
ATOM     24  C   UNL     1       6.749   5.039  15.805  0.00  0.00    +0.000 A 
ATOM     25  C   UNL     1       6.903   4.824  14.349  0.00  0.00    +0.000 C 
ATOM     26  N   UNL     1       7.277   6.124  16.382  0.00  0.00    +0.000 NA
ATOM     27  O   UNL     1       6.861   6.090  17.699  0.00  0.00    +0.000 OA
ENDBRANCH  21  22
ENDBRANCH   3  21
TORSDOF 5
ENDMDL
MODEL 2
REMARK VINA RESULT:      -8.5      0.610      1.325
REMARK  Name = 
REMARK  6 active torsions:
REMARK  status: ('A' for Active; 'I' for Inactive)
REMARK    1  A    between atoms: C_2  and  C_3
REMARK    2  A    between atoms: N_5  and  C_6
REMARK    3  A    between atoms: C_6  and  C_7
REMARK    4  A    between atoms: C_9  and  C_10
REMARK    5  A    between atoms: C_15  and  C_16
REMARK    6  A    between atoms: C_19  and  C_20
REMARK                            x       y       z     vdW  Elec       q    Type
REMARK                         _______ _______ _______ _____ _____    ______ ____
ROOT
ATOM      1  C   UNL     1       3.236   4.032  19.016  0.00  0.00    +0.000 C 
ATOM      2  O   UNL     1       3.803   2.942  18.933  0.00  0.00    +0.000 OA
ATOM      3  N   UNL     1       3.917   5.224  19.254  0.00  0.00    +0.000 N 
ATOM      4  C   UNL     1       3.251   6.416  19.067  0.00  0.00    +0.000 A 
ATOM      5  N   UNL     1       2.480   6.998  19.950  0.00  0.00    +0.000 NA
ATOM      6  C   UNL     1       1.910   8.127  19.384  0.00  0.00    +0.000 A 
ATOM      7  C   UNL     1       2.202   8.316  18.045  0.00  0.00    +0.000 A 
ATOM      8  S   UNL     1       3.313   7.121  17.512  0.00  0.00    +0.000 S 
ENDROOT
BRANCH   6   9
ATOM      9  C   UNL     1       1.047   8.998  20.173  0.00  0.00    +0.000 A 
ATOM     10  C   UNL     1       0.630  10.247  19.696  0.00  0.00    +0.000 A 
ATOM     11  C   UNL     1      -0.177  11.072  20.481  0.00  0.00    +0.000 A 
ATOM     12  C   UNL     1      -0.580  10.670  21.762  0.00  0.00    +0.000 A 
ATOM     13  C   UNL     1      -0.157   9.425  22.245  0.00  0.00    +0.000 A 
ATOM     14  C   UNL     1       0.652   8.600  21.458  0.00  0.00    +0.000 A 
BRANCH  12  15
ATOM     15  C   UNL     1      -1.449  11.557  22.622  0.00  0.00    +0.000 C 
ATOM     16  F   UNL     1      -0.773  12.592  23.193  0.00  0.00    +0.000 F 
ATOM     17  F   UNL     1      -2.474  12.119  21.922  0.00  0.00    +0.000 F 
ATOM     18  F   UNL     1      -2.026  10.880  23.653  0.00  0.00    +0.000 F 
ENDBRANCH  12  15
ENDBRANCH   6   9
BRANCH   1  20
ATOM     19  C   UNL     1       0.909   3.580  19.733  0.00  0.00    +0.000 C 
ATOM     20  C   UNL     1       1.749   4.099  18.829  0.00  0.00    +0.000 C 
ENDBRANCH   1  20
BRANCH   3  21
ATOM     21  C   UNL     1       5.369   5.200  19.395  0.00  0.00    +0.000 C 
BRANCH  21  22
ATOM     22  C   UNL     1       6.041   4.868  18.110  0.00  0.00    +0.000 A 
ATOM     23  C   UNL     1       5.701   4.927  16.778  0.00  0.00    +0.000 A 
ATOM     24  C   UNL     1       6.902   4.630  16.095  0.00  0.00    +0.000 A 
ATOM     25  C   UNL     1       7.178   4.682  14.642  0.00  0.00    +0.000 C 
ATOM     26  N   UNL     1       7.883   4.321  16.951  0.00  0.00    +0.000 NA
ATOM     27  O   UNL     1       7.341   4.473  18.213  0.00  0.00    +0.000 OA
ENDBRANCH  21  22
ENDBRANCH   3  21
TORSDOF 5
ENDMDL
MODEL 3
REMARK VINA RESULT:      -8.4      2.308      3.857
REMARK  Name = 
REMARK  6 active torsions:
REMARK  status: ('A' for Active; 'I' for Inactive)
REMARK    1  A    between atoms: C_2  and  C_3
REMARK    2  A    between atoms: N_5  and  C_6
REMARK    3  A    between atoms: C_6  and  C_7
REMARK    4  A    between atoms: C_9  and  C_10
REMARK    5  A    between atoms: C_15  and  C_16
REMARK    6  A    between atoms: C_19  and  C_20
REMARK                            x       y       z     vdW  Elec       q    Type
REMARK                         _______ _______ _______ _____ _____    ______ ____
ROOT
ATOM      1  C   UNL     1       7.248   4.680  17.628  0.00  0.00    +0.000 C 
ATOM      2  O   UNL     1       8.258   4.149  17.163  0.00  0.00    +0.000 OA
ATOM      3  N   UNL     1       5.969   4.431  17.137  0.00  0.00    +0.000 N 
ATOM      4  C   UNL     1       4.883   4.850  17.875  0.00  0.00    +0.000 A 
ATOM      5  N   UNL     1       4.365   6.052  17.842  0.00  0.00    +0.000 NA
ATOM      6  C   UNL     1       3.347   6.135  18.779  0.00  0.00    +0.000 A 
ATOM      7  C   UNL     1       3.185   5.006  19.561  0.00  0.00    +0.000 A 
ATOM      8  S   UNL     1       4.249   3.767  19.033  0.00  0.00    +0.000 S 
ENDROOT
BRANCH   6   9
ATOM      9  C   UNL     1       2.560   7.355  18.912  0.00  0.00    +0.000 A 
ATOM     10  C   UNL     1       1.896   7.674  20.103  0.00  0.00    +0.000 A 
ATOM     11  C   UNL     1       1.129   8.837  20.197  0.00  0.00    +0.000 A 
ATOM     12  C   UNL     1       1.004   9.703  19.102  0.00  0.00    +0.000 A 
ATOM     13  C   UNL     1       1.661   9.382  17.907  0.00  0.00    +0.000 A 
ATOM     14  C   UNL     1       2.428   8.216  17.814  0.00  0.00    +0.000 A 
BRANCH  12  15
ATOM     15  C   UNL     1       0.174  10.961  19.191  0.00  0.00    +0.000 C 
ATOM     16  F   UNL     1       0.916  12.095  19.321  0.00  0.00    +0.000 F 
ATOM     17  F   UNL     1      -0.608  11.149  18.091  0.00  0.00    +0.000 F 
ATOM     18  F   UNL     1      -0.675  10.952  20.256  0.00  0.00    +0.000 F 
ENDBRANCH  12  15
ENDBRANCH   6   9
BRANCH   1  20
ATOM     19  C   UNL     1       7.984   6.808  18.660  0.00  0.00    +0.000 C 
ATOM     20  C   UNL     1       7.384   5.618  18.790  0.00  0.00    +0.000 C 
ENDBRANCH   1  20
BRANCH   3  21
ATOM     21  C   UNL     1       5.799   3.488  16.036  0.00  0.00    +0.000 C 
BRANCH  21  22
ATOM     22  C   UNL     1       6.275   4.056  14.747  0.00  0.00    +0.000 A 
ATOM     23  C   UNL     1       6.976   5.177  14.365  0.00  0.00    +0.000 A 
ATOM     24  C   UNL     1       7.235   4.978  12.989  0.00  0.00    +0.000 A 
ATOM     25  C   UNL     1       8.072   5.790  12.078  0.00  0.00    +0.000 C 
ATOM     26  N   UNL     1       6.653   3.858  12.544  0.00  0.00    +0.000 NA
ATOM     27  O   UNL     1       6.054   3.282  13.648  0.00  0.00    +0.000 OA
ENDBRANCH  21  22
ENDBRANCH   3  21
TORSDOF 5
ENDMDL
MODEL 4
REMARK VINA RESULT:      -8.3      2.255      3.823
REMARK  Name = 
REMARK  6 active torsions:
REMARK  status: ('A' for Active; 'I' for Inactive)
REMARK    1  A    between atoms: C_2  and  C_3
REMARK    2  A    between atoms: N_5  and  C_6
REMARK    3  A    between atoms: C_6  and  C_7
REMARK    4  A    between atoms: C_9  and  C_10
REMARK    5  A    between atoms: C_15  and  C_16
REMARK    6  A    between atoms: C_19  and  C_20
REMARK                            x       y       z     vdW  Elec       q    Type
REMARK                         _______ _______ _______ _____ _____    ______ ____
ROOT
ATOM      1  C   UNL     1       7.190   4.718  17.728  0.00  0.00    +0.000 C 
ATOM      2  O   UNL     1       8.208   4.188  17.281  0.00  0.00    +0.000 OA
ATOM      3  N   UNL     1       5.918   4.458  17.223  0.00  0.00    +0.000 N 
ATOM      4  C   UNL     1       4.820   4.879  17.943  0.00  0.00    +0.000 A 
ATOM      5  N   UNL     1       4.298   6.078  17.893  0.00  0.00    +0.000 NA
ATOM      6  C   UNL     1       3.268   6.165  18.816  0.00  0.00    +0.000 A 
ATOM      7  C   UNL     1       3.101   5.043  19.607  0.00  0.00    +0.000 A 
ATOM      8  S   UNL     1       4.177   3.804  19.104  0.00  0.00    +0.000 S 
ENDROOT
BRANCH   6   9
ATOM      9  C   UNL     1       2.473   7.383  18.928  0.00  0.00    +0.000 A 
ATOM     10  C   UNL     1       2.321   8.262  17.848  0.00  0.00    +0.000 A 
ATOM     11  C   UNL     1       1.574   9.433  17.988  0.00  0.00    +0.000 A 
ATOM     12  C   UNL     1       0.969   9.755  19.211  0.00  0.00    +0.000 A 
ATOM     13  C   UNL     1       1.127   8.882  20.294  0.00  0.00    +0.000 A 
ATOM     14  C   UNL     1       1.876   7.709  20.153  0.00  0.00    +0.000 A 
BRANCH  12  15
ATOM     15  C   UNL     1       0.163  11.021  19.375  0.00  0.00    +0.000 C 
ATOM     16  F   UNL     1      -1.183  10.816  19.358  0.00  0.00    +0.000 F 
ATOM     17  F   UNL     1       0.431  11.661  20.548  0.00  0.00    +0.000 F 
ATOM     18  F   UNL     1       0.410  11.928  18.390  0.00  0.00    +0.000 F 
ENDBRANCH  12  15
ENDBRANCH   6   9
BRANCH   1  20
ATOM     19  C   UNL     1       8.056   6.774  18.803  0.00  0.00    +0.000 C 
ATOM     20  C   UNL     1       7.306   5.667  18.883  0.00  0.00    +0.000 C 
ENDBRANCH   1  20
BRANCH   3  21
ATOM     21  C   UNL     1       5.765   3.504  16.129  0.00  0.00    +0.000 C 
BRANCH  21  22
ATOM     22  C   UNL     1       6.251   4.064  14.839  0.00  0.00    +0.000 A 
ATOM     23  C   UNL     1       6.986   5.164  14.459  0.00  0.00    +0.000 A 
ATOM     24  C   UNL     1       7.229   4.965  13.080  0.00  0.00    +0.000 A 
ATOM     25  C   UNL     1       8.086   5.755  12.168  0.00  0.00    +0.000 C 
ATOM     26  N   UNL     1       6.608   3.867  12.633  0.00  0.00    +0.000 NA
ATOM     27  O   UNL     1       5.998   3.304  13.738  0.00  0.00    +0.000 OA
ENDBRANCH  21  22
ENDBRANCH   3  21
TORSDOF 5
ENDMDL
MODEL 5
REMARK VINA RESULT:      -8.1      2.257      3.791
REMARK  Name = 
REMARK  6 active torsions:
REMARK  status: ('A' for Active; 'I' for Inactive)
REMARK    1  A    between atoms: C_2  and  C_3
REMARK    2  A    between atoms: N_5  and  C_6
REMARK    3  A    between atoms: C_6  and  C_7
REMARK    4  A    between atoms: C_9  and  C_10
REMARK    5  A    between atoms: C_15  and  C_16
REMARK    6  A    between atoms: C_19  and  C_20
REMARK                            x       y       z     vdW  Elec       q    Type
REMARK                         _______ _______ _______ _____ _____    ______ ____
ROOT
ATOM      1  C   UNL     1       7.222   4.705  17.765  0.00  0.00    +0.000 C 
ATOM      2  O   UNL     1       8.245   4.164  17.345  0.00  0.00    +0.000 OA
ATOM      3  N   UNL     1       5.964   4.477  17.212  0.00  0.00    +0.000 N 
ATOM      4  C   UNL     1       4.849   4.907  17.901  0.00  0.00    +0.000 A 
ATOM      5  N   UNL     1       4.350   6.116  17.852  0.00  0.00    +0.000 NA
ATOM      6  C   UNL     1       3.290   6.208  18.739  0.00  0.00    +0.000 A 
ATOM      7  C   UNL     1       3.076   5.077  19.506  0.00  0.00    +0.000 A 
ATOM      8  S   UNL     1       4.147   3.826  19.021  0.00  0.00    +0.000 S 
ENDROOT
BRANCH   6   9
ATOM      9  C   UNL     1       2.514   7.438  18.843  0.00  0.00    +0.000 A 
ATOM     10  C   UNL     1       2.403   8.328  17.768  0.00  0.00    +0.000 A 
ATOM     11  C   UNL     1       1.673   9.511  17.901  0.00  0.00    +0.000 A 
ATOM     12  C   UNL     1       1.043   9.832  19.112  0.00  0.00    +0.000 A 
ATOM     13  C   UNL     1       1.160   8.947  20.190  0.00  0.00    +0.000 A 
ATOM     14  C   UNL     1       1.892   7.763  20.056  0.00  0.00    +0.000 A 
BRANCH  12  15
ATOM     15  C   UNL     1       0.255  11.111  19.267  0.00  0.00    +0.000 C 
ATOM     16  F   UNL     1       1.027  12.194  19.560  0.00  0.00    +0.000 F 
ATOM     17  F   UNL     1      -0.436  11.437  18.140  0.00  0.00    +0.000 F 
ATOM     18  F   UNL     1      -0.668  11.036  20.265  0.00  0.00    +0.000 F 
ENDBRANCH  12  15
ENDBRANCH   6   9
BRANCH   1  20
ATOM     19  C   UNL     1       8.065   6.743  18.893  0.00  0.00    +0.000 C 
ATOM     20  C   UNL     1       7.314   5.635  18.938  0.00  0.00    +0.000 C 
ENDBRANCH   1  20
BRANCH   3  21
ATOM     21  C   UNL     1       5.833   3.543  16.099  0.00  0.00    +0.000 C 
BRANCH  21  22
ATOM     22  C   UNL     1       6.486   4.060  14.867  0.00  0.00    +0.000 A 
ATOM     23  C   UNL     1       6.397   3.793  13.520  0.00  0.00    +0.000 A 
ATOM     24  C   UNL     1       7.178   4.801  12.909  0.00  0.00    +0.000 A 
ATOM     25  C   UNL     1       7.338   5.102  11.469  0.00  0.00    +0.000 C 
ATOM     26  N   UNL     1       7.775   5.573  13.825  0.00  0.00    +0.000 NA
ATOM     27  O   UNL     1       7.339   5.107  15.051  0.00  0.00    +0.000 OA
ENDBRANCH  21  22
ENDBRANCH   3  21
TORSDOF 5
ENDMDL
MODEL 6
REMARK VINA RESULT:      -8.1      2.293      3.705
REMARK  Name = 
REMARK  6 active torsions:
REMARK  status: ('A' for Active; 'I' for Inactive)
REMARK    1  A    between atoms: C_2  and  C_3
REMARK    2  A    between atoms: N_5  and  C_6
REMARK    3  A    between atoms: C_6  and  C_7
REMARK    4  A    between atoms: C_9  and  C_10
REMARK    5  A    between atoms: C_15  and  C_16
REMARK    6  A    between atoms: C_19  and  C_20
REMARK                            x       y       z     vdW  Elec       q    Type
REMARK                         _______ _______ _______ _____ _____    ______ ____
ROOT
ATOM      1  C   UNL     1       7.195   4.675  17.747  0.00  0.00    +0.000 C 
ATOM      2  O   UNL     1       8.210   4.120  17.324  0.00  0.00    +0.000 OA
ATOM      3  N   UNL     1       5.934   4.472  17.191  0.00  0.00    +0.000 N 
ATOM      4  C   UNL     1       4.826   4.916  17.881  0.00  0.00    +0.000 A 
ATOM      5  N   UNL     1       4.348   6.133  17.839  0.00  0.00    +0.000 NA
ATOM      6  C   UNL     1       3.288   6.237  18.726  0.00  0.00    +0.000 A 
ATOM      7  C   UNL     1       3.054   5.104  19.486  0.00  0.00    +0.000 A 
ATOM      8  S   UNL     1       4.105   3.839  18.994  0.00  0.00    +0.000 S 
ENDROOT
BRANCH   6   9
ATOM      9  C   UNL     1       2.533   7.479  18.837  0.00  0.00    +0.000 A 
ATOM     10  C   UNL     1       1.858   7.825  20.015  0.00  0.00    +0.000 A 
ATOM     11  C   UNL     1       1.122   9.009  20.088  0.00  0.00    +0.000 A 
ATOM     12  C   UNL     1       1.039   9.870  18.984  0.00  0.00    +0.000 A 
ATOM     13  C   UNL     1       1.706   9.521  17.803  0.00  0.00    +0.000 A 
ATOM     14  C   UNL     1       2.442   8.335  17.731  0.00  0.00    +0.000 A 
BRANCH  12  15
ATOM     15  C   UNL     1       0.242  11.151  19.050  0.00  0.00    +0.000 C 
ATOM     16  F   UNL     1      -0.872  11.139  18.267  0.00  0.00    +0.000 F 
ATOM     17  F   UNL     1      -0.190  11.431  20.312  0.00  0.00    +0.000 F 
ATOM     18  F   UNL     1       0.962  12.234  18.651  0.00  0.00    +0.000 F 
ENDBRANCH  12  15
ENDBRANCH   6   9
BRANCH   1  20
ATOM     19  C   UNL     1       8.097   6.673  18.900  0.00  0.00    +0.000 C 
ATOM     20  C   UNL     1       7.302   5.596  18.926  0.00  0.00    +0.000 C 
ENDBRANCH   1  20
BRANCH   3  21
ATOM     21  C   UNL     1       5.789   3.547  16.071  0.00  0.00    +0.000 C 
BRANCH  21  22
ATOM     22  C   UNL     1       6.454   4.061  14.844  0.00  0.00    +0.000 A 
ATOM     23  C   UNL     1       6.370   3.797  13.496  0.00  0.00    +0.000 A 
ATOM     24  C   UNL     1       7.163   4.799  12.891  0.00  0.00    +0.000 A 
ATOM     25  C   UNL     1       7.334   5.101  11.452  0.00  0.00    +0.000 C 
ATOM     26  N   UNL     1       7.761   5.564  13.811  0.00  0.00    +0.000 NA
ATOM     27  O   UNL     1       7.313   5.101  15.034  0.00  0.00    +0.000 OA
ENDBRANCH  21  22
ENDBRANCH   3  21
TORSDOF 5
ENDMDL
MODEL 7
REMARK VINA RESULT:      -7.6      5.736      8.464
REMARK  Name = 
REMARK  6 active torsions:
REMARK  status: ('A' for Active; 'I' for Inactive)
REMARK    1  A    between atoms: C_2  and  C_3
REMARK    2  A    between atoms: N_5  and  C_6
REMARK    3  A    between atoms: C_6  and  C_7
REMARK    4  A    between atoms: C_9  and  C_10
REMARK    5  A    between atoms: C_15  and  C_16
REMARK    6  A    between atoms: C_19  and  C_20
REMARK                            x       y       z     vdW  Elec       q    Type
REMARK                         _______ _______ _______ _____ _____    ______ ____
ROOT
ATOM      1  C   UNL     1      -1.099  11.365  19.095  0.00  0.00    +0.000 C 
ATOM      2  O   UNL     1      -1.776  12.394  19.068  0.00  0.00    +0.000 OA
ATOM      3  N   UNL     1       0.151  11.298  19.707  0.00  0.00    +0.000 N 
ATOM      4  C   UNL     1       0.716  10.059  19.925  0.00  0.00    +0.000 A 
ATOM      5  N   UNL     1       1.412   9.382  19.048  0.00  0.00    +0.000 NA
ATOM      6  C   UNL     1       1.741   8.146  19.583  0.00  0.00    +0.000 A 
ATOM      7  C   UNL     1       1.200   7.892  20.831  0.00  0.00    +0.000 A 
ATOM      8  S   UNL     1       0.360   9.276  21.400  0.00  0.00    +0.000 S 
ENDROOT
BRANCH   6   9
ATOM      9  C   UNL     1       2.569   7.210  18.833  0.00  0.00    +0.000 A 
ATOM     10  C   UNL     1       2.626   5.851  19.167  0.00  0.00    +0.000 A 
ATOM     11  C   UNL     1       3.445   4.978  18.447  0.00  0.00    +0.000 A 
ATOM     12  C   UNL     1       4.229   5.445  17.383  0.00  0.00    +0.000 A 
ATOM     13  C   UNL     1       4.180   6.806  17.053  0.00  0.00    +0.000 A 
ATOM     14  C   UNL     1       3.360   7.679  17.776  0.00  0.00    +0.000 A 
BRANCH  12  15
ATOM     15  C   UNL     1       5.121   4.512  16.601  0.00  0.00    +0.000 C 
ATOM     16  F   UNL     1       4.755   3.204  16.694  0.00  0.00    +0.000 F 
ATOM     17  F   UNL     1       5.140   4.803  15.270  0.00  0.00    +0.000 F 
ATOM     18  F   UNL     1       6.418   4.562  17.014  0.00  0.00    +0.000 F 
ENDBRANCH  12  15
ENDBRANCH   6   9
BRANCH   1  20
ATOM     19  C   UNL     1      -1.940  10.064  17.163  0.00  0.00    +0.000 C 
ATOM     20  C   UNL     1      -1.641  10.116  18.467  0.00  0.00    +0.000 C 
ENDBRANCH   1  20
BRANCH   3  21
ATOM     21  C   UNL     1       0.687  12.484  20.367  0.00  0.00    +0.000 C 
BRANCH  21  22
ATOM     22  C   UNL     1       1.472  13.329  19.427  0.00  0.00    +0.000 A 
ATOM     23  C   UNL     1       1.414  14.634  18.996  0.00  0.00    +0.000 A 
ATOM     24  C   UNL     1       2.596  14.807  18.240  0.00  0.00    +0.000 A 
ATOM     25  C   UNL     1       3.141  16.048  17.645  0.00  0.00    +0.000 C 
ATOM     26  N   UNL     1       3.280  13.662  18.141  0.00  0.00    +0.000 NA
ATOM     27  O   UNL     1       2.574  12.737  18.888  0.00  0.00    +0.000 OA
ENDBRANCH  21  22
ENDBRANCH   3  21
TORSDOF 5
ENDMDL
MODEL 8
REMARK VINA RESULT:      -7.6      5.879      8.533
REMARK  Name = 
REMARK  6 active torsions:
REMARK  status: ('A' for Active; 'I' for Inactive)
REMARK    1  A    between atoms: C_2  and  C_3
REMARK    2  A    between atoms: N_5  and  C_6
REMARK    3  A    between atoms: C_6  and  C_7
REMARK    4  A    between atoms: C_9  and  C_10
REMARK    5  A    between atoms: C_15  and  C_16
REMARK    6  A    between atoms: C_19  and  C_20
REMARK                            x       y       z     vdW  Elec       q    Type
REMARK                         _______ _______ _______ _____ _____    ______ ____
ROOT
ATOM      1  C   UNL     1      -0.659  11.004  18.980  0.00  0.00    +0.000 C 
ATOM      2  O   UNL     1      -1.350  12.018  19.083  0.00  0.00    +0.000 OA
ATOM      3  N   UNL     1       0.569  10.856  19.621  0.00  0.00    +0.000 N 
ATOM      4  C   UNL     1       1.144   9.604  19.669  0.00  0.00    +0.000 A 
ATOM      5  N   UNL     1       1.881   9.074  18.727  0.00  0.00    +0.000 NA
ATOM      6  C   UNL     1       2.209   7.775  19.081  0.00  0.00    +0.000 A 
ATOM      7  C   UNL     1       1.628   7.329  20.254  0.00  0.00    +0.000 A 
ATOM      8  S   UNL     1       0.748   8.603  20.995  0.00  0.00    +0.000 S 
ENDROOT
BRANCH   6   9
ATOM      9  C   UNL     1       3.077   6.971  18.229  0.00  0.00    +0.000 A 
ATOM     10  C   UNL     1       4.024   7.559  17.381  0.00  0.00    +0.000 A 
ATOM     11  C   UNL     1       4.826   6.767  16.557  0.00  0.00    +0.000 A 
ATOM     12  C   UNL     1       4.696   5.371  16.559  0.00  0.00    +0.000 A 
ATOM     13  C   UNL     1       3.744   4.782  17.400  0.00  0.00    +0.000 A 
ATOM     14  C   UNL     1       2.940   5.576  18.223  0.00  0.00    +0.000 A 
BRANCH  12  15
ATOM     15  C   UNL     1       5.556   4.506  15.669  0.00  0.00    +0.000 C 
ATOM     16  F   UNL     1       5.136   4.470  14.374  0.00  0.00    +0.000 F 
ATOM     17  F   UNL     1       6.853   4.923  15.632  0.00  0.00    +0.000 F 
ATOM     18  F   UNL     1       5.592   3.209  16.080  0.00  0.00    +0.000 F 
ENDBRANCH  12  15
ENDBRANCH   6   9
BRANCH   1  20
ATOM     19  C   UNL     1      -1.986  10.057  17.115  0.00  0.00    +0.000 C 
ATOM     20  C   UNL     1      -1.160   9.859  18.150  0.00  0.00    +0.000 C 
ENDBRANCH   1  20
BRANCH   3  21
ATOM     21  C   UNL     1       1.063  11.933  20.472  0.00  0.00    +0.000 C 
BRANCH  21  22
ATOM     22  C   UNL     1       1.985  12.838  19.734  0.00  0.00    +0.000 A 
ATOM     23  C   UNL     1       2.111  13.265  18.432  0.00  0.00    +0.000 A 
ATOM     24  C   UNL     1       3.102  14.273  18.486  0.00  0.00    +0.000 A 
ATOM     25  C   UNL     1       3.554  15.184  17.412  0.00  0.00    +0.000 C 
ATOM     26  N   UNL     1       3.608  14.387  19.719  0.00  0.00    +0.000 NA
ATOM     27  O   UNL     1       2.905  13.489  20.500  0.00  0.00    +0.000 OA
ENDBRANCH  21  22
ENDBRANCH   3  21
TORSDOF 5
ENDMDL
MODEL 9
REMARK VINA RESULT:      -7.6      1.828      2.213
REMARK  Name = 
REMARK  6 active torsions:
REMARK  status: ('A' for Active; 'I' for Inactive)
REMARK    1  A    between atoms: C_2  and  C_3
REMARK    2  A    between atoms: N_5  and  C_6
REMARK    3  A    between atoms: C_6  and  C_7
REMARK    4  A    between atoms: C_9  and  C_10
REMARK    5  A    between atoms: C_15  and  C_16
REMARK    6  A    between atoms: C_19  and  C_20
REMARK                            x       y       z     vdW  Elec       q    Type
REMARK                         _______ _______ _______ _____ _____    ______ ____
ROOT
ATOM      1  C   UNL     1       4.244   2.903  20.139  0.00  0.00    +0.000 C 
ATOM      2  O   UNL     1       4.945   1.909  20.329  0.00  0.00    +0.000 OA
ATOM      3  N   UNL     1       4.524   3.850  19.156  0.00  0.00    +0.000 N 
ATOM      4  C   UNL     1       3.556   4.777  18.834  0.00  0.00    +0.000 A 
ATOM      5  N   UNL     1       3.345   5.901  19.470  0.00  0.00    +0.000 NA
ATOM      6  C   UNL     1       2.238   6.532  18.926  0.00  0.00    +0.000 A 
ATOM      7  C   UNL     1       1.586   5.812  17.941  0.00  0.00    +0.000 A 
ATOM      8  S   UNL     1       2.447   4.367  17.602  0.00  0.00    +0.000 S 
ENDROOT
BRANCH   6   9
ATOM      9  C   UNL     1       1.814   7.839  19.414  0.00  0.00    +0.000 A 
ATOM     10  C   UNL     1       1.480   8.047  20.757  0.00  0.00    +0.000 A 
ATOM     11  C   UNL     1       1.054   9.304  21.195  0.00  0.00    +0.000 A 
ATOM     12  C   UNL     1       0.948  10.376  20.299  0.00  0.00    +0.000 A 
ATOM     13  C   UNL     1       1.274  10.167  18.953  0.00  0.00    +0.000 A 
ATOM     14  C   UNL     1       1.700   8.909  18.516  0.00  0.00    +0.000 A 
BRANCH  12  15
ATOM     15  C   UNL     1       0.484  11.737  20.760  0.00  0.00    +0.000 C 
ATOM     16  F   UNL     1       0.009  11.746  22.036  0.00  0.00    +0.000 F 
ATOM     17  F   UNL     1       1.481  12.666  20.725  0.00  0.00    +0.000 F 
ATOM     18  F   UNL     1      -0.520  12.235  19.988  0.00  0.00    +0.000 F 
ENDBRANCH  12  15
ENDBRANCH   6   9
BRANCH   1  20
ATOM     19  C   UNL     1       1.922   2.355  20.804  0.00  0.00    +0.000 C 
ATOM     20  C   UNL     1       3.017   3.105  20.978  0.00  0.00    +0.000 C 
ENDBRANCH   1  20
BRANCH   3  21
ATOM     21  C   UNL     1       5.685   3.659  18.292  0.00  0.00    +0.000 C 
BRANCH  21  22
ATOM     22  C   UNL     1       6.528   4.883  18.226  0.00  0.00    +0.000 A 
ATOM     23  C   UNL     1       6.618   5.970  17.387  0.00  0.00    +0.000 A 
ATOM     24  C   UNL     1       7.521   6.842  18.038  0.00  0.00    +0.000 A 
ATOM     25  C   UNL     1       7.896   8.227  17.673  0.00  0.00    +0.000 C 
ATOM     26  N   UNL     1       8.016   6.285  19.149  0.00  0.00    +0.000 NA
ATOM     27  O   UNL     1       7.391   5.058  19.265  0.00  0.00    +0.000 OA
ENDBRANCH  21  22
ENDBRANCH   3  21
TORSDOF 5
ENDMDL
