MODEL 1
REMARK VINA RESULT:      -9.1      0.000      0.000
REMARK  Name = 
REMARK  6 active torsions:
REMARK  status: ('A' for Active; 'I' for Inactive)
REMARK    1  A    between atoms: S_2  and  C_4
REMARK    2  A    between atoms: S_2  and  C_15
REMARK    3  A    between atoms: C_5  and  C_6
REMARK    4  A    between atoms: C_15  and  S_16
REMARK    5  A    between atoms: S_16  and  C_19
REMARK    6  A    between atoms: C_20  and  C_21
REMARK                            x       y       z     vdW  Elec       q    Type
REMARK                         _______ _______ _______ _____ _____    ______ ____
ROOT
ATOM      1  C   UNL     1       6.909   5.378  18.472  0.00  0.00    +0.000 C 
ENDROOT
BRANCH   1   3
ATOM      2  O   UNL     1       5.301   3.516  19.371  0.00  0.00    +0.000 OA
ATOM      3  S   UNL     1       5.318   4.638  18.457  0.00  0.00    +0.000 S 
ATOM      4  O   UNL     1       4.910   4.472  17.074  0.00  0.00    +0.000 OA
BRANCH   3   5
ATOM      5  C   UNL     1       4.339   5.874  19.197  0.00  0.00    +0.000 C 
ATOM      6  C   UNL     1       3.177   6.264  18.652  0.00  0.00    +0.000 C 
BRANCH   6   7
ATOM      7  C   UNL     1       2.305   7.288  19.263  0.00  0.00    +0.000 A 
ATOM      8  C   UNL     1       1.834   7.171  20.578  0.00  0.00    +0.000 A 
ATOM      9  C   UNL     1       1.022   8.150  21.165  0.00  0.00    +0.000 A 
ATOM     10  C   UNL     1       0.708   9.273  20.398  0.00  0.00    +0.000 A 
ATOM     11  N   UNL     1      -0.050  10.379  20.714  0.00  0.00    +0.000 N 
ATOM     12  C   UNL     1      -0.080  11.249  19.657  0.00  0.00    +0.000 A 
ATOM     13  C   UNL     1       0.660  10.693  18.636  0.00  0.00    +0.000 A 
ATOM     14  C   UNL     1       1.167   9.444  19.093  0.00  0.00    +0.000 A 
ATOM     15  C   UNL     1       1.976   8.438  18.520  0.00  0.00    +0.000 A 
ATOM     16  H   UNL     1      -0.509  10.524  21.602  0.00  0.00    +0.000 HD
ENDBRANCH   6   7
ENDBRANCH   3   5
ENDBRANCH   1   3
BRANCH   1  17
ATOM     17  S   UNL     1       7.052   6.754  17.390  0.00  0.00    +0.000 S 
ATOM     18  O   UNL     1       7.698   6.240  16.190  0.00  0.00    +0.000 OA
ATOM     19  O   UNL     1       5.762   7.399  17.259  0.00  0.00    +0.000 OA
BRANCH  17  20
ATOM     20  C   UNL     1       8.141   7.840  18.189  0.00  0.00    +0.000 C 
ATOM     21  C   UNL     1       8.166   9.139  17.854  0.00  0.00    +0.000 C 
BRANCH  21  22
ATOM     22  C   UNL     1       9.059  10.121  18.492  0.00  0.00    +0.000 A 
ATOM     23  C   UNL     1       9.130  10.260  19.884  0.00  0.00    +0.000 A 
ATOM     24  C   UNL     1       9.970  11.201  20.489  0.00  0.00    +0.000 A 
ATOM     25  C   UNL     1      10.764  11.991  19.652  0.00  0.00    +0.000 A 
ATOM     26  N   UNL     1      11.656  12.991  19.962  0.00  0.00    +0.000 N 
ATOM     27  C   UNL     1      12.229  13.483  18.820  0.00  0.00    +0.000 A 
ATOM     28  C   UNL     1      11.693  12.799  17.752  0.00  0.00    +0.000 A 
ATOM     29  C   UNL     1      10.755  11.859  18.265  0.00  0.00    +0.000 A 
ATOM     30  C   UNL     1       9.895  10.907  17.678  0.00  0.00    +0.000 A 
ATOM     31  H   UNL     1      11.853  13.312  20.900  0.00  0.00    +0.000 HD
ENDBRANCH  21  22
ENDBRANCH  17  20
ENDBRANCH   1  17
TORSDOF 6
ENDMDL
MODEL 2
REMARK VINA RESULT:      -8.7      1.208      8.225
REMARK  Name = 
REMARK  6 active torsions:
REMARK  status: ('A' for Active; 'I' for Inactive)
REMARK    1  A    between atoms: S_2  and  C_4
REMARK    2  A    between atoms: S_2  and  C_15
REMARK    3  A    between atoms: C_5  and  C_6
REMARK    4  A    between atoms: C_15  and  S_16
REMARK    5  A    between atoms: S_16  and  C_19
REMARK    6  A    between atoms: C_20  and  C_21
REMARK                            x       y       z     vdW  Elec       q    Type
REMARK                         _______ _______ _______ _____ _____    ______ ____
ROOT
ATOM      1  C   UNL     1       5.971   5.498  18.536  0.00  0.00    +0.000 C 
ENDROOT
BRANCH   1   3
ATOM      2  O   UNL     1       5.986   6.851  16.293  0.00  0.00    +0.000 OA
ATOM      3  S   UNL     1       6.888   6.179  17.203  0.00  0.00    +0.000 S 
ATOM      4  O   UNL     1       7.806   5.163  16.721  0.00  0.00    +0.000 OA
BRANCH   3   5
ATOM      5  C   UNL     1       7.793   7.438  17.996  0.00  0.00    +0.000 C 
ATOM      6  C   UNL     1       7.748   8.708  17.566  0.00  0.00    +0.000 C 
BRANCH   6   7
ATOM      7  C   UNL     1       8.478   9.808  18.226  0.00  0.00    +0.000 A 
ATOM      8  C   UNL     1       9.173   9.620  19.428  0.00  0.00    +0.000 A 
ATOM      9  C   UNL     1       9.882  10.658  20.047  0.00  0.00    +0.000 A 
ATOM     10  C   UNL     1       9.894  11.900  19.411  0.00  0.00    +0.000 A 
ATOM     11  N   UNL     1      10.505  13.078  19.777  0.00  0.00    +0.000 N 
ATOM     12  C   UNL     1      10.261  14.048  18.841  0.00  0.00    +0.000 A 
ATOM     13  C   UNL     1       9.471  13.492  17.859  0.00  0.00    +0.000 A 
ATOM     14  C   UNL     1       9.233  12.133  18.205  0.00  0.00    +0.000 A 
ATOM     15  C   UNL     1       8.518  11.072  17.606  0.00  0.00    +0.000 A 
ATOM     16  H   UNL     1      11.057  13.201  20.614  0.00  0.00    +0.000 HD
ENDBRANCH   6   7
ENDBRANCH   3   5
ENDBRANCH   1   3
BRANCH   1  17
ATOM     17  S   UNL     1       4.352   4.991  18.085  0.00  0.00    +0.000 S 
ATOM     18  O   UNL     1       4.416   4.702  16.659  0.00  0.00    +0.000 OA
ATOM     19  O   UNL     1       3.909   3.945  18.983  0.00  0.00    +0.000 OA
BRANCH  17  20
ATOM     20  C   UNL     1       3.361   6.391  18.327  0.00  0.00    +0.000 C 
ATOM     21  C   UNL     1       2.789   6.617  19.520  0.00  0.00    +0.000 C 
BRANCH  21  22
ATOM     22  C   UNL     1       1.941   7.787  19.802  0.00  0.00    +0.000 A 
ATOM     23  C   UNL     1       1.638   8.735  18.816  0.00  0.00    +0.000 A 
ATOM     24  C   UNL     1       0.841   9.852  19.087  0.00  0.00    +0.000 A 
ATOM     25  C   UNL     1       0.330   9.982  20.381  0.00  0.00    +0.000 A 
ATOM     26  N   UNL     1      -0.456  10.970  20.929  0.00  0.00    +0.000 N 
ATOM     27  C   UNL     1      -0.738  10.677  22.236  0.00  0.00    +0.000 A 
ATOM     28  C   UNL     1      -0.118   9.488  22.545  0.00  0.00    +0.000 A 
ATOM     29  C   UNL     1       0.572   9.043  21.382  0.00  0.00    +0.000 A 
ATOM     30  C   UNL     1       1.383   7.927  21.086  0.00  0.00    +0.000 A 
ATOM     31  H   UNL     1      -0.773  11.790  20.431  0.00  0.00    +0.000 HD
ENDBRANCH  21  22
ENDBRANCH  17  20
ENDBRANCH   1  17
TORSDOF 6
ENDMDL
MODEL 3
REMARK VINA RESULT:      -8.7      0.871      8.160
REMARK  Name = 
REMARK  6 active torsions:
REMARK  status: ('A' for Active; 'I' for Inactive)
REMARK    1  A    between atoms: S_2  and  C_4
REMARK    2  A    between atoms: S_2  and  C_15
REMARK    3  A    between atoms: C_5  and  C_6
REMARK    4  A    between atoms: C_15  and  S_16
REMARK    5  A    between atoms: S_16  and  C_19
REMARK    6  A    between atoms: C_20  and  C_21
REMARK                            x       y       z     vdW  Elec       q    Type
REMARK                         _______ _______ _______ _____ _____    ______ ____
ROOT
ATOM      1  C   UNL     1       6.184   5.483  18.701  0.00  0.00    +0.000 C 
ENDROOT
BRANCH   1   3
ATOM      2  O   UNL     1       5.762   7.024  16.626  0.00  0.00    +0.000 OA
ATOM      3  S   UNL     1       6.833   6.326  17.306  0.00  0.00    +0.000 S 
ATOM      4  O   UNL     1       7.695   5.409  16.583  0.00  0.00    +0.000 OA
BRANCH   3   5
ATOM      5  C   UNL     1       7.809   7.560  18.053  0.00  0.00    +0.000 C 
ATOM      6  C   UNL     1       7.769   8.833  17.631  0.00  0.00    +0.000 C 
BRANCH   6   7
ATOM      7  C   UNL     1       8.559   9.913  18.255  0.00  0.00    +0.000 A 
ATOM      8  C   UNL     1       9.225   9.734  19.475  0.00  0.00    +0.000 A 
ATOM      9  C   UNL     1       9.991  10.751  20.060  0.00  0.00    +0.000 A 
ATOM     10  C   UNL     1      10.091  11.961  19.371  0.00  0.00    +0.000 A 
ATOM     11  N   UNL     1      10.771  13.112  19.695  0.00  0.00    +0.000 N 
ATOM     12  C   UNL     1      10.603  14.054  18.715  0.00  0.00    +0.000 A 
ATOM     13  C   UNL     1       9.791  13.506  17.745  0.00  0.00    +0.000 A 
ATOM     14  C   UNL     1       9.462  12.182  18.146  0.00  0.00    +0.000 A 
ATOM     15  C   UNL     1       8.688  11.143  17.582  0.00  0.00    +0.000 A 
ATOM     16  H   UNL     1      11.320  13.237  20.535  0.00  0.00    +0.000 HD
ENDBRANCH   6   7
ENDBRANCH   3   5
ENDBRANCH   1   3
BRANCH   1  17
ATOM     17  S   UNL     1       4.602   4.776  18.420  0.00  0.00    +0.000 S 
ATOM     18  O   UNL     1       4.375   4.885  16.985  0.00  0.00    +0.000 OA
ATOM     19  O   UNL     1       4.546   3.464  19.032  0.00  0.00    +0.000 OA
BRANCH  17  20
ATOM     20  C   UNL     1       3.492   5.822  19.242  0.00  0.00    +0.000 C 
ATOM     21  C   UNL     1       3.015   6.917  18.629  0.00  0.00    +0.000 C 
BRANCH  21  22
ATOM     22  C   UNL     1       2.066   7.849  19.261  0.00  0.00    +0.000 A 
ATOM     23  C   UNL     1       1.694   7.725  20.606  0.00  0.00    +0.000 A 
ATOM     24  C   UNL     1       0.784   8.604  21.203  0.00  0.00    +0.000 A 
ATOM     25  C   UNL     1       0.269   9.636  20.413  0.00  0.00    +0.000 A 
ATOM     26  N   UNL     1      -0.640  10.621  20.724  0.00  0.00    +0.000 N 
ATOM     27  C   UNL     1      -0.840  11.436  19.642  0.00  0.00    +0.000 A 
ATOM     28  C   UNL     1      -0.056  10.968  18.611  0.00  0.00    +0.000 A 
ATOM     29  C   UNL     1       0.642   9.821  19.083  0.00  0.00    +0.000 A 
ATOM     30  C   UNL     1       1.558   8.918  18.502  0.00  0.00    +0.000 A 
ATOM     31  H   UNL     1      -1.092  10.720  21.621  0.00  0.00    +0.000 HD
ENDBRANCH  21  22
ENDBRANCH  17  20
ENDBRANCH   1  17
TORSDOF 6
ENDMDL
MODEL 4
REMARK VINA RESULT:      -8.5      1.065      1.119
REMARK  Name = 
REMARK  6 active torsions:
REMARK  status: ('A' for Active; 'I' for Inactive)
REMARK    1  A    between atoms: S_2  and  C_4
REMARK    2  A    between atoms: S_2  and  C_15
REMARK    3  A    between atoms: C_5  and  C_6
REMARK    4  A    between atoms: C_15  and  S_16
REMARK    5  A    between atoms: S_16  and  C_19
REMARK    6  A    between atoms: C_20  and  C_21
REMARK                            x       y       z     vdW  Elec       q    Type
REMARK                         _______ _______ _______ _____ _____    ______ ____
ROOT
ATOM      1  C   UNL     1       5.879   5.717  18.533  0.00  0.00    +0.000 C 
ENDROOT
BRANCH   1   3
ATOM      2  O   UNL     1       4.057   3.863  18.854  0.00  0.00    +0.000 OA
ATOM      3  S   UNL     1       4.399   4.960  17.974  0.00  0.00    +0.000 S 
ATOM      4  O   UNL     1       4.510   4.752  16.542  0.00  0.00    +0.000 OA
BRANCH   3   5
ATOM      5  C   UNL     1       3.220   6.205  18.281  0.00  0.00    +0.000 C 
ATOM      6  C   UNL     1       2.905   6.575  19.531  0.00  0.00    +0.000 C 
BRANCH   6   7
ATOM      7  C   UNL     1       1.933   7.644  19.834  0.00  0.00    +0.000 A 
ATOM      8  C   UNL     1       1.294   7.735  21.079  0.00  0.00    +0.000 A 
ATOM      9  C   UNL     1       0.385   8.758  21.375  0.00  0.00    +0.000 A 
ATOM     10  C   UNL     1       0.145   9.714  20.386  0.00  0.00    +0.000 A 
ATOM     11  N   UNL     1      -0.677  10.818  20.401  0.00  0.00    +0.000 N 
ATOM     12  C   UNL     1      -0.591  11.488  19.209  0.00  0.00    +0.000 A 
ATOM     13  C   UNL     1       0.293  10.801  18.406  0.00  0.00    +0.000 A 
ATOM     14  C   UNL     1       0.768   9.678  19.139  0.00  0.00    +0.000 A 
ATOM     15  C   UNL     1       1.674   8.629  18.862  0.00  0.00    +0.000 A 
ATOM     16  H   UNL     1      -1.254  11.092  21.184  0.00  0.00    +0.000 HD
ENDBRANCH   6   7
ENDBRANCH   3   5
ENDBRANCH   1   3
BRANCH   1  17
ATOM     17  S   UNL     1       6.885   6.335  17.233  0.00  0.00    +0.000 S 
ATOM     18  O   UNL     1       7.740   5.223  16.840  0.00  0.00    +0.000 OA
ATOM     19  O   UNL     1       6.045   6.952  16.228  0.00  0.00    +0.000 OA
BRANCH  17  20
ATOM     20  C   UNL     1       7.865   7.560  17.970  0.00  0.00    +0.000 C 
ATOM     21  C   UNL     1       7.687   8.851  17.650  0.00  0.00    +0.000 C 
BRANCH  21  22
ATOM     22  C   UNL     1       8.477   9.946  18.238  0.00  0.00    +0.000 A 
ATOM     23  C   UNL     1       9.321   9.740  19.336  0.00  0.00    +0.000 A 
ATOM     24  C   UNL     1      10.063  10.784  19.901  0.00  0.00    +0.000 A 
ATOM     25  C   UNL     1       9.951  12.047  19.314  0.00  0.00    +0.000 A 
ATOM     26  N   UNL     1      10.540  13.241  19.662  0.00  0.00    +0.000 N 
ATOM     27  C   UNL     1      10.160  14.226  18.790  0.00  0.00    +0.000 A 
ATOM     28  C   UNL     1       9.304  13.665  17.869  0.00  0.00    +0.000 A 
ATOM     29  C   UNL     1       9.154  12.289  18.197  0.00  0.00    +0.000 A 
ATOM     30  C   UNL     1       8.412  11.221  17.648  0.00  0.00    +0.000 A 
ATOM     31  H   UNL     1      11.160  13.365  20.449  0.00  0.00    +0.000 HD
ENDBRANCH  21  22
ENDBRANCH  17  20
ENDBRANCH   1  17
TORSDOF 6
ENDMDL
MODEL 5
REMARK VINA RESULT:      -8.5      1.131      1.649
REMARK  Name = 
REMARK  6 active torsions:
REMARK  status: ('A' for Active; 'I' for Inactive)
REMARK    1  A    between atoms: S_2  and  C_4
REMARK    2  A    between atoms: S_2  and  C_15
REMARK    3  A    between atoms: C_5  and  C_6
REMARK    4  A    between atoms: C_15  and  S_16
REMARK    5  A    between atoms: S_16  and  C_19
REMARK    6  A    between atoms: C_20  and  C_21
REMARK                            x       y       z     vdW  Elec       q    Type
REMARK                         _______ _______ _______ _____ _____    ______ ____
ROOT
ATOM      1  C   UNL     1       5.789   5.856  18.555  0.00  0.00    +0.000 C 
ENDROOT
BRANCH   1   3
ATOM      2  O   UNL     1       3.866   4.077  18.607  0.00  0.00    +0.000 OA
ATOM      3  S   UNL     1       4.305   5.232  17.854  0.00  0.00    +0.000 S 
ATOM      4  O   UNL     1       4.483   5.154  16.415  0.00  0.00    +0.000 OA
BRANCH   3   5
ATOM      5  C   UNL     1       3.172   6.503  18.222  0.00  0.00    +0.000 C 
ATOM      6  C   UNL     1       2.888   6.839  19.489  0.00  0.00    +0.000 C 
BRANCH   6   7
ATOM      7  C   UNL     1       1.955   7.927  19.844  0.00  0.00    +0.000 A 
ATOM      8  C   UNL     1       1.500   8.852  18.893  0.00  0.00    +0.000 A 
ATOM      9  C   UNL     1       0.601   9.874  19.223  0.00  0.00    +0.000 A 
ATOM     10  C   UNL     1       0.146   9.934  20.541  0.00  0.00    +0.000 A 
ATOM     11  N   UNL     1      -0.734  10.809  21.137  0.00  0.00    +0.000 N 
ATOM     12  C   UNL     1      -0.904  10.484  22.456  0.00  0.00    +0.000 A 
ATOM     13  C   UNL     1      -0.114   9.386  22.721  0.00  0.00    +0.000 A 
ATOM     14  C   UNL     1       0.554   9.026  21.518  0.00  0.00    +0.000 A 
ATOM     15  C   UNL     1       1.469   8.011  21.162  0.00  0.00    +0.000 A 
ATOM     16  H   UNL     1      -1.190  11.575  20.662  0.00  0.00    +0.000 HD
ENDBRANCH   6   7
ENDBRANCH   3   5
ENDBRANCH   1   3
BRANCH   1  17
ATOM     17  S   UNL     1       7.010   6.265  17.361  0.00  0.00    +0.000 S 
ATOM     18  O   UNL     1       7.799   5.055  17.179  0.00  0.00    +0.000 OA
ATOM     19  O   UNL     1       6.370   6.855  16.203  0.00  0.00    +0.000 OA
BRANCH  17  20
ATOM     20  C   UNL     1       7.998   7.466  18.126  0.00  0.00    +0.000 C 
ATOM     21  C   UNL     1       7.926   8.749  17.736  0.00  0.00    +0.000 C 
BRANCH  21  22
ATOM     22  C   UNL     1       8.729   9.823  18.342  0.00  0.00    +0.000 A 
ATOM     23  C   UNL     1       9.117   9.787  19.688  0.00  0.00    +0.000 A 
ATOM     24  C   UNL     1       9.871  10.814  20.266  0.00  0.00    +0.000 A 
ATOM     25  C   UNL     1      10.249  11.879  19.443  0.00  0.00    +0.000 A 
ATOM     26  N   UNL     1      10.966  13.016  19.739  0.00  0.00    +0.000 N 
ATOM     27  C   UNL     1      11.120  13.782  18.614  0.00  0.00    +0.000 A 
ATOM     28  C   UNL     1      10.486  13.137  17.576  0.00  0.00    +0.000 A 
ATOM     29  C   UNL     1       9.920  11.937  18.090  0.00  0.00    +0.000 A 
ATOM     30  C   UNL     1       9.155  10.891  17.531  0.00  0.00    +0.000 A 
ATOM     31  H   UNL     1      11.322  13.246  20.656  0.00  0.00    +0.000 HD
ENDBRANCH  21  22
ENDBRANCH  17  20
ENDBRANCH   1  17
TORSDOF 6
ENDMDL
MODEL 6
REMARK VINA RESULT:      -8.4      1.222      1.711
REMARK  Name = 
REMARK  6 active torsions:
REMARK  status: ('A' for Active; 'I' for Inactive)
REMARK    1  A    between atoms: S_2  and  C_4
REMARK    2  A    between atoms: S_2  and  C_15
REMARK    3  A    between atoms: C_5  and  C_6
REMARK    4  A    between atoms: C_15  and  S_16
REMARK    5  A    between atoms: S_16  and  C_19
REMARK    6  A    between atoms: C_20  and  C_21
REMARK                            x       y       z     vdW  Elec       q    Type
REMARK                         _______ _______ _______ _____ _____    ______ ____
ROOT
ATOM      1  C   UNL     1       6.635   5.242  18.078  0.00  0.00    +0.000 C 
ENDROOT
BRANCH   1   3
ATOM      2  O   UNL     1       5.138   3.678  19.553  0.00  0.00    +0.000 OA
ATOM      3  S   UNL     1       5.046   4.584  18.428  0.00  0.00    +0.000 S 
ATOM      4  O   UNL     1       4.450   4.152  17.177  0.00  0.00    +0.000 OA
BRANCH   3   5
ATOM      5  C   UNL     1       4.197   5.988  19.012  0.00  0.00    +0.000 C 
ATOM      6  C   UNL     1       3.005   6.343  18.509  0.00  0.00    +0.000 C 
BRANCH   6   7
ATOM      7  C   UNL     1       2.240   7.509  18.995  0.00  0.00    +0.000 A 
ATOM      8  C   UNL     1       1.890   8.570  18.149  0.00  0.00    +0.000 A 
ATOM      9  C   UNL     1       1.149   9.669  18.602  0.00  0.00    +0.000 A 
ATOM     10  C   UNL     1       0.745   9.667  19.938  0.00  0.00    +0.000 A 
ATOM     11  N   UNL     1       0.011  10.593  20.644  0.00  0.00    +0.000 N 
ATOM     12  C   UNL     1      -0.165  10.174  21.936  0.00  0.00    +0.000 A 
ATOM     13  C   UNL     1       0.475   8.960  22.071  0.00  0.00    +0.000 A 
ATOM     14  C   UNL     1       1.052   8.627  20.815  0.00  0.00    +0.000 A 
ATOM     15  C   UNL     1       1.809   7.535  20.335  0.00  0.00    +0.000 A 
ATOM     16  H   UNL     1      -0.349  11.455  20.257  0.00  0.00    +0.000 HD
ENDBRANCH   6   7
ENDBRANCH   3   5
ENDBRANCH   1   3
BRANCH   1  17
ATOM     17  S   UNL     1       6.627   6.457  16.811  0.00  0.00    +0.000 S 
ATOM     18  O   UNL     1       7.742   6.118  15.938  0.00  0.00    +0.000 OA
ATOM     19  O   UNL     1       5.300   6.544  16.238  0.00  0.00    +0.000 OA
BRANCH  17  20
ATOM     20  C   UNL     1       6.984   7.948  17.619  0.00  0.00    +0.000 C 
ATOM     21  C   UNL     1       8.236   8.432  17.621  0.00  0.00    +0.000 C 
BRANCH  21  22
ATOM     22  C   UNL     1       8.614   9.693  18.281  0.00  0.00    +0.000 A 
ATOM     23  C   UNL     1       9.172   9.717  19.565  0.00  0.00    +0.000 A 
ATOM     24  C   UNL     1       9.520  10.916  20.196  0.00  0.00    +0.000 A 
ATOM     25  C   UNL     1       9.313  12.103  19.487  0.00  0.00    +0.000 A 
ATOM     26  N   UNL     1       9.542  13.408  19.857  0.00  0.00    +0.000 N 
ATOM     27  C   UNL     1       9.210  14.254  18.833  0.00  0.00    +0.000 A 
ATOM     28  C   UNL     1       8.749  13.487  17.787  0.00  0.00    +0.000 A 
ATOM     29  C   UNL     1       8.797  12.124  18.193  0.00  0.00    +0.000 A 
ATOM     30  C   UNL     1       8.449  10.902  17.579  0.00  0.00    +0.000 A 
ATOM     31  H   UNL     1       9.902  13.692  20.757  0.00  0.00    +0.000 HD
ENDBRANCH  21  22
ENDBRANCH  17  20
ENDBRANCH   1  17
TORSDOF 6
ENDMDL
MODEL 7
REMARK VINA RESULT:      -8.4      1.597      8.411
REMARK  Name = 
REMARK  6 active torsions:
REMARK  status: ('A' for Active; 'I' for Inactive)
REMARK    1  A    between atoms: S_2  and  C_4
REMARK    2  A    between atoms: S_2  and  C_15
REMARK    3  A    between atoms: C_5  and  C_6
REMARK    4  A    between atoms: C_15  and  S_16
REMARK    5  A    between atoms: S_16  and  C_19
REMARK    6  A    between atoms: C_20  and  C_21
REMARK                            x       y       z     vdW  Elec       q    Type
REMARK                         _______ _______ _______ _____ _____    ______ ____
ROOT
ATOM      1  C   UNL     1       4.982   6.399  16.759  0.00  0.00    +0.000 C 
ENDROOT
BRANCH   1   3
ATOM      2  O   UNL     1       7.451   6.042  15.959  0.00  0.00    +0.000 OA
ATOM      3  S   UNL     1       6.688   6.308  17.160  0.00  0.00    +0.000 S 
ATOM      4  O   UNL     1       6.833   5.463  18.332  0.00  0.00    +0.000 OA
BRANCH   3   5
ATOM      5  C   UNL     1       7.043   7.957  17.597  0.00  0.00    +0.000 C 
ATOM      6  C   UNL     1       8.282   8.336  17.945  0.00  0.00    +0.000 C 
BRANCH   6   7
ATOM      7  C   UNL     1       8.630   9.727  18.295  0.00  0.00    +0.000 A 
ATOM      8  C   UNL     1       8.255  10.810  17.487  0.00  0.00    +0.000 A 
ATOM      9  C   UNL     1       8.568  12.133  17.826  0.00  0.00    +0.000 A 
ATOM     10  C   UNL     1       9.256  12.347  19.022  0.00  0.00    +0.000 A 
ATOM     11  N   UNL     1       9.679  13.521  19.603  0.00  0.00    +0.000 N 
ATOM     12  C   UNL     1      10.306  13.261  20.793  0.00  0.00    +0.000 A 
ATOM     13  C   UNL     1      10.297  11.896  20.980  0.00  0.00    +0.000 A 
ATOM     14  C   UNL     1       9.634  11.306  19.869  0.00  0.00    +0.000 A 
ATOM     15  C   UNL     1       9.315   9.980  19.499  0.00  0.00    +0.000 A 
ATOM     16  H   UNL     1       9.539  14.440  19.207  0.00  0.00    +0.000 HD
ENDBRANCH   6   7
ENDBRANCH   3   5
ENDBRANCH   1   3
BRANCH   1  17
ATOM     17  S   UNL     1       3.931   5.777  18.021  0.00  0.00    +0.000 S 
ATOM     18  O   UNL     1       3.135   4.736  17.387  0.00  0.00    +0.000 OA
ATOM     19  O   UNL     1       4.727   5.431  19.181  0.00  0.00    +0.000 OA
BRANCH  17  20
ATOM     20  C   UNL     1       2.893   7.103  18.432  0.00  0.00    +0.000 C 
ATOM     21  C   UNL     1       2.440   7.243  19.687  0.00  0.00    +0.000 C 
BRANCH  21  22
ATOM     22  C   UNL     1       1.561   8.345  20.111  0.00  0.00    +0.000 A 
ATOM     23  C   UNL     1       1.168   9.359  19.227  0.00  0.00    +0.000 A 
ATOM     24  C   UNL     1       0.341  10.412  19.634  0.00  0.00    +0.000 A 
ATOM     25  C   UNL     1      -0.105  10.408  20.958  0.00  0.00    +0.000 A 
ATOM     26  N   UNL     1      -0.901  11.309  21.628  0.00  0.00    +0.000 N 
ATOM     27  C   UNL     1      -1.101  10.894  22.917  0.00  0.00    +0.000 A 
ATOM     28  C   UNL     1      -0.418   9.712  23.090  0.00  0.00    +0.000 A 
ATOM     29  C   UNL     1       0.227   9.399  21.860  0.00  0.00    +0.000 A 
ATOM     30  C   UNL     1       1.066   8.350  21.428  0.00  0.00    +0.000 A 
ATOM     31  H   UNL     1      -1.277  12.153  21.220  0.00  0.00    +0.000 HD
ENDBRANCH  21  22
ENDBRANCH  17  20
ENDBRANCH   1  17
TORSDOF 6
ENDMDL
MODEL 8
REMARK VINA RESULT:      -8.4      1.475      8.872
REMARK  Name = 
REMARK  6 active torsions:
REMARK  status: ('A' for Active; 'I' for Inactive)
REMARK    1  A    between atoms: S_2  and  C_4
REMARK    2  A    between atoms: S_2  and  C_15
REMARK    3  A    between atoms: C_5  and  C_6
REMARK    4  A    between atoms: C_15  and  S_16
REMARK    5  A    between atoms: S_16  and  C_19
REMARK    6  A    between atoms: C_20  and  C_21
REMARK                            x       y       z     vdW  Elec       q    Type
REMARK                         _______ _______ _______ _____ _____    ______ ____
ROOT
ATOM      1  C   UNL     1       5.599   7.434  17.613  0.00  0.00    +0.000 C 
ENDROOT
BRANCH   1   3
ATOM      2  O   UNL     1       7.565   6.444  16.194  0.00  0.00    +0.000 OA
ATOM      3  S   UNL     1       7.281   6.941  17.523  0.00  0.00    +0.000 S 
ATOM      4  O   UNL     1       7.579   6.135  18.693  0.00  0.00    +0.000 OA
BRANCH   3   5
ATOM      5  C   UNL     1       8.111   8.466  17.652  0.00  0.00    +0.000 C 
ATOM      6  C   UNL     1       8.517   8.943  18.838  0.00  0.00    +0.000 C 
BRANCH   6   7
ATOM      7  C   UNL     1       9.247  10.217  18.987  0.00  0.00    +0.000 A 
ATOM      8  C   UNL     1       9.597  10.728  20.245  0.00  0.00    +0.000 A 
ATOM      9  C   UNL     1      10.306  11.927  20.389  0.00  0.00    +0.000 A 
ATOM     10  C   UNL     1      10.678  12.600  19.224  0.00  0.00    +0.000 A 
ATOM     11  N   UNL     1      11.378  13.775  19.064  0.00  0.00    +0.000 N 
ATOM     12  C   UNL     1      11.530  14.058  17.732  0.00  0.00    +0.000 A 
ATOM     13  C   UNL     1      10.910  13.054  17.019  0.00  0.00    +0.000 A 
ATOM     14  C   UNL     1      10.370  12.124  17.950  0.00  0.00    +0.000 A 
ATOM     15  C   UNL     1       9.645  10.917  17.833  0.00  0.00    +0.000 A 
ATOM     16  H   UNL     1      11.730  14.341  19.824  0.00  0.00    +0.000 HD
ENDBRANCH   6   7
ENDBRANCH   3   5
ENDBRANCH   1   3
BRANCH   1  17
ATOM     17  S   UNL     1       4.497   6.110  17.949  0.00  0.00    +0.000 S 
ATOM     18  O   UNL     1       4.281   5.448  16.670  0.00  0.00    +0.000 OA
ATOM     19  O   UNL     1       5.009   5.327  19.055  0.00  0.00    +0.000 OA
BRANCH  17  20
ATOM     20  C   UNL     1       3.020   6.871  18.441  0.00  0.00    +0.000 C 
ATOM     21  C   UNL     1       2.788   8.157  18.135  0.00  0.00    +0.000 C 
BRANCH  21  22
ATOM     22  C   UNL     1       1.556   8.868  18.514  0.00  0.00    +0.000 A 
ATOM     23  C   UNL     1       1.301   9.253  19.837  0.00  0.00    +0.000 A 
ATOM     24  C   UNL     1       0.125   9.919  20.197  0.00  0.00    +0.000 A 
ATOM     25  C   UNL     1      -0.789  10.213  19.181  0.00  0.00    +0.000 A 
ATOM     26  N   UNL     1      -2.015  10.834  19.244  0.00  0.00    +0.000 N 
ATOM     27  C   UNL     1      -2.560  10.929  17.991  0.00  0.00    +0.000 A 
ATOM     28  C   UNL     1      -1.680  10.352  17.104  0.00  0.00    +0.000 A 
ATOM     29  C   UNL     1      -0.559   9.884  17.846  0.00  0.00    +0.000 A 
ATOM     30  C   UNL     1       0.633   9.208  17.508  0.00  0.00    +0.000 A 
ATOM     31  H   UNL     1      -2.445  11.166  20.096  0.00  0.00    +0.000 HD
ENDBRANCH  21  22
ENDBRANCH  17  20
ENDBRANCH   1  17
TORSDOF 6
ENDMDL
MODEL 9
REMARK VINA RESULT:      -8.4      3.774      4.241
REMARK  Name = 
REMARK  6 active torsions:
REMARK  status: ('A' for Active; 'I' for Inactive)
REMARK    1  A    between atoms: S_2  and  C_4
REMARK    2  A    between atoms: S_2  and  C_15
REMARK    3  A    between atoms: C_5  and  C_6
REMARK    4  A    between atoms: C_15  and  S_16
REMARK    5  A    between atoms: S_16  and  C_19
REMARK    6  A    between atoms: C_20  and  C_21
REMARK                            x       y       z     vdW  Elec       q    Type
REMARK                         _______ _______ _______ _____ _____    ______ ____
ROOT
ATOM      1  C   UNL     1       7.325   6.623  15.986  0.00  0.00    +0.000 C 
ENDROOT
BRANCH   1   3
ATOM      2  O   UNL     1       7.863   4.102  16.453  0.00  0.00    +0.000 OA
ATOM      3  S   UNL     1       6.896   4.935  15.771  0.00  0.00    +0.000 S 
ATOM      4  O   UNL     1       6.594   4.721  14.367  0.00  0.00    +0.000 OA
BRANCH   3   5
ATOM      5  C   UNL     1       5.425   4.817  16.697  0.00  0.00    +0.000 C 
ATOM      6  C   UNL     1       5.015   3.647  17.209  0.00  0.00    +0.000 C 
BRANCH   6   7
ATOM      7  C   UNL     1       3.790   3.509  18.022  0.00  0.00    +0.000 A 
ATOM      8  C   UNL     1       2.511   3.638  17.463  0.00  0.00    +0.000 A 
ATOM      9  C   UNL     1       1.347   3.490  18.228  0.00  0.00    +0.000 A 
ATOM     10  C   UNL     1       1.499   3.185  19.582  0.00  0.00    +0.000 A 
ATOM     11  N   UNL     1       0.549   2.976  20.556  0.00  0.00    +0.000 N 
ATOM     12  C   UNL     1       1.153   2.686  21.751  0.00  0.00    +0.000 A 
ATOM     13  C   UNL     1       2.516   2.716  21.549  0.00  0.00    +0.000 A 
ATOM     14  C   UNL     1       2.749   3.028  20.181  0.00  0.00    +0.000 A 
ATOM     15  C   UNL     1       3.907   3.193  19.389  0.00  0.00    +0.000 A 
ATOM     16  H   UNL     1      -0.448   3.026  20.403  0.00  0.00    +0.000 HD
ENDBRANCH   6   7
ENDBRANCH   3   5
ENDBRANCH   1   3
BRANCH   1  17
ATOM     17  S   UNL     1       7.129   7.191  17.636  0.00  0.00    +0.000 S 
ATOM     18  O   UNL     1       5.691   7.249  17.860  0.00  0.00    +0.000 OA
ATOM     19  O   UNL     1       7.935   6.378  18.522  0.00  0.00    +0.000 OA
BRANCH  17  20
ATOM     20  C   UNL     1       7.759   8.805  17.630  0.00  0.00    +0.000 C 
ATOM     21  C   UNL     1       8.607   9.203  18.592  0.00  0.00    +0.000 C 
BRANCH  21  22
ATOM     22  C   UNL     1       9.187  10.555  18.649  0.00  0.00    +0.000 A 
ATOM     23  C   UNL     1      10.458  10.792  19.189  0.00  0.00    +0.000 A 
ATOM     24  C   UNL     1      11.003  12.079  19.253  0.00  0.00    +0.000 A 
ATOM     25  C   UNL     1      10.241  13.130  18.735  0.00  0.00    +0.000 A 
ATOM     26  N   UNL     1      10.512  14.478  18.680  0.00  0.00    +0.000 N 
ATOM     27  C   UNL     1       9.484  15.141  18.064  0.00  0.00    +0.000 A 
ATOM     28  C   UNL     1       8.528  14.211  17.723  0.00  0.00    +0.000 A 
ATOM     29  C   UNL     1       8.990  12.935  18.154  0.00  0.00    +0.000 A 
ATOM     30  C   UNL     1       8.459  11.629  18.105  0.00  0.00    +0.000 A 
ATOM     31  H   UNL     1      11.350  14.908  19.046  0.00  0.00    +0.000 HD
ENDBRANCH  21  22
ENDBRANCH  17  20
ENDBRANCH   1  17
TORSDOF 6
ENDMDL
