MODEL 1
REMARK VINA RESULT:      -7.1      0.000      0.000
REMARK  Name = 
REMARK  5 active torsions:
REMARK  status: ('A' for Active; 'I' for Inactive)
REMARK    1  A    between atoms: C_1  and  N_2
REMARK    2  A    between atoms: N_2  and  C_3
REMARK    3  A    between atoms: C_3  and  C_4
REMARK    4  A    between atoms: C_10  and  C_12
REMARK    5  A    between atoms: C_12  and  C_13
REMARK                            x       y       z     vdW  Elec       q    Type
REMARK                         _______ _______ _______ _____ _____    ______ ____
ROOT
ATOM      1  C   UNL     1      -4.261  13.660  21.758  0.00  0.00    +0.000 C 
ATOM      2  C   UNL     1      -3.883  12.763  22.952  0.00  0.00    +0.000 C 
ATOM      3  C   UNL     1      -4.932  12.909  24.066  0.00  0.00    +0.000 C 
ATOM      4  C   UNL     1      -6.363  12.707  23.556  0.00  0.00    +0.000 C 
ATOM      5  C   UNL     1      -6.653  13.498  22.277  0.00  0.00    +0.000 C 
ATOM      6  N   UNL     1      -5.596  13.195  21.314  0.00  0.00    +0.000 N 
ATOM      7  C   UNL     1      -5.861  12.840  20.010  0.00  0.00    +0.000 A 
ATOM      8  C   UNL     1      -6.992  13.263  19.342  0.00  0.00    +0.000 A 
ATOM      9  C   UNL     1      -7.087  12.966  17.998  0.00  0.00    +0.000 A 
ATOM     10  N   UNL     1      -6.152  12.281  17.318  0.00  0.00    +0.000 NA
ATOM     11  C   UNL     1      -5.096  11.880  18.047  0.00  0.00    +0.000 A 
ATOM     12  N   UNL     1      -4.020  11.251  17.367  0.00  0.00    +0.000 N 
ATOM     13  C   UNL     1      -3.885  11.058  16.011  0.00  0.00    +0.000 A 
ATOM     14  C   UNL     1      -2.659  10.460  15.841  0.00  0.00    +0.000 A 
ATOM     15  N   UNL     1      -2.035  10.274  17.046  0.00  0.00    +0.000 NA
ATOM     16  C   UNL     1      -2.878  10.748  17.941  0.00  0.00    +0.000 A 
ATOM     17  N   UNL     1      -4.941  12.101  19.370  0.00  0.00    +0.000 NA
ENDROOT
BRANCH   1  18
ATOM     18  C   UNL     1      -3.121  13.785  20.739  0.00  0.00    +0.000 C 
BRANCH  18  21
ATOM     19  C   UNL     1       0.583  14.401  21.490  0.00  0.00    +0.000 C 
ATOM     20  N   UNL     1      -0.630  13.803  20.953  0.00  0.00    +0.000 N 
ATOM     21  C   UNL     1      -1.842  14.343  21.363  0.00  0.00    +0.000 C 
ATOM     22  O   UNL     1      -1.858  15.238  22.213  0.00  0.00    +0.000 OA
BRANCH  20  23
ATOM     23  C   UNL     1      -0.493  12.556  20.206  0.00  0.00    +0.000 C 
BRANCH  23  24
ATOM     24  C   UNL     1      -0.439  11.311  21.075  0.00  0.00    +0.000 A 
ATOM     25  C   UNL     1      -0.704  11.319  22.455  0.00  0.00    +0.000 A 
ATOM     26  C   UNL     1      -0.670  10.139  23.201  0.00  0.00    +0.000 A 
ATOM     27  C   UNL     1      -0.361   8.931  22.583  0.00  0.00    +0.000 A 
ATOM     28  C   UNL     1      -0.085   8.904  21.218  0.00  0.00    +0.000 A 
ATOM     29  C   UNL     1      -0.123  10.084  20.470  0.00  0.00    +0.000 A 
ENDBRANCH  23  24
ENDBRANCH  20  23
ENDBRANCH  18  21
ENDBRANCH   1  18
TORSDOF 4
ENDMDL
MODEL 2
REMARK VINA RESULT:      -6.9      2.074      2.986
REMARK  Name = 
REMARK  5 active torsions:
REMARK  status: ('A' for Active; 'I' for Inactive)
REMARK    1  A    between atoms: C_1  and  N_2
REMARK    2  A    between atoms: N_2  and  C_3
REMARK    3  A    between atoms: C_3  and  C_4
REMARK    4  A    between atoms: C_10  and  C_12
REMARK    5  A    between atoms: C_12  and  C_13
REMARK                            x       y       z     vdW  Elec       q    Type
REMARK                         _______ _______ _______ _____ _____    ______ ____
ROOT
ATOM      1  C   UNL     1      -1.706  13.071  20.745  0.00  0.00    +0.000 C 
ATOM      2  C   UNL     1      -0.922  12.057  21.599  0.00  0.00    +0.000 C 
ATOM      3  C   UNL     1      -1.312  12.210  23.078  0.00  0.00    +0.000 C 
ATOM      4  C   UNL     1      -2.829  12.172  23.293  0.00  0.00    +0.000 C 
ATOM      5  C   UNL     1      -3.587  13.080  22.319  0.00  0.00    +0.000 C 
ATOM      6  N   UNL     1      -3.138  12.760  20.966  0.00  0.00    +0.000 N 
ATOM      7  C   UNL     1      -4.014  12.530  19.929  0.00  0.00    +0.000 A 
ATOM      8  C   UNL     1      -5.270  13.099  19.880  0.00  0.00    +0.000 A 
ATOM      9  C   UNL     1      -6.009  12.914  18.730  0.00  0.00    +0.000 A 
ATOM     10  N   UNL     1      -5.580  12.203  17.673  0.00  0.00    +0.000 NA
ATOM     11  C   UNL     1      -4.359  11.658  17.812  0.00  0.00    +0.000 A 
ATOM     12  N   UNL     1      -3.799  10.990  16.691  0.00  0.00    +0.000 N 
ATOM     13  C   UNL     1      -4.330  10.889  15.425  0.00  0.00    +0.000 A 
ATOM     14  C   UNL     1      -3.398  10.201  14.685  0.00  0.00    +0.000 A 
ATOM     15  N   UNL     1      -2.312   9.870  15.453  0.00  0.00    +0.000 NA
ATOM     16  C   UNL     1      -2.586  10.347  16.650  0.00  0.00    +0.000 A 
ATOM     17  N   UNL     1      -3.585  11.764  18.914  0.00  0.00    +0.000 NA
ENDROOT
BRANCH   1  18
ATOM     18  C   UNL     1      -1.162  13.173  19.314  0.00  0.00    +0.000 C 
BRANCH  18  21
ATOM     19  C   UNL     1       2.420  12.055  18.547  0.00  0.00    +0.000 C 
ATOM     20  N   UNL     1       0.969  12.039  18.658  0.00  0.00    +0.000 N 
ATOM     21  C   UNL     1       0.366  13.132  19.269  0.00  0.00    +0.000 C 
ATOM     22  O   UNL     1       1.065  14.021  19.761  0.00  0.00    +0.000 OA
BRANCH  20  23
ATOM     23  C   UNL     1       0.279  10.797  18.324  0.00  0.00    +0.000 C 
BRANCH  23  24
ATOM     24  C   UNL     1       1.007   9.540  18.767  0.00  0.00    +0.000 A 
ATOM     25  C   UNL     1       1.815   8.771  17.911  0.00  0.00    +0.000 A 
ATOM     26  C   UNL     1       2.487   7.640  18.380  0.00  0.00    +0.000 A 
ATOM     27  C   UNL     1       2.356   7.252  19.709  0.00  0.00    +0.000 A 
ATOM     28  C   UNL     1       1.552   7.994  20.571  0.00  0.00    +0.000 A 
ATOM     29  C   UNL     1       0.883   9.129  20.104  0.00  0.00    +0.000 A 
ENDBRANCH  23  24
ENDBRANCH  20  23
ENDBRANCH  18  21
ENDBRANCH   1  18
TORSDOF 4
ENDMDL
MODEL 3
REMARK VINA RESULT:      -6.8      3.802      6.615
REMARK  Name = 
REMARK  5 active torsions:
REMARK  status: ('A' for Active; 'I' for Inactive)
REMARK    1  A    between atoms: C_1  and  N_2
REMARK    2  A    between atoms: N_2  and  C_3
REMARK    3  A    between atoms: C_3  and  C_4
REMARK    4  A    between atoms: C_10  and  C_12
REMARK    5  A    between atoms: C_12  and  C_13
REMARK                            x       y       z     vdW  Elec       q    Type
REMARK                         _______ _______ _______ _____ _____    ______ ____
ROOT
ATOM      1  C   UNL     1      -1.141  10.552  18.884  0.00  0.00    +0.000 C 
ATOM      2  C   UNL     1      -1.346  10.058  17.440  0.00  0.00    +0.000 C 
ATOM      3  C   UNL     1      -2.843   9.841  17.172  0.00  0.00    +0.000 C 
ATOM      4  C   UNL     1      -3.690  11.064  17.544  0.00  0.00    +0.000 C 
ATOM      5  C   UNL     1      -3.348  11.621  18.929  0.00  0.00    +0.000 C 
ATOM      6  N   UNL     1      -1.901  11.820  18.987  0.00  0.00    +0.000 N 
ATOM      7  C   UNL     1      -1.332  12.992  19.431  0.00  0.00    +0.000 A 
ATOM      8  C   UNL     1      -1.952  13.816  20.347  0.00  0.00    +0.000 A 
ATOM      9  C   UNL     1      -1.231  14.890  20.829  0.00  0.00    +0.000 A 
ATOM     10  N   UNL     1       0.024  15.179  20.444  0.00  0.00    +0.000 NA
ATOM     11  C   UNL     1       0.545  14.345  19.528  0.00  0.00    +0.000 A 
ATOM     12  N   UNL     1       1.905  14.526  19.162  0.00  0.00    +0.000 N 
ATOM     13  C   UNL     1       2.802  15.425  19.693  0.00  0.00    +0.000 A 
ATOM     14  C   UNL     1       3.995  15.180  19.056  0.00  0.00    +0.000 A 
ATOM     15  N   UNL     1       3.864  14.162  18.148  0.00  0.00    +0.000 NA
ATOM     16  C   UNL     1       2.601  13.798  18.227  0.00  0.00    +0.000 A 
ATOM     17  N   UNL     1      -0.103  13.292  18.983  0.00  0.00    +0.000 NA
ENDROOT
BRANCH   1  18
ATOM     18  C   UNL     1       0.333  10.513  19.311  0.00  0.00    +0.000 C 
BRANCH  18  21
ATOM     19  C   UNL     1       1.927   7.294  20.639  0.00  0.00    +0.000 C 
ATOM     20  N   UNL     1       1.573   8.385  19.743  0.00  0.00    +0.000 N 
ATOM     21  C   UNL     1       0.647   9.313  20.204  0.00  0.00    +0.000 C 
ATOM     22  O   UNL     1       0.103   9.143  21.299  0.00  0.00    +0.000 OA
BRANCH  20  23
ATOM     23  C   UNL     1       2.043   8.304  18.364  0.00  0.00    +0.000 C 
BRANCH  23  24
ATOM     24  C   UNL     1       2.712   6.988  18.008  0.00  0.00    +0.000 A 
ATOM     25  C   UNL     1       2.048   5.749  18.039  0.00  0.00    +0.000 A 
ATOM     26  C   UNL     1       2.704   4.573  17.673  0.00  0.00    +0.000 A 
ATOM     27  C   UNL     1       4.038   4.611  17.278  0.00  0.00    +0.000 A 
ATOM     28  C   UNL     1       4.716   5.827  17.251  0.00  0.00    +0.000 A 
ATOM     29  C   UNL     1       4.059   7.006  17.613  0.00  0.00    +0.000 A 
ENDBRANCH  23  24
ENDBRANCH  20  23
ENDBRANCH  18  21
ENDBRANCH   1  18
TORSDOF 4
ENDMDL
MODEL 4
REMARK VINA RESULT:      -6.6      1.091      1.664
REMARK  Name = 
REMARK  5 active torsions:
REMARK  status: ('A' for Active; 'I' for Inactive)
REMARK    1  A    between atoms: C_1  and  N_2
REMARK    2  A    between atoms: N_2  and  C_3
REMARK    3  A    between atoms: C_3  and  C_4
REMARK    4  A    between atoms: C_10  and  C_12
REMARK    5  A    between atoms: C_12  and  C_13
REMARK                            x       y       z     vdW  Elec       q    Type
REMARK                         _______ _______ _______ _____ _____    ______ ____
ROOT
ATOM      1  C   UNL     1      -3.432  13.476  21.700  0.00  0.00    +0.000 C 
ATOM      2  C   UNL     1      -3.139  12.517  22.869  0.00  0.00    +0.000 C 
ATOM      3  C   UNL     1      -4.077  12.830  24.046  0.00  0.00    +0.000 C 
ATOM      4  C   UNL     1      -5.551  12.878  23.626  0.00  0.00    +0.000 C 
ATOM      5  C   UNL     1      -5.780  13.718  22.366  0.00  0.00    +0.000 C 
ATOM      6  N   UNL     1      -4.851  13.249  21.340  0.00  0.00    +0.000 N 
ATOM      7  C   UNL     1      -5.252  12.955  20.056  0.00  0.00    +0.000 A 
ATOM      8  C   UNL     1      -6.334  13.570  19.459  0.00  0.00    +0.000 A 
ATOM      9  C   UNL     1      -6.560  13.305  18.123  0.00  0.00    +0.000 A 
ATOM     10  N   UNL     1      -5.799  12.477  17.388  0.00  0.00    +0.000 NA
ATOM     11  C   UNL     1      -4.784  11.897  18.050  0.00  0.00    +0.000 A 
ATOM     12  N   UNL     1      -3.874  11.100  17.306  0.00  0.00    +0.000 N 
ATOM     13  C   UNL     1      -3.858  10.899  15.944  0.00  0.00    +0.000 A 
ATOM     14  C   UNL     1      -2.764  10.103  15.700  0.00  0.00    +0.000 A 
ATOM     15  N   UNL     1      -2.107   9.804  16.864  0.00  0.00    +0.000 NA
ATOM     16  C   UNL     1      -2.801  10.406  17.808  0.00  0.00    +0.000 A 
ATOM     17  N   UNL     1      -4.513  12.077  19.361  0.00  0.00    +0.000 NA
ENDROOT
BRANCH   1  18
ATOM     18  C   UNL     1      -2.353  13.415  20.611  0.00  0.00    +0.000 C 
BRANCH  18  21
ATOM     19  C   UNL     1       0.806  15.558  20.928  0.00  0.00    +0.000 C 
ATOM     20  N   UNL     1      -0.088  14.410  20.979  0.00  0.00    +0.000 N 
ATOM     21  C   UNL     1      -1.421  14.626  20.649  0.00  0.00    +0.000 C 
ATOM     22  O   UNL     1      -1.814  15.771  20.408  0.00  0.00    +0.000 OA
BRANCH  20  23
ATOM     23  C   UNL     1       0.424  13.182  21.578  0.00  0.00    +0.000 C 
BRANCH  23  24
ATOM     24  C   UNL     1       0.627  12.044  20.592  0.00  0.00    +0.000 A 
ATOM     25  C   UNL     1       1.297  12.194  19.365  0.00  0.00    +0.000 A 
ATOM     26  C   UNL     1       1.481  11.106  18.509  0.00  0.00    +0.000 A 
ATOM     27  C   UNL     1       0.991   9.852  18.859  0.00  0.00    +0.000 A 
ATOM     28  C   UNL     1       0.315   9.686  20.065  0.00  0.00    +0.000 A 
ATOM     29  C   UNL     1       0.134  10.773  20.924  0.00  0.00    +0.000 A 
ENDBRANCH  23  24
ENDBRANCH  20  23
ENDBRANCH  18  21
ENDBRANCH   1  18
TORSDOF 4
ENDMDL
MODEL 5
REMARK VINA RESULT:      -6.5      2.635      5.745
REMARK  Name = 
REMARK  5 active torsions:
REMARK  status: ('A' for Active; 'I' for Inactive)
REMARK    1  A    between atoms: C_1  and  N_2
REMARK    2  A    between atoms: N_2  and  C_3
REMARK    3  A    between atoms: C_3  and  C_4
REMARK    4  A    between atoms: C_10  and  C_12
REMARK    5  A    between atoms: C_12  and  C_13
REMARK                            x       y       z     vdW  Elec       q    Type
REMARK                         _______ _______ _______ _____ _____    ______ ____
ROOT
ATOM      1  C   UNL     1      -1.422  10.676  18.970  0.00  0.00    +0.000 C 
ATOM      2  C   UNL     1      -1.507  10.011  17.583  0.00  0.00    +0.000 C 
ATOM      3  C   UNL     1      -2.980   9.817  17.189  0.00  0.00    +0.000 C 
ATOM      4  C   UNL     1      -3.798  11.107  17.318  0.00  0.00    +0.000 C 
ATOM      5  C   UNL     1      -3.567  11.823  18.652  0.00  0.00    +0.000 C 
ATOM      6  N   UNL     1      -2.125  11.974  18.836  0.00  0.00    +0.000 N 
ATOM      7  C   UNL     1      -1.545  13.171  19.191  0.00  0.00    +0.000 A 
ATOM      8  C   UNL     1      -2.211  14.127  19.930  0.00  0.00    +0.000 A 
ATOM      9  C   UNL     1      -1.489  15.226  20.349  0.00  0.00    +0.000 A 
ATOM     10  N   UNL     1      -0.190  15.418  20.065  0.00  0.00    +0.000 NA
ATOM     11  C   UNL     1       0.378  14.456  19.317  0.00  0.00    +0.000 A 
ATOM     12  N   UNL     1       1.774  14.539  19.076  0.00  0.00    +0.000 N 
ATOM     13  C   UNL     1       2.657  15.465  19.583  0.00  0.00    +0.000 A 
ATOM     14  C   UNL     1       3.894  15.097  19.109  0.00  0.00    +0.000 A 
ATOM     15  N   UNL     1       3.803  13.978  18.323  0.00  0.00    +0.000 NA
ATOM     16  C   UNL     1       2.522  13.674  18.315  0.00  0.00    +0.000 A 
ATOM     17  N   UNL     1      -0.264  13.367  18.840  0.00  0.00    +0.000 NA
ENDROOT
BRANCH   1  18
ATOM     18  C   UNL     1      -0.002  10.638  19.549  0.00  0.00    +0.000 C 
BRANCH  18  21
ATOM     19  C   UNL     1      -0.129   9.782  23.280  0.00  0.00    +0.000 C 
ATOM     20  N   UNL     1      -0.115  10.554  22.046  0.00  0.00    +0.000 N 
ATOM     21  C   UNL     1       0.070   9.854  20.860  0.00  0.00    +0.000 C 
ATOM     22  O   UNL     1       0.293   8.641  20.893  0.00  0.00    +0.000 OA
BRANCH  20  23
ATOM     23  C   UNL     1      -0.074  12.008  22.160  0.00  0.00    +0.000 C 
BRANCH  23  24
ATOM     24  C   UNL     1      -1.250  12.608  22.911  0.00  0.00    +0.000 A 
ATOM     25  C   UNL     1      -1.182  13.828  23.608  0.00  0.00    +0.000 A 
ATOM     26  C   UNL     1      -2.304  14.348  24.256  0.00  0.00    +0.000 A 
ATOM     27  C   UNL     1      -3.510  13.656  24.229  0.00  0.00    +0.000 A 
ATOM     28  C   UNL     1      -3.595  12.441  23.554  0.00  0.00    +0.000 A 
ATOM     29  C   UNL     1      -2.474  11.921  22.900  0.00  0.00    +0.000 A 
ENDBRANCH  23  24
ENDBRANCH  20  23
ENDBRANCH  18  21
ENDBRANCH   1  18
TORSDOF 4
ENDMDL
MODEL 6
REMARK VINA RESULT:      -6.5      2.251      6.749
REMARK  Name = 
REMARK  5 active torsions:
REMARK  status: ('A' for Active; 'I' for Inactive)
REMARK    1  A    between atoms: C_1  and  N_2
REMARK    2  A    between atoms: N_2  and  C_3
REMARK    3  A    between atoms: C_3  and  C_4
REMARK    4  A    between atoms: C_10  and  C_12
REMARK    5  A    between atoms: C_12  and  C_13
REMARK                            x       y       z     vdW  Elec       q    Type
REMARK                         _______ _______ _______ _____ _____    ______ ____
ROOT
ATOM      1  C   UNL     1      -0.680  11.049  21.672  0.00  0.00    +0.000 C 
ATOM      2  C   UNL     1      -0.383  10.359  23.016  0.00  0.00    +0.000 C 
ATOM      3  C   UNL     1      -0.097   8.867  22.784  0.00  0.00    +0.000 C 
ATOM      4  C   UNL     1       0.971   8.634  21.709  0.00  0.00    +0.000 C 
ATOM      5  C   UNL     1       0.724   9.457  20.442  0.00  0.00    +0.000 C 
ATOM      6  N   UNL     1       0.532  10.850  20.842  0.00  0.00    +0.000 N 
ATOM      7  C   UNL     1       1.196  11.893  20.237  0.00  0.00    +0.000 A 
ATOM      8  C   UNL     1       1.618  11.841  18.925  0.00  0.00    +0.000 A 
ATOM      9  C   UNL     1       2.145  12.993  18.378  0.00  0.00    +0.000 A 
ATOM     10  N   UNL     1       2.281  14.146  19.055  0.00  0.00    +0.000 NA
ATOM     11  C   UNL     1       1.873  14.106  20.335  0.00  0.00    +0.000 A 
ATOM     12  N   UNL     1       1.883  15.318  21.074  0.00  0.00    +0.000 N 
ATOM     13  C   UNL     1       2.197  16.576  20.613  0.00  0.00    +0.000 A 
ATOM     14  C   UNL     1       2.008  17.421  21.681  0.00  0.00    +0.000 A 
ATOM     15  N   UNL     1       1.590  16.726  22.786  0.00  0.00    +0.000 NA
ATOM     16  C   UNL     1       1.535  15.470  22.395  0.00  0.00    +0.000 A 
ATOM     17  N   UNL     1       1.376  13.013  20.955  0.00  0.00    +0.000 NA
ENDROOT
BRANCH   1  18
ATOM     18  C   UNL     1      -1.252  12.461  21.854  0.00  0.00    +0.000 C 
BRANCH  18  21
ATOM     19  C   UNL     1      -5.023  12.477  21.184  0.00  0.00    +0.000 C 
ATOM     20  N   UNL     1      -3.587  12.575  20.966  0.00  0.00    +0.000 N 
ATOM     21  C   UNL     1      -2.764  12.450  22.079  0.00  0.00    +0.000 C 
ATOM     22  O   UNL     1      -3.265  12.346  23.202  0.00  0.00    +0.000 OA
BRANCH  20  23
ATOM     23  C   UNL     1      -3.133  13.011  19.649  0.00  0.00    +0.000 C 
BRANCH  23  24
ATOM     24  C   UNL     1      -3.087  11.906  18.608  0.00  0.00    +0.000 A 
ATOM     25  C   UNL     1      -1.973  11.072  18.413  0.00  0.00    +0.000 A 
ATOM     26  C   UNL     1      -1.996  10.051  17.461  0.00  0.00    +0.000 A 
ATOM     27  C   UNL     1      -3.130   9.852  16.679  0.00  0.00    +0.000 A 
ATOM     28  C   UNL     1      -4.240  10.674  16.850  0.00  0.00    +0.000 A 
ATOM     29  C   UNL     1      -4.220  11.693  17.806  0.00  0.00    +0.000 A 
ENDBRANCH  23  24
ENDBRANCH  20  23
ENDBRANCH  18  21
ENDBRANCH   1  18
TORSDOF 4
ENDMDL
MODEL 7
REMARK VINA RESULT:      -6.4      2.003      5.632
REMARK  Name = 
REMARK  5 active torsions:
REMARK  status: ('A' for Active; 'I' for Inactive)
REMARK    1  A    between atoms: C_1  and  N_2
REMARK    2  A    between atoms: N_2  and  C_3
REMARK    3  A    between atoms: C_3  and  C_4
REMARK    4  A    between atoms: C_10  and  C_12
REMARK    5  A    between atoms: C_12  and  C_13
REMARK                            x       y       z     vdW  Elec       q    Type
REMARK                         _______ _______ _______ _____ _____    ______ ____
ROOT
ATOM      1  C   UNL     1      -0.597  12.796  20.541  0.00  0.00    +0.000 C 
ATOM      2  C   UNL     1      -0.197  14.278  20.408  0.00  0.00    +0.000 C 
ATOM      3  C   UNL     1       1.199  14.386  19.776  0.00  0.00    +0.000 C 
ATOM      4  C   UNL     1       1.320  13.583  18.475  0.00  0.00    +0.000 C 
ATOM      5  C   UNL     1       0.769  12.160  18.605  0.00  0.00    +0.000 C 
ATOM      6  N   UNL     1      -0.579  12.251  19.164  0.00  0.00    +0.000 N 
ATOM      7  C   UNL     1      -1.654  11.588  18.615  0.00  0.00    +0.000 A 
ATOM      8  C   UNL     1      -1.518  10.407  17.916  0.00  0.00    +0.000 A 
ATOM      9  C   UNL     1      -2.674   9.756  17.533  0.00  0.00    +0.000 A 
ATOM     10  N   UNL     1      -3.909  10.218  17.789  0.00  0.00    +0.000 NA
ATOM     11  C   UNL     1      -3.955  11.388  18.448  0.00  0.00    +0.000 A 
ATOM     12  N   UNL     1      -5.227  11.875  18.850  0.00  0.00    +0.000 N 
ATOM     13  C   UNL     1      -6.445  11.250  18.710  0.00  0.00    +0.000 A 
ATOM     14  C   UNL     1      -7.363  12.088  19.297  0.00  0.00    +0.000 A 
ATOM     15  N   UNL     1      -6.752  13.211  19.792  0.00  0.00    +0.000 NA
ATOM     16  C   UNL     1      -5.477  13.059  19.500  0.00  0.00    +0.000 A 
ATOM     17  N   UNL     1      -2.874  12.104  18.830  0.00  0.00    +0.000 NA
ENDROOT
BRANCH   1  18
ATOM     18  C   UNL     1      -1.841  12.604  21.418  0.00  0.00    +0.000 C 
BRANCH  18  21
ATOM     19  C   UNL     1      -2.596  14.526  24.644  0.00  0.00    +0.000 C 
ATOM     20  N   UNL     1      -2.728  14.003  23.293  0.00  0.00    +0.000 N 
ATOM     21  C   UNL     1      -1.679  13.235  22.802  0.00  0.00    +0.000 C 
ATOM     22  O   UNL     1      -0.656  13.093  23.477  0.00  0.00    +0.000 OA
BRANCH  20  23
ATOM     23  C   UNL     1      -3.837  14.497  22.483  0.00  0.00    +0.000 C 
BRANCH  23  24
ATOM     24  C   UNL     1      -5.211  14.202  23.059  0.00  0.00    +0.000 A 
ATOM     25  C   UNL     1      -5.651  12.907  23.385  0.00  0.00    +0.000 A 
ATOM     26  C   UNL     1      -6.914  12.696  23.941  0.00  0.00    +0.000 A 
ATOM     27  C   UNL     1      -7.764  13.773  24.173  0.00  0.00    +0.000 A 
ATOM     28  C   UNL     1      -7.350  15.062  23.847  0.00  0.00    +0.000 A 
ATOM     29  C   UNL     1      -6.084  15.275  23.295  0.00  0.00    +0.000 A 
ENDBRANCH  23  24
ENDBRANCH  20  23
ENDBRANCH  18  21
ENDBRANCH   1  18
TORSDOF 4
ENDMDL
MODEL 8
REMARK VINA RESULT:      -6.3      1.103      1.439
REMARK  Name = 
REMARK  5 active torsions:
REMARK  status: ('A' for Active; 'I' for Inactive)
REMARK    1  A    between atoms: C_1  and  N_2
REMARK    2  A    between atoms: N_2  and  C_3
REMARK    3  A    between atoms: C_3  and  C_4
REMARK    4  A    between atoms: C_10  and  C_12
REMARK    5  A    between atoms: C_12  and  C_13
REMARK                            x       y       z     vdW  Elec       q    Type
REMARK                         _______ _______ _______ _____ _____    ______ ____
ROOT
ATOM      1  C   UNL     1      -3.574  13.365  22.255  0.00  0.00    +0.000 C 
ATOM      2  C   UNL     1      -3.265  12.329  23.352  0.00  0.00    +0.000 C 
ATOM      3  C   UNL     1      -4.216  12.531  24.542  0.00  0.00    +0.000 C 
ATOM      4  C   UNL     1      -5.688  12.575  24.116  0.00  0.00    +0.000 C 
ATOM      5  C   UNL     1      -5.931  13.501  22.920  0.00  0.00    +0.000 C 
ATOM      6  N   UNL     1      -4.985  13.132  21.869  0.00  0.00    +0.000 N 
ATOM      7  C   UNL     1      -5.372  12.925  20.563  0.00  0.00    +0.000 A 
ATOM      8  C   UNL     1      -6.465  13.557  20.006  0.00  0.00    +0.000 A 
ATOM      9  C   UNL     1      -6.677  13.387  18.653  0.00  0.00    +0.000 A 
ATOM     10  N   UNL     1      -5.893  12.634  17.863  0.00  0.00    +0.000 NA
ATOM     11  C   UNL     1      -4.867  12.030  18.488  0.00  0.00    +0.000 A 
ATOM     12  N   UNL     1      -3.935  11.313  17.694  0.00  0.00    +0.000 N 
ATOM     13  C   UNL     1      -3.906  11.214  16.321  0.00  0.00    +0.000 A 
ATOM     14  C   UNL     1      -2.792  10.464  16.026  0.00  0.00    +0.000 A 
ATOM     15  N   UNL     1      -2.135  10.094  17.170  0.00  0.00    +0.000 NA
ATOM     16  C   UNL     1      -2.848  10.608  18.151  0.00  0.00    +0.000 A 
ATOM     17  N   UNL     1      -4.608  12.118  19.811  0.00  0.00    +0.000 NA
ENDROOT
BRANCH   1  18
ATOM     18  C   UNL     1      -2.487  13.410  21.172  0.00  0.00    +0.000 C 
BRANCH  18  21
ATOM     19  C   UNL     1       1.262  14.156  21.415  0.00  0.00    +0.000 C 
ATOM     20  N   UNL     1      -0.023  13.724  20.884  0.00  0.00    +0.000 N 
ATOM     21  C   UNL     1      -1.116  13.775  21.741  0.00  0.00    +0.000 C 
ATOM     22  O   UNL     1      -0.954  14.097  22.921  0.00  0.00    +0.000 OA
BRANCH  20  23
ATOM     23  C   UNL     1      -0.028  13.072  19.579  0.00  0.00    +0.000 C 
BRANCH  23  24
ATOM     24  C   UNL     1       0.416  11.620  19.605  0.00  0.00    +0.000 A 
ATOM     25  C   UNL     1       0.080  10.726  20.637  0.00  0.00    +0.000 A 
ATOM     26  C   UNL     1       0.490   9.392  20.595  0.00  0.00    +0.000 A 
ATOM     27  C   UNL     1       1.251   8.929  19.527  0.00  0.00    +0.000 A 
ATOM     28  C   UNL     1       1.602   9.801  18.499  0.00  0.00    +0.000 A 
ATOM     29  C   UNL     1       1.189  11.135  18.538  0.00  0.00    +0.000 A 
ENDBRANCH  23  24
ENDBRANCH  20  23
ENDBRANCH  18  21
ENDBRANCH   1  18
TORSDOF 4
ENDMDL
MODEL 9
REMARK VINA RESULT:      -6.3      3.214      6.144
REMARK  Name = 
REMARK  5 active torsions:
REMARK  status: ('A' for Active; 'I' for Inactive)
REMARK    1  A    between atoms: C_1  and  N_2
REMARK    2  A    between atoms: N_2  and  C_3
REMARK    3  A    between atoms: C_3  and  C_4
REMARK    4  A    between atoms: C_10  and  C_12
REMARK    5  A    between atoms: C_12  and  C_13
REMARK                            x       y       z     vdW  Elec       q    Type
REMARK                         _______ _______ _______ _____ _____    ______ ____
ROOT
ATOM      1  C   UNL     1      -0.911  11.022  19.057  0.00  0.00    +0.000 C 
ATOM      2  C   UNL     1      -1.232  10.491  17.647  0.00  0.00    +0.000 C 
ATOM      3  C   UNL     1      -2.738  10.211  17.525  0.00  0.00    +0.000 C 
ATOM      4  C   UNL     1      -3.595  11.407  17.956  0.00  0.00    +0.000 C 
ATOM      5  C   UNL     1      -3.146  12.005  19.293  0.00  0.00    +0.000 C 
ATOM      6  N   UNL     1      -1.710  12.260  19.210  0.00  0.00    +0.000 N 
ATOM      7  C   UNL     1      -1.149  13.463  19.579  0.00  0.00    +0.000 A 
ATOM      8  C   UNL     1      -1.713  14.280  20.537  0.00  0.00    +0.000 A 
ATOM      9  C   UNL     1      -0.994  15.391  20.930  0.00  0.00    +0.000 A 
ATOM     10  N   UNL     1       0.206  15.721  20.423  0.00  0.00    +0.000 NA
ATOM     11  C   UNL     1       0.672  14.889  19.475  0.00  0.00    +0.000 A 
ATOM     12  N   UNL     1       1.983  15.116  18.979  0.00  0.00    +0.000 N 
ATOM     13  C   UNL     1       2.888  16.060  19.407  0.00  0.00    +0.000 A 
ATOM     14  C   UNL     1       4.025  15.849  18.663  0.00  0.00    +0.000 A 
ATOM     15  N   UNL     1       3.850  14.809  17.788  0.00  0.00    +0.000 NA
ATOM     16  C   UNL     1       2.616  14.398  17.994  0.00  0.00    +0.000 A 
ATOM     17  N   UNL     1       0.019  13.801  19.011  0.00  0.00    +0.000 NA
ENDROOT
BRANCH   1  18
ATOM     18  C   UNL     1       0.596  11.049  19.341  0.00  0.00    +0.000 C 
BRANCH  18  21
ATOM     19  C   UNL     1       1.450   9.151  22.556  0.00  0.00    +0.000 C 
ATOM     20  N   UNL     1       1.062   9.418  21.179  0.00  0.00    +0.000 N 
ATOM     21  C   UNL     1       0.916  10.749  20.806  0.00  0.00    +0.000 C 
ATOM     22  O   UNL     1       1.034  11.639  21.653  0.00  0.00    +0.000 OA
BRANCH  20  23
ATOM     23  C   UNL     1       0.647   8.282  20.363  0.00  0.00    +0.000 C 
BRANCH  23  24
ATOM     24  C   UNL     1       1.773   7.633  19.577  0.00  0.00    +0.000 A 
ATOM     25  C   UNL     1       2.287   8.164  18.381  0.00  0.00    +0.000 A 
ATOM     26  C   UNL     1       3.345   7.541  17.715  0.00  0.00    +0.000 A 
ATOM     27  C   UNL     1       3.901   6.373  18.226  0.00  0.00    +0.000 A 
ATOM     28  C   UNL     1       3.399   5.826  19.404  0.00  0.00    +0.000 A 
ATOM     29  C   UNL     1       2.343   6.451  20.074  0.00  0.00    +0.000 A 
ENDBRANCH  23  24
ENDBRANCH  20  23
ENDBRANCH  18  21
ENDBRANCH   1  18
TORSDOF 4
ENDMDL
