MODEL 1
REMARK VINA RESULT:      -8.1      0.000      0.000
REMARK  Name = 
REMARK  7 active torsions:
REMARK  status: ('A' for Active; 'I' for Inactive)
REMARK    1  A    between atoms: C_1  and  C_2
REMARK    2  A    between atoms: C_2  and  C_3
REMARK    3  A    between atoms: C_2  and  C_4
REMARK    4  A    between atoms: C_9  and  C_10
REMARK    5  A    between atoms: C_15  and  C_16
REMARK    6  A    between atoms: C_23  and  C_24
REMARK    7  A    between atoms: C_27  and  O_28
REMARK                            x       y       z     vdW  Elec       q    Type
REMARK                         _______ _______ _______ _____ _____    ______ ____
ROOT
ATOM      1  C   UNL     1       3.719   6.177  17.535  0.00  0.00    +0.000 A 
ATOM      2  N   UNL     1       3.692   7.483  17.075  0.00  0.00    +0.000 NA
ATOM      3  C   UNL     1       2.876   8.115  17.873  0.00  0.00    +0.000 A 
ATOM      4  C   UNL     1       2.524   9.507  17.851  0.00  0.00    +0.000 A 
ATOM      5  N   UNL     1       1.730  10.034  18.747  0.00  0.00    +0.000 NA
ATOM      6  C   UNL     1       1.206   9.187  19.705  0.00  0.00    +0.000 A 
ATOM      7  C   UNL     1       1.458   7.863  19.754  0.00  0.00    +0.000 A 
ATOM      8  N   UNL     1       2.339   7.301  18.831  0.00  0.00    +0.000 N 
ATOM      9  C   UNL     1       2.868   6.015  18.649  0.00  0.00    +0.000 A 
ENDROOT
BRANCH   6  10
ATOM     10  C   UNL     1       0.341   9.767  20.743  0.00  0.00    +0.000 A 
ATOM     11  C   UNL     1       0.335   9.231  22.035  0.00  0.00    +0.000 A 
ATOM     12  C   UNL     1      -0.450   9.817  23.028  0.00  0.00    +0.000 A 
ATOM     13  C   UNL     1      -1.227  10.935  22.736  0.00  0.00    +0.000 A 
ATOM     14  F   UNL     1      -1.956  11.474  23.721  0.00  0.00    +0.000 F 
ATOM     15  C   UNL     1      -1.248  11.486  21.458  0.00  0.00    +0.000 A 
ATOM     16  C   UNL     1      -0.457  10.888  20.458  0.00  0.00    +0.000 A 
BRANCH  15  17
ATOM     17  C   UNL     1      -2.077  12.696  21.146  0.00  0.00    +0.000 C 
ATOM     18  F   UNL     1      -1.779  13.808  21.870  0.00  0.00    +0.000 F 
ATOM     19  F   UNL     1      -1.955  13.069  19.838  0.00  0.00    +0.000 F 
ATOM     20  F   UNL     1      -3.408  12.476  21.338  0.00  0.00    +0.000 F 
ENDBRANCH  15  17
ENDBRANCH   6  10
BRANCH   9  21
ATOM     21  C   UNL     1       2.565   4.868  19.552  0.00  0.00    +0.000 A 
ATOM     22  C   UNL     1       2.649   5.068  20.951  0.00  0.00    +0.000 A 
ATOM     23  C   UNL     1       2.262   4.088  21.875  0.00  0.00    +0.000 A 
ATOM     24  C   UNL     1       1.878   2.841  21.418  0.00  0.00    +0.000 A 
ATOM     25  C   UNL     1       1.861   2.572  20.059  0.00  0.00    +0.000 A 
ATOM     26  C   UNL     1       2.158   3.585  19.130  0.00  0.00    +0.000 A 
ATOM     27 CL   UNL     1       1.880   3.148  17.484  0.00  0.00    +0.000 Cl
BRANCH  24  28
ATOM     28  O   UNL     1       1.492   1.849  22.267  0.00  0.00    +0.000 OA
ATOM     29  H   UNL     1       1.526   0.996  21.804  0.00  0.00    +0.000 HD
ENDBRANCH  24  28
ENDBRANCH   9  21
BRANCH   1  31
ATOM     30  C   UNL     1       5.352   5.860  15.608  0.00  0.00    +0.000 C 
ATOM     31  C   UNL     1       4.614   5.208  16.790  0.00  0.00    +0.000 C 
ATOM     32  C   UNL     1       5.631   4.516  17.695  0.00  0.00    +0.000 C 
ENDBRANCH   1  31
TORSDOF 5
ENDMDL
MODEL 2
REMARK VINA RESULT:      -8.0      2.960      4.955
REMARK  Name = 
REMARK  7 active torsions:
REMARK  status: ('A' for Active; 'I' for Inactive)
REMARK    1  A    between atoms: C_1  and  C_2
REMARK    2  A    between atoms: C_2  and  C_3
REMARK    3  A    between atoms: C_2  and  C_4
REMARK    4  A    between atoms: C_9  and  C_10
REMARK    5  A    between atoms: C_15  and  C_16
REMARK    6  A    between atoms: C_23  and  C_24
REMARK    7  A    between atoms: C_27  and  O_28
REMARK                            x       y       z     vdW  Elec       q    Type
REMARK                         _______ _______ _______ _____ _____    ______ ____
ROOT
ATOM      1  C   UNL     1       4.126   3.034  19.587  0.00  0.00    +0.000 A 
ATOM      2  N   UNL     1       3.128   3.244  20.524  0.00  0.00    +0.000 NA
ATOM      3  C   UNL     1       2.763   4.487  20.369  0.00  0.00    +0.000 A 
ATOM      4  C   UNL     1       1.734   5.197  21.074  0.00  0.00    +0.000 A 
ATOM      5  N   UNL     1       1.424   6.435  20.785  0.00  0.00    +0.000 NA
ATOM      6  C   UNL     1       2.158   7.055  19.791  0.00  0.00    +0.000 A 
ATOM      7  C   UNL     1       3.168   6.461  19.123  0.00  0.00    +0.000 A 
ATOM      8  N   UNL     1       3.473   5.128  19.392  0.00  0.00    +0.000 N 
ATOM      9  C   UNL     1       4.381   4.208  18.847  0.00  0.00    +0.000 A 
ENDROOT
BRANCH   6  10
ATOM     10  C   UNL     1       1.802   8.434  19.426  0.00  0.00    +0.000 A 
ATOM     11  C   UNL     1       2.162   8.947  18.175  0.00  0.00    +0.000 A 
ATOM     12  C   UNL     1       1.777  10.239  17.815  0.00  0.00    +0.000 A 
ATOM     13  C   UNL     1       1.035  11.018  18.699  0.00  0.00    +0.000 A 
ATOM     14  F   UNL     1       0.675  12.248  18.309  0.00  0.00    +0.000 F 
ATOM     15  C   UNL     1       0.668  10.539  19.953  0.00  0.00    +0.000 A 
ATOM     16  C   UNL     1       1.064   9.236  20.313  0.00  0.00    +0.000 A 
BRANCH  15  17
ATOM     17  C   UNL     1      -0.139  11.375  20.900  0.00  0.00    +0.000 C 
ATOM     18  F   UNL     1       0.433  12.551  21.272  0.00  0.00    +0.000 F 
ATOM     19  F   UNL     1      -1.352  11.710  20.370  0.00  0.00    +0.000 F 
ATOM     20  F   UNL     1      -0.420  10.718  22.061  0.00  0.00    +0.000 F 
ENDBRANCH  15  17
ENDBRANCH   6  10
BRANCH   9  21
ATOM     21  C   UNL     1       5.284   4.527  17.705  0.00  0.00    +0.000 A 
ATOM     22  C   UNL     1       4.846   4.230  16.392  0.00  0.00    +0.000 A 
ATOM     23  C   UNL     1       5.571   4.607  15.253  0.00  0.00    +0.000 A 
ATOM     24  C   UNL     1       6.809   5.203  15.406  0.00  0.00    +0.000 A 
ATOM     25  C   UNL     1       7.317   5.437  16.674  0.00  0.00    +0.000 A 
ATOM     26  C   UNL     1       6.548   5.145  17.813  0.00  0.00    +0.000 A 
ATOM     27 CL   UNL     1       7.234   5.696  19.298  0.00  0.00    +0.000 Cl
BRANCH  24  28
ATOM     28  O   UNL     1       7.559   5.591  14.339  0.00  0.00    +0.000 OA
ATOM     29  H   UNL     1       7.576   4.879  13.679  0.00  0.00    +0.000 HD
ENDBRANCH  24  28
ENDBRANCH   9  21
BRANCH   1  31
ATOM     30  C   UNL     1       5.041   1.071  20.924  0.00  0.00    +0.000 C 
ATOM     31  C   UNL     1       4.731   1.646  19.532  0.00  0.00    +0.000 C 
ATOM     32  C   UNL     1       3.872   0.649  18.758  0.00  0.00    +0.000 C 
ENDBRANCH   1  31
TORSDOF 5
ENDMDL
MODEL 3
REMARK VINA RESULT:      -7.9      5.361      9.035
REMARK  Name = 
REMARK  7 active torsions:
REMARK  status: ('A' for Active; 'I' for Inactive)
REMARK    1  A    between atoms: C_1  and  C_2
REMARK    2  A    between atoms: C_2  and  C_3
REMARK    3  A    between atoms: C_2  and  C_4
REMARK    4  A    between atoms: C_9  and  C_10
REMARK    5  A    between atoms: C_15  and  C_16
REMARK    6  A    between atoms: C_23  and  C_24
REMARK    7  A    between atoms: C_27  and  O_28
REMARK                            x       y       z     vdW  Elec       q    Type
REMARK                         _______ _______ _______ _____ _____    ______ ____
ROOT
ATOM      1  C   UNL     1      -0.298  12.902  22.264  0.00  0.00    +0.000 A 
ATOM      2  N   UNL     1      -0.790  11.813  22.964  0.00  0.00    +0.000 NA
ATOM      3  C   UNL     1      -0.322  10.764  22.346  0.00  0.00    +0.000 A 
ATOM      4  C   UNL     1      -0.509   9.382  22.690  0.00  0.00    +0.000 A 
ATOM      5  N   UNL     1       0.063   8.417  22.017  0.00  0.00    +0.000 NA
ATOM      6  C   UNL     1       0.832   8.777  20.926  0.00  0.00    +0.000 A 
ATOM      7  C   UNL     1       1.009  10.051  20.521  0.00  0.00    +0.000 A 
ATOM      8  N   UNL     1       0.442  11.088  21.259  0.00  0.00    +0.000 N 
ATOM      9  C   UNL     1       0.488  12.487  21.169  0.00  0.00    +0.000 A 
ENDROOT
BRANCH   6  10
ATOM     10  C   UNL     1       1.513   7.710  20.177  0.00  0.00    +0.000 A 
ATOM     11  C   UNL     1       2.132   7.992  18.955  0.00  0.00    +0.000 A 
ATOM     12  C   UNL     1       2.820   6.987  18.275  0.00  0.00    +0.000 A 
ATOM     13  C   UNL     1       2.892   5.704  18.811  0.00  0.00    +0.000 A 
ATOM     14  F   UNL     1       3.573   4.772  18.132  0.00  0.00    +0.000 F 
ATOM     15  C   UNL     1       2.280   5.391  20.021  0.00  0.00    +0.000 A 
ATOM     16  C   UNL     1       1.583   6.408  20.701  0.00  0.00    +0.000 A 
BRANCH  15  17
ATOM     17  C   UNL     1       2.367   4.012  20.603  0.00  0.00    +0.000 C 
ATOM     18  F   UNL     1       1.449   3.124  20.136  0.00  0.00    +0.000 F 
ATOM     19  F   UNL     1       3.583   3.438  20.366  0.00  0.00    +0.000 F 
ATOM     20  F   UNL     1       2.224   4.011  21.959  0.00  0.00    +0.000 F 
ENDBRANCH  15  17
ENDBRANCH   6  10
BRANCH   9  21
ATOM     21  C   UNL     1       1.288  13.215  20.143  0.00  0.00    +0.000 A 
ATOM     22  C   UNL     1       2.590  13.654  20.486  0.00  0.00    +0.000 A 
ATOM     23  C   UNL     1       3.459  14.234  19.551  0.00  0.00    +0.000 A 
ATOM     24  C   UNL     1       3.004  14.483  18.269  0.00  0.00    +0.000 A 
ATOM     25  C   UNL     1       1.709  14.147  17.911  0.00  0.00    +0.000 A 
ATOM     26  C   UNL     1       0.871  13.480  18.821  0.00  0.00    +0.000 A 
ATOM     27 CL   UNL     1      -0.626  12.941  18.151  0.00  0.00    +0.000 Cl
BRANCH  24  28
ATOM     28  O   UNL     1       3.801  15.043  17.318  0.00  0.00    +0.000 OA
ATOM     29  H   UNL     1       4.014  15.957  17.572  0.00  0.00    +0.000 HD
ENDBRANCH  24  28
ENDBRANCH   9  21
BRANCH   1  31
ATOM     30  C   UNL     1      -1.402  15.133  21.732  0.00  0.00    +0.000 C 
ATOM     31  C   UNL     1      -0.677  14.275  22.782  0.00  0.00    +0.000 C 
ATOM     32  C   UNL     1      -1.518  14.223  24.056  0.00  0.00    +0.000 C 
ENDBRANCH   1  31
TORSDOF 5
ENDMDL
MODEL 4
REMARK VINA RESULT:      -7.9      5.506      9.526
REMARK  Name = 
REMARK  7 active torsions:
REMARK  status: ('A' for Active; 'I' for Inactive)
REMARK    1  A    between atoms: C_1  and  C_2
REMARK    2  A    between atoms: C_2  and  C_3
REMARK    3  A    between atoms: C_2  and  C_4
REMARK    4  A    between atoms: C_9  and  C_10
REMARK    5  A    between atoms: C_15  and  C_16
REMARK    6  A    between atoms: C_23  and  C_24
REMARK    7  A    between atoms: C_27  and  O_28
REMARK                            x       y       z     vdW  Elec       q    Type
REMARK                         _______ _______ _______ _____ _____    ______ ____
ROOT
ATOM      1  C   UNL     1      -0.944  13.289  22.710  0.00  0.00    +0.000 A 
ATOM      2  N   UNL     1      -1.176  12.062  23.311  0.00  0.00    +0.000 NA
ATOM      3  C   UNL     1      -0.622  11.181  22.524  0.00  0.00    +0.000 A 
ATOM      4  C   UNL     1      -0.548   9.759  22.708  0.00  0.00    +0.000 A 
ATOM      5  N   UNL     1       0.088   8.985  21.867  0.00  0.00    +0.000 NA
ATOM      6  C   UNL     1       0.661   9.586  20.762  0.00  0.00    +0.000 A 
ATOM      7  C   UNL     1       0.588  10.908  20.505  0.00  0.00    +0.000 A 
ATOM      8  N   UNL     1      -0.048  11.746  21.419  0.00  0.00    +0.000 N 
ATOM      9  C   UNL     1      -0.233  13.135  21.502  0.00  0.00    +0.000 A 
ENDROOT
BRANCH   6  10
ATOM     10  C   UNL     1       1.411   8.738  19.824  0.00  0.00    +0.000 A 
ATOM     11  C   UNL     1       1.723   9.209  18.544  0.00  0.00    +0.000 A 
ATOM     12  C   UNL     1       2.479   8.419  17.677  0.00  0.00    +0.000 A 
ATOM     13  C   UNL     1       2.924   7.165  18.084  0.00  0.00    +0.000 A 
ATOM     14  F   UNL     1       3.658   6.445  17.225  0.00  0.00    +0.000 F 
ATOM     15  C   UNL     1       2.624   6.665  19.348  0.00  0.00    +0.000 A 
ATOM     16  C   UNL     1       1.857   7.464  20.217  0.00  0.00    +0.000 A 
BRANCH  15  17
ATOM     17  C   UNL     1       3.112   5.318  19.789  0.00  0.00    +0.000 C 
ATOM     18  F   UNL     1       2.743   4.277  18.997  0.00  0.00    +0.000 F 
ATOM     19  F   UNL     1       4.475   5.268  19.845  0.00  0.00    +0.000 F 
ATOM     20  F   UNL     1       2.686   4.998  21.043  0.00  0.00    +0.000 F 
ENDBRANCH  15  17
ENDBRANCH   6  10
BRANCH   9  21
ATOM     21  C   UNL     1       0.319  14.095  20.505  0.00  0.00    +0.000 A 
ATOM     22  C   UNL     1      -0.583  14.812  19.682  0.00  0.00    +0.000 A 
ATOM     23  C   UNL     1      -0.163  15.823  18.807  0.00  0.00    +0.000 A 
ATOM     24  C   UNL     1       1.189  16.071  18.659  0.00  0.00    +0.000 A 
ATOM     25  C   UNL     1       2.115  15.337  19.382  0.00  0.00    +0.000 A 
ATOM     26  C   UNL     1       1.688  14.389  20.328  0.00  0.00    +0.000 A 
ATOM     27 CL   UNL     1       2.955  13.723  21.293  0.00  0.00    +0.000 Cl
BRANCH  24  28
ATOM     28  O   UNL     1       1.657  17.040  17.826  0.00  0.00    +0.000 OA
ATOM     29  H   UNL     1       0.930  17.369  17.272  0.00  0.00    +0.000 HD
ENDBRANCH  24  28
ENDBRANCH   9  21
BRANCH   1  31
ATOM     30  C   UNL     1      -0.453  15.662  23.491  0.00  0.00    +0.000 C 
ATOM     31  C   UNL     1      -1.473  14.512  23.430  0.00  0.00    +0.000 C 
ATOM     32  C   UNL     1      -2.782  15.034  22.841  0.00  0.00    +0.000 C 
ENDBRANCH   1  31
TORSDOF 5
ENDMDL
MODEL 5
REMARK VINA RESULT:      -7.8      5.241      8.741
REMARK  Name = 
REMARK  7 active torsions:
REMARK  status: ('A' for Active; 'I' for Inactive)
REMARK    1  A    between atoms: C_1  and  C_2
REMARK    2  A    between atoms: C_2  and  C_3
REMARK    3  A    between atoms: C_2  and  C_4
REMARK    4  A    between atoms: C_9  and  C_10
REMARK    5  A    between atoms: C_15  and  C_16
REMARK    6  A    between atoms: C_23  and  C_24
REMARK    7  A    between atoms: C_27  and  O_28
REMARK                            x       y       z     vdW  Elec       q    Type
REMARK                         _______ _______ _______ _____ _____    ______ ____
ROOT
ATOM      1  C   UNL     1      -1.009  11.704  21.292  0.00  0.00    +0.000 A 
ATOM      2  N   UNL     1      -0.186  11.265  22.316  0.00  0.00    +0.000 NA
ATOM      3  C   UNL     1       0.367  10.171  21.871  0.00  0.00    +0.000 A 
ATOM      4  C   UNL     1       1.333   9.340  22.534  0.00  0.00    +0.000 A 
ATOM      5  N   UNL     1       1.857   8.290  21.954  0.00  0.00    +0.000 NA
ATOM      6  C   UNL     1       1.415   7.984  20.681  0.00  0.00    +0.000 A 
ATOM      7  C   UNL     1       0.477   8.694  20.022  0.00  0.00    +0.000 A 
ATOM      8  N   UNL     1      -0.052   9.840  20.613  0.00  0.00    +0.000 N 
ATOM      9  C   UNL     1      -0.958  10.824  20.190  0.00  0.00    +0.000 A 
ENDROOT
BRANCH   6  10
ATOM     10  C   UNL     1       2.018   6.830  19.998  0.00  0.00    +0.000 A 
ATOM     11  C   UNL     1       2.632   6.990  18.751  0.00  0.00    +0.000 A 
ATOM     12  C   UNL     1       3.246   5.902  18.132  0.00  0.00    +0.000 A 
ATOM     13  C   UNL     1       3.250   4.656  18.754  0.00  0.00    +0.000 A 
ATOM     14  F   UNL     1       3.862   3.640  18.131  0.00  0.00    +0.000 F 
ATOM     15  C   UNL     1       2.641   4.462  19.990  0.00  0.00    +0.000 A 
ATOM     16  C   UNL     1       2.018   5.564  20.609  0.00  0.00    +0.000 A 
BRANCH  15  17
ATOM     17  C   UNL     1       2.655   3.123  20.664  0.00  0.00    +0.000 C 
ATOM     18  F   UNL     1       3.868   2.511  20.718  0.00  0.00    +0.000 F 
ATOM     19  F   UNL     1       2.229   3.204  21.958  0.00  0.00    +0.000 F 
ATOM     20  F   UNL     1       1.818   2.231  20.061  0.00  0.00    +0.000 F 
ENDBRANCH  15  17
ENDBRANCH   6  10
BRANCH   9  21
ATOM     21  C   UNL     1      -1.578  10.839  18.834  0.00  0.00    +0.000 A 
ATOM     22  C   UNL     1      -2.431   9.770  18.468  0.00  0.00    +0.000 A 
ATOM     23  C   UNL     1      -3.154   9.762  17.267  0.00  0.00    +0.000 A 
ATOM     24  C   UNL     1      -2.959  10.781  16.353  0.00  0.00    +0.000 A 
ATOM     25  C   UNL     1      -2.069  11.805  16.632  0.00  0.00    +0.000 A 
ATOM     26  C   UNL     1      -1.417  11.862  17.876  0.00  0.00    +0.000 A 
ATOM     27 CL   UNL     1      -0.517  13.310  18.145  0.00  0.00    +0.000 Cl
BRANCH  24  28
ATOM     28  O   UNL     1      -3.632  10.827  15.171  0.00  0.00    +0.000 OA
ATOM     29  H   UNL     1      -3.324  11.590  14.654  0.00  0.00    +0.000 HD
ENDBRANCH  24  28
ENDBRANCH   9  21
BRANCH   1  31
ATOM     30  C   UNL     1      -3.279  12.854  21.237  0.00  0.00    +0.000 C 
ATOM     31  C   UNL     1      -1.776  12.987  21.534  0.00  0.00    +0.000 C 
ATOM     32  C   UNL     1      -1.591  13.538  22.947  0.00  0.00    +0.000 C 
ENDBRANCH   1  31
TORSDOF 5
ENDMDL
MODEL 6
REMARK VINA RESULT:      -7.7      5.607      9.728
REMARK  Name = 
REMARK  7 active torsions:
REMARK  status: ('A' for Active; 'I' for Inactive)
REMARK    1  A    between atoms: C_1  and  C_2
REMARK    2  A    between atoms: C_2  and  C_3
REMARK    3  A    between atoms: C_2  and  C_4
REMARK    4  A    between atoms: C_9  and  C_10
REMARK    5  A    between atoms: C_15  and  C_16
REMARK    6  A    between atoms: C_23  and  C_24
REMARK    7  A    between atoms: C_27  and  O_28
REMARK                            x       y       z     vdW  Elec       q    Type
REMARK                         _______ _______ _______ _____ _____    ______ ____
ROOT
ATOM      1  C   UNL     1      -0.983  13.898  22.813  0.00  0.00    +0.000 A 
ATOM      2  N   UNL     1      -1.268  12.693  23.434  0.00  0.00    +0.000 NA
ATOM      3  C   UNL     1      -0.765  11.775  22.655  0.00  0.00    +0.000 A 
ATOM      4  C   UNL     1      -0.759  10.353  22.860  0.00  0.00    +0.000 A 
ATOM      5  N   UNL     1      -0.169   9.537  22.025  0.00  0.00    +0.000 NA
ATOM      6  C   UNL     1       0.422  10.093  20.907  0.00  0.00    +0.000 A 
ATOM      7  C   UNL     1       0.410  11.413  20.631  0.00  0.00    +0.000 A 
ATOM      8  N   UNL     1      -0.175  12.295  21.537  0.00  0.00    +0.000 N 
ATOM      9  C   UNL     1      -0.292  13.692  21.601  0.00  0.00    +0.000 A 
ENDROOT
BRANCH   6  10
ATOM     10  C   UNL     1       1.121   9.196  19.974  0.00  0.00    +0.000 A 
ATOM     11  C   UNL     1       1.438   9.631  18.683  0.00  0.00    +0.000 A 
ATOM     12  C   UNL     1       2.146   8.793  17.821  0.00  0.00    +0.000 A 
ATOM     13  C   UNL     1       2.539   7.526  18.245  0.00  0.00    +0.000 A 
ATOM     14  F   UNL     1       3.229   6.759  17.390  0.00  0.00    +0.000 F 
ATOM     15  C   UNL     1       2.232   7.063  19.520  0.00  0.00    +0.000 A 
ATOM     16  C   UNL     1       1.513   7.910  20.385  0.00  0.00    +0.000 A 
BRANCH  15  17
ATOM     17  C   UNL     1       2.664   5.702  19.979  0.00  0.00    +0.000 C 
ATOM     18  F   UNL     1       2.255   5.352  21.228  0.00  0.00    +0.000 F 
ATOM     19  F   UNL     1       2.199   4.719  19.155  0.00  0.00    +0.000 F 
ATOM     20  F   UNL     1       4.020   5.562  19.983  0.00  0.00    +0.000 F 
ENDBRANCH  15  17
ENDBRANCH   6  10
BRANCH   9  21
ATOM     21  C   UNL     1       0.297  14.610  20.585  0.00  0.00    +0.000 A 
ATOM     22  C   UNL     1      -0.522  15.059  19.521  0.00  0.00    +0.000 A 
ATOM     23  C   UNL     1      -0.093  16.018  18.593  0.00  0.00    +0.000 A 
ATOM     24  C   UNL     1       1.210  16.476  18.648  0.00  0.00    +0.000 A 
ATOM     25  C   UNL     1       2.075  16.002  19.622  0.00  0.00    +0.000 A 
ATOM     26  C   UNL     1       1.616  15.113  20.608  0.00  0.00    +0.000 A 
ATOM     27 CL   UNL     1       2.753  14.793  21.866  0.00  0.00    +0.000 Cl
BRANCH  24  28
ATOM     28  O   UNL     1       1.684  17.407  17.776  0.00  0.00    +0.000 OA
ATOM     29  H   UNL     1       2.153  18.102  18.267  0.00  0.00    +0.000 HD
ENDBRANCH  24  28
ENDBRANCH   9  21
BRANCH   1  31
ATOM     30  C   UNL     1      -2.495  15.944  22.718  0.00  0.00    +0.000 C 
ATOM     31  C   UNL     1      -1.445  15.156  23.519  0.00  0.00    +0.000 C 
ATOM     32  C   UNL     1      -1.981  14.891  24.925  0.00  0.00    +0.000 C 
ENDBRANCH   1  31
TORSDOF 5
ENDMDL
MODEL 7
REMARK VINA RESULT:      -7.7      5.545      9.145
REMARK  Name = 
REMARK  7 active torsions:
REMARK  status: ('A' for Active; 'I' for Inactive)
REMARK    1  A    between atoms: C_1  and  C_2
REMARK    2  A    between atoms: C_2  and  C_3
REMARK    3  A    between atoms: C_2  and  C_4
REMARK    4  A    between atoms: C_9  and  C_10
REMARK    5  A    between atoms: C_15  and  C_16
REMARK    6  A    between atoms: C_23  and  C_24
REMARK    7  A    between atoms: C_27  and  O_28
REMARK                            x       y       z     vdW  Elec       q    Type
REMARK                         _______ _______ _______ _____ _____    ______ ____
ROOT
ATOM      1  C   UNL     1      -0.075  12.962  22.106  0.00  0.00    +0.000 A 
ATOM      2  N   UNL     1      -0.647  11.896  22.782  0.00  0.00    +0.000 NA
ATOM      3  C   UNL     1      -0.198  10.827  22.186  0.00  0.00    +0.000 A 
ATOM      4  C   UNL     1      -0.461   9.455  22.521  0.00  0.00    +0.000 A 
ATOM      5  N   UNL     1       0.098   8.465  21.874  0.00  0.00    +0.000 NA
ATOM      6  C   UNL     1       0.931   8.788  20.820  0.00  0.00    +0.000 A 
ATOM      7  C   UNL     1       1.183  10.053  20.423  0.00  0.00    +0.000 A 
ATOM      8  N   UNL     1       0.629  11.115  21.135  0.00  0.00    +0.000 N 
ATOM      9  C   UNL     1       0.741  12.510  21.047  0.00  0.00    +0.000 A 
ENDROOT
BRANCH   6  10
ATOM     10  C   UNL     1       1.598   7.691  20.103  0.00  0.00    +0.000 A 
ATOM     11  C   UNL     1       2.240   7.933  18.884  0.00  0.00    +0.000 A 
ATOM     12  C   UNL     1       2.914   6.899  18.234  0.00  0.00    +0.000 A 
ATOM     13  C   UNL     1       2.950   5.627  18.798  0.00  0.00    +0.000 A 
ATOM     14  F   UNL     1       3.619   4.665  18.147  0.00  0.00    +0.000 F 
ATOM     15  C   UNL     1       2.315   5.352  20.005  0.00  0.00    +0.000 A 
ATOM     16  C   UNL     1       1.632   6.399  20.655  0.00  0.00    +0.000 A 
BRANCH  15  17
ATOM     17  C   UNL     1       2.363   3.984  20.617  0.00  0.00    +0.000 C 
ATOM     18  F   UNL     1       3.528   3.306  20.437  0.00  0.00    +0.000 F 
ATOM     19  F   UNL     1       2.171   4.028  21.968  0.00  0.00    +0.000 F 
ATOM     20  F   UNL     1       1.383   3.168  20.137  0.00  0.00    +0.000 F 
ENDBRANCH  15  17
ENDBRANCH   6  10
BRANCH   9  21
ATOM     21  C   UNL     1       1.619  13.201  20.060  0.00  0.00    +0.000 A 
ATOM     22  C   UNL     1       1.376  12.998  18.680  0.00  0.00    +0.000 A 
ATOM     23  C   UNL     1       2.067  13.701  17.683  0.00  0.00    +0.000 A 
ATOM     24  C   UNL     1       3.095  14.552  18.045  0.00  0.00    +0.000 A 
ATOM     25  C   UNL     1       3.424  14.719  19.380  0.00  0.00    +0.000 A 
ATOM     26  C   UNL     1       2.669  14.087  20.383  0.00  0.00    +0.000 A 
ATOM     27 CL   UNL     1       3.070  14.569  21.990  0.00  0.00    +0.000 Cl
BRANCH  24  28
ATOM     28  O   UNL     1       3.801  15.261  17.123  0.00  0.00    +0.000 OA
ATOM     29  H   UNL     1       4.546  15.707  17.559  0.00  0.00    +0.000 HD
ENDBRANCH  24  28
ENDBRANCH   9  21
BRANCH   1  31
ATOM     30  C   UNL     1      -1.027  15.248  21.516  0.00  0.00    +0.000 C 
ATOM     31  C   UNL     1      -0.416  14.350  22.606  0.00  0.00    +0.000 C 
ATOM     32  C   UNL     1      -1.340  14.339  23.822  0.00  0.00    +0.000 C 
ENDBRANCH   1  31
TORSDOF 5
ENDMDL
MODEL 8
REMARK VINA RESULT:      -7.6      1.285      2.270
REMARK  Name = 
REMARK  7 active torsions:
REMARK  status: ('A' for Active; 'I' for Inactive)
REMARK    1  A    between atoms: C_1  and  C_2
REMARK    2  A    between atoms: C_2  and  C_3
REMARK    3  A    between atoms: C_2  and  C_4
REMARK    4  A    between atoms: C_9  and  C_10
REMARK    5  A    between atoms: C_15  and  C_16
REMARK    6  A    between atoms: C_23  and  C_24
REMARK    7  A    between atoms: C_27  and  O_28
REMARK                            x       y       z     vdW  Elec       q    Type
REMARK                         _______ _______ _______ _____ _____    ______ ____
ROOT
ATOM      1  C   UNL     1       4.527   5.304  17.457  0.00  0.00    +0.000 A 
ATOM      2  N   UNL     1       4.681   6.510  16.793  0.00  0.00    +0.000 NA
ATOM      3  C   UNL     1       3.788   7.307  17.312  0.00  0.00    +0.000 A 
ATOM      4  C   UNL     1       3.552   8.689  16.999  0.00  0.00    +0.000 A 
ATOM      5  N   UNL     1       2.655   9.399  17.634  0.00  0.00    +0.000 NA
ATOM      6  C   UNL     1       1.909   8.756  18.603  0.00  0.00    +0.000 A 
ATOM      7  C   UNL     1       2.047   7.451  18.913  0.00  0.00    +0.000 A 
ATOM      8  N   UNL     1       3.031   6.698  18.274  0.00  0.00    +0.000 N 
ATOM      9  C   UNL     1       3.485   5.377  18.406  0.00  0.00    +0.000 A 
ENDROOT
BRANCH   6  10
ATOM     10  C   UNL     1       0.921   9.546  19.354  0.00  0.00    +0.000 A 
ATOM     11  C   UNL     1       0.143  10.507  18.700  0.00  0.00    +0.000 A 
ATOM     12  C   UNL     1      -0.826  11.217  19.408  0.00  0.00    +0.000 A 
ATOM     13  C   UNL     1      -1.022  10.969  20.764  0.00  0.00    +0.000 A 
ATOM     14  F   UNL     1      -1.973  11.664  21.403  0.00  0.00    +0.000 F 
ATOM     15  C   UNL     1      -0.259  10.025  21.444  0.00  0.00    +0.000 A 
ATOM     16  C   UNL     1       0.722   9.315  20.726  0.00  0.00    +0.000 A 
BRANCH  15  17
ATOM     17  C   UNL     1      -0.477   9.751  22.902  0.00  0.00    +0.000 C 
ATOM     18  F   UNL     1      -1.195  10.694  23.570  0.00  0.00    +0.000 F 
ATOM     19  F   UNL     1      -1.143   8.576  23.102  0.00  0.00    +0.000 F 
ATOM     20  F   UNL     1       0.694   9.626  23.587  0.00  0.00    +0.000 F 
ENDBRANCH  15  17
ENDBRANCH   6  10
BRANCH   9  21
ATOM     21  C   UNL     1       2.942   4.420  19.412  0.00  0.00    +0.000 A 
ATOM     22  C   UNL     1       2.844   4.840  20.760  0.00  0.00    +0.000 A 
ATOM     23  C   UNL     1       2.232   4.056  21.749  0.00  0.00    +0.000 A 
ATOM     24  C   UNL     1       1.795   2.784  21.429  0.00  0.00    +0.000 A 
ATOM     25  C   UNL     1       1.947   2.299  20.141  0.00  0.00    +0.000 A 
ATOM     26  C   UNL     1       2.473   3.120  19.129  0.00  0.00    +0.000 A 
ATOM     27 CL   UNL     1       2.392   2.442  17.544  0.00  0.00    +0.000 Cl
BRANCH  24  28
ATOM     28  O   UNL     1       1.194   1.977  22.346  0.00  0.00    +0.000 OA
ATOM     29  H   UNL     1       1.849   1.690  23.004  0.00  0.00    +0.000 HD
ENDBRANCH  24  28
ENDBRANCH   9  21
BRANCH   1  31
ATOM     30  C   UNL     1       5.479   3.921  15.544  0.00  0.00    +0.000 C 
ATOM     31  C   UNL     1       5.463   4.182  17.060  0.00  0.00    +0.000 C 
ATOM     32  C   UNL     1       6.895   4.395  17.547  0.00  0.00    +0.000 C 
ENDBRANCH   1  31
TORSDOF 5
ENDMDL
MODEL 9
REMARK VINA RESULT:      -7.5      5.389      7.352
REMARK  Name = 
REMARK  7 active torsions:
REMARK  status: ('A' for Active; 'I' for Inactive)
REMARK    1  A    between atoms: C_1  and  C_2
REMARK    2  A    between atoms: C_2  and  C_3
REMARK    3  A    between atoms: C_2  and  C_4
REMARK    4  A    between atoms: C_9  and  C_10
REMARK    5  A    between atoms: C_15  and  C_16
REMARK    6  A    between atoms: C_23  and  C_24
REMARK    7  A    between atoms: C_27  and  O_28
REMARK                            x       y       z     vdW  Elec       q    Type
REMARK                         _______ _______ _______ _____ _____    ______ ____
ROOT
ATOM      1  C   UNL     1      -1.233  11.251  18.361  0.00  0.00    +0.000 A 
ATOM      2  N   UNL     1      -1.426  12.619  18.246  0.00  0.00    +0.000 NA
ATOM      3  C   UNL     1      -0.328  13.162  18.695  0.00  0.00    +0.000 A 
ATOM      4  C   UNL     1       0.001  14.558  18.762  0.00  0.00    +0.000 A 
ATOM      5  N   UNL     1       1.166  14.975  19.185  0.00  0.00    +0.000 NA
ATOM      6  C   UNL     1       2.067  14.016  19.607  0.00  0.00    +0.000 A 
ATOM      7  C   UNL     1       1.804  12.693  19.615  0.00  0.00    +0.000 A 
ATOM      8  N   UNL     1       0.583  12.236  19.123  0.00  0.00    +0.000 N 
ATOM      9  C   UNL     1       0.030  10.963  18.919  0.00  0.00    +0.000 A 
ENDROOT
BRANCH   6  10
ATOM     10  C   UNL     1       3.396  14.462  20.053  0.00  0.00    +0.000 A 
ATOM     11  C   UNL     1       3.671  14.600  21.417  0.00  0.00    +0.000 A 
ATOM     12  C   UNL     1       4.949  14.974  21.835  0.00  0.00    +0.000 A 
ATOM     13  C   UNL     1       5.950  15.209  20.896  0.00  0.00    +0.000 A 
ATOM     14  F   UNL     1       7.166  15.553  21.340  0.00  0.00    +0.000 F 
ATOM     15  C   UNL     1       5.704  15.086  19.531  0.00  0.00    +0.000 A 
ATOM     16  C   UNL     1       4.412  14.713  19.115  0.00  0.00    +0.000 A 
BRANCH  15  17
ATOM     17  C   UNL     1       6.785  15.329  18.521  0.00  0.00    +0.000 C 
ATOM     18  F   UNL     1       7.959  14.685  18.758  0.00  0.00    +0.000 F 
ATOM     19  F   UNL     1       6.403  14.941  17.269  0.00  0.00    +0.000 F 
ATOM     20  F   UNL     1       7.104  16.649  18.410  0.00  0.00    +0.000 F 
ENDBRANCH  15  17
ENDBRANCH   6  10
BRANCH   9  21
ATOM     21  C   UNL     1       0.763   9.696  19.203  0.00  0.00    +0.000 A 
ATOM     22  C   UNL     1       1.473   9.074  18.149  0.00  0.00    +0.000 A 
ATOM     23  C   UNL     1       2.290   7.953  18.352  0.00  0.00    +0.000 A 
ATOM     24  C   UNL     1       2.333   7.364  19.602  0.00  0.00    +0.000 A 
ATOM     25  C   UNL     1       1.588   7.890  20.645  0.00  0.00    +0.000 A 
ATOM     26  C   UNL     1       0.844   9.068  20.464  0.00  0.00    +0.000 A 
ATOM     27 CL   UNL     1       0.154   9.706  21.912  0.00  0.00    +0.000 Cl
BRANCH  24  28
ATOM     28  O   UNL     1       3.108   6.275  19.860  0.00  0.00    +0.000 OA
ATOM     29  H   UNL     1       2.787   5.833  20.663  0.00  0.00    +0.000 HD
ENDBRANCH  24  28
ENDBRANCH   9  21
BRANCH   1  31
ATOM     30  C   UNL     1      -3.745  11.027  18.012  0.00  0.00    +0.000 C 
ATOM     31  C   UNL     1      -2.364  10.361  17.889  0.00  0.00    +0.000 C 
ATOM     32  C   UNL     1      -2.174   9.859  16.459  0.00  0.00    +0.000 C 
ENDBRANCH   1  31
TORSDOF 5
ENDMDL
