MODEL 1
REMARK VINA RESULT:      -8.1      0.000      0.000
REMARK  Name = 
REMARK  5 active torsions:
REMARK  status: ('A' for Active; 'I' for Inactive)
REMARK    1  A    between atoms: C_1  and  C_2
REMARK    2  A    between atoms: C_7  and  C_8
REMARK    3  A    between atoms: C_8  and  O_9
REMARK    4  A    between atoms: O_9  and  C_10
REMARK    5  A    between atoms: C_13  and  C_14
REMARK                            x       y       z     vdW  Elec       q    Type
REMARK                         _______ _______ _______ _____ _____    ______ ____
ROOT
ATOM      1  C   UNL     1       5.195   5.433  18.157  0.00  0.00    +0.000 A 
ATOM      2  C   UNL     1       4.634   6.077  17.055  0.00  0.00    +0.000 A 
ATOM      3  C   UNL     1       5.160   5.873  15.779  0.00  0.00    +0.000 A 
ATOM      4  C   UNL     1       6.269   5.039  15.585  0.00  0.00    +0.000 A 
ATOM      5  C   UNL     1       6.850   4.421  16.702  0.00  0.00    +0.000 A 
ATOM      6  C   UNL     1       6.319   4.624  17.980  0.00  0.00    +0.000 A 
ENDROOT
BRANCH   4   7
ATOM      7  C   UNL     1       6.794   4.839  14.242  0.00  0.00    +0.000 A 
ATOM      8  N   UNL     1       6.287   3.881  13.388  0.00  0.00    +0.000 NA
ATOM      9  N   UNL     1       6.980   3.964  12.264  0.00  0.00    +0.000 NA
ATOM     10  N   UNL     1       7.861   4.948  12.486  0.00  0.00    +0.000 N 
ATOM     11  N   UNL     1       7.804   5.532  13.692  0.00  0.00    +0.000 NA
ATOM     12  H   UNL     1       8.529   5.231  11.777  0.00  0.00    +0.000 HD
ENDBRANCH   4   7
BRANCH   1  13
ATOM     13  O   UNL     1       4.728   5.528  19.440  0.00  0.00    +0.000 OA
BRANCH  13  14
ATOM     14  C   UNL     1       3.355   5.908  19.556  0.00  0.00    +0.000 C 
BRANCH  14  21
ATOM     15  C   UNL     1       1.611   4.425  17.613  0.00  0.00    +0.000 C 
ATOM     16  C   UNL     1       1.723   4.008  19.054  0.00  0.00    +0.000 A 
ATOM     17  C   UNL     1       0.982   2.906  19.507  0.00  0.00    +0.000 A 
ATOM     18  C   UNL     1       1.052   2.493  20.837  0.00  0.00    +0.000 A 
ATOM     19  C   UNL     1       1.868   3.173  21.735  0.00  0.00    +0.000 A 
ATOM     20  C   UNL     1       2.611   4.269  21.302  0.00  0.00    +0.000 A 
ATOM     21  C   UNL     1       2.540   4.706  19.969  0.00  0.00    +0.000 A 
ENDBRANCH  14  21
ENDBRANCH  13  14
ENDBRANCH   1  13
TORSDOF 4
ENDMDL
MODEL 2
REMARK VINA RESULT:      -8.1      0.261      1.374
REMARK  Name = 
REMARK  5 active torsions:
REMARK  status: ('A' for Active; 'I' for Inactive)
REMARK    1  A    between atoms: C_1  and  C_2
REMARK    2  A    between atoms: C_7  and  C_8
REMARK    3  A    between atoms: C_8  and  O_9
REMARK    4  A    between atoms: O_9  and  C_10
REMARK    5  A    between atoms: C_13  and  C_14
REMARK                            x       y       z     vdW  Elec       q    Type
REMARK                         _______ _______ _______ _____ _____    ______ ____
ROOT
ATOM      1  C   UNL     1       5.018   5.524  18.140  0.00  0.00    +0.000 A 
ATOM      2  C   UNL     1       5.900   4.466  17.929  0.00  0.00    +0.000 A 
ATOM      3  C   UNL     1       6.434   4.239  16.659  0.00  0.00    +0.000 A 
ATOM      4  C   UNL     1       6.078   5.053  15.576  0.00  0.00    +0.000 A 
ATOM      5  C   UNL     1       5.163   6.094  15.788  0.00  0.00    +0.000 A 
ATOM      6  C   UNL     1       4.631   6.321  17.062  0.00  0.00    +0.000 A 
ENDROOT
BRANCH   4   7
ATOM      7  C   UNL     1       6.655   4.798  14.264  0.00  0.00    +0.000 A 
ATOM      8  N   UNL     1       7.737   5.506  13.784  0.00  0.00    +0.000 NA
ATOM      9  N   UNL     1       8.004   5.030  12.579  0.00  0.00    +0.000 NA
ATOM     10  N   UNL     1       7.085   4.076  12.386  0.00  0.00    +0.000 N 
ATOM     11  N   UNL     1       6.215   3.880  13.387  0.00  0.00    +0.000 NA
ATOM     12  H   UNL     1       7.056   3.534  11.528  0.00  0.00    +0.000 HD
ENDBRANCH   4   7
BRANCH   1  13
ATOM     13  O   UNL     1       4.475   5.860  19.352  0.00  0.00    +0.000 OA
BRANCH  13  14
ATOM     14  C   UNL     1       3.063   6.079  19.340  0.00  0.00    +0.000 C 
BRANCH  14  21
ATOM     15  C   UNL     1       1.458   4.391  17.444  0.00  0.00    +0.000 C 
ATOM     16  C   UNL     1       1.610   4.024  18.895  0.00  0.00    +0.000 A 
ATOM     17  C   UNL     1       0.973   2.873  19.380  0.00  0.00    +0.000 A 
ATOM     18  C   UNL     1       1.083   2.503  20.721  0.00  0.00    +0.000 A 
ATOM     19  C   UNL     1       1.835   3.279  21.597  0.00  0.00    +0.000 A 
ATOM     20  C   UNL     1       2.475   4.426  21.132  0.00  0.00    +0.000 A 
ATOM     21  C   UNL     1       2.361   4.819  19.788  0.00  0.00    +0.000 A 
ENDBRANCH  14  21
ENDBRANCH  13  14
ENDBRANCH   1  13
TORSDOF 4
ENDMDL
MODEL 3
REMARK VINA RESULT:      -7.8      2.954      3.881
REMARK  Name = 
REMARK  5 active torsions:
REMARK  status: ('A' for Active; 'I' for Inactive)
REMARK    1  A    between atoms: C_1  and  C_2
REMARK    2  A    between atoms: C_7  and  C_8
REMARK    3  A    between atoms: C_8  and  O_9
REMARK    4  A    between atoms: O_9  and  C_10
REMARK    5  A    between atoms: C_13  and  C_14
REMARK                            x       y       z     vdW  Elec       q    Type
REMARK                         _______ _______ _______ _____ _____    ______ ____
ROOT
ATOM      1  C   UNL     1       3.716   4.043  16.968  0.00  0.00    +0.000 A 
ATOM      2  C   UNL     1       5.019   3.773  16.550  0.00  0.00    +0.000 A 
ATOM      3  C   UNL     1       6.053   4.655  16.864  0.00  0.00    +0.000 A 
ATOM      4  C   UNL     1       5.801   5.832  17.581  0.00  0.00    +0.000 A 
ATOM      5  C   UNL     1       4.483   6.115  17.968  0.00  0.00    +0.000 A 
ATOM      6  C   UNL     1       3.447   5.228  17.655  0.00  0.00    +0.000 A 
ENDROOT
BRANCH   4   7
ATOM      7  C   UNL     1       6.900   6.732  17.900  0.00  0.00    +0.000 A 
ATOM      8  N   UNL     1       7.105   7.914  17.220  0.00  0.00    +0.000 NA
ATOM      9  N   UNL     1       8.174   8.483  17.753  0.00  0.00    +0.000 NA
ATOM     10  N   UNL     1       8.562   7.633  18.711  0.00  0.00    +0.000 N 
ATOM     11  N   UNL     1       7.821   6.525  18.857  0.00  0.00    +0.000 NA
ATOM     12  H   UNL     1       9.373   7.824  19.292  0.00  0.00    +0.000 HD
ENDBRANCH   4   7
BRANCH   1  13
ATOM     13  O   UNL     1       2.640   3.224  16.753  0.00  0.00    +0.000 OA
BRANCH  13  14
ATOM     14  C   UNL     1       2.606   2.049  17.566  0.00  0.00    +0.000 C 
BRANCH  14  21
ATOM     15  C   UNL     1       4.617   1.899  19.791  0.00  0.00    +0.000 C 
ATOM     16  C   UNL     1       3.208   2.369  20.029  0.00  0.00    +0.000 A 
ATOM     17  C   UNL     1       2.817   2.733  21.326  0.00  0.00    +0.000 A 
ATOM     18  C   UNL     1       1.517   3.166  21.589  0.00  0.00    +0.000 A 
ATOM     19  C   UNL     1       0.589   3.246  20.556  0.00  0.00    +0.000 A 
ATOM     20  C   UNL     1       0.960   2.888  19.261  0.00  0.00    +0.000 A 
ATOM     21  C   UNL     1       2.261   2.436  18.984  0.00  0.00    +0.000 A 
ENDBRANCH  14  21
ENDBRANCH  13  14
ENDBRANCH   1  13
TORSDOF 4
ENDMDL
MODEL 4
REMARK VINA RESULT:      -7.5      0.995      1.565
REMARK  Name = 
REMARK  5 active torsions:
REMARK  status: ('A' for Active; 'I' for Inactive)
REMARK    1  A    between atoms: C_1  and  C_2
REMARK    2  A    between atoms: C_7  and  C_8
REMARK    3  A    between atoms: C_8  and  O_9
REMARK    4  A    between atoms: O_9  and  C_10
REMARK    5  A    between atoms: C_13  and  C_14
REMARK                            x       y       z     vdW  Elec       q    Type
REMARK                         _______ _______ _______ _____ _____    ______ ____
ROOT
ATOM      1  C   UNL     1       5.243   5.362  18.066  0.00  0.00    +0.000 A 
ATOM      2  C   UNL     1       4.620   5.944  16.963  0.00  0.00    +0.000 A 
ATOM      3  C   UNL     1       5.142   5.755  15.682  0.00  0.00    +0.000 A 
ATOM      4  C   UNL     1       6.306   5.000  15.485  0.00  0.00    +0.000 A 
ATOM      5  C   UNL     1       6.946   4.446  16.603  0.00  0.00    +0.000 A 
ATOM      6  C   UNL     1       6.420   4.635  17.886  0.00  0.00    +0.000 A 
ENDROOT
BRANCH   4   7
ATOM      7  C   UNL     1       6.824   4.814  14.138  0.00  0.00    +0.000 A 
ATOM      8  N   UNL     1       6.320   3.859  13.280  0.00  0.00    +0.000 NA
ATOM      9  N   UNL     1       7.006   3.955  12.153  0.00  0.00    +0.000 NA
ATOM     10  N   UNL     1       7.880   4.944  12.377  0.00  0.00    +0.000 N 
ATOM     11  N   UNL     1       7.826   5.519  13.587  0.00  0.00    +0.000 NA
ATOM     12  H   UNL     1       8.542   5.237  11.666  0.00  0.00    +0.000 HD
ENDBRANCH   4   7
BRANCH   1  13
ATOM     13  O   UNL     1       4.788   5.447  19.355  0.00  0.00    +0.000 OA
BRANCH  13  14
ATOM     14  C   UNL     1       4.596   4.191  20.010  0.00  0.00    +0.000 C 
BRANCH  14  21
ATOM     15  C   UNL     1       1.945   5.289  20.897  0.00  0.00    +0.000 C 
ATOM     16  C   UNL     1       2.042   4.109  19.970  0.00  0.00    +0.000 A 
ATOM     17  C   UNL     1       0.865   3.494  19.519  0.00  0.00    +0.000 A 
ATOM     18  C   UNL     1       0.912   2.392  18.665  0.00  0.00    +0.000 A 
ATOM     19  C   UNL     1       2.140   1.891  18.245  0.00  0.00    +0.000 A 
ATOM     20  C   UNL     1       3.320   2.489  18.683  0.00  0.00    +0.000 A 
ATOM     21  C   UNL     1       3.288   3.590  19.555  0.00  0.00    +0.000 A 
ENDBRANCH  14  21
ENDBRANCH  13  14
ENDBRANCH   1  13
TORSDOF 4
ENDMDL
MODEL 5
REMARK VINA RESULT:      -7.4      0.671      1.704
REMARK  Name = 
REMARK  5 active torsions:
REMARK  status: ('A' for Active; 'I' for Inactive)
REMARK    1  A    between atoms: C_1  and  C_2
REMARK    2  A    between atoms: C_7  and  C_8
REMARK    3  A    between atoms: C_8  and  O_9
REMARK    4  A    between atoms: O_9  and  C_10
REMARK    5  A    between atoms: C_13  and  C_14
REMARK                            x       y       z     vdW  Elec       q    Type
REMARK                         _______ _______ _______ _____ _____    ______ ____
ROOT
ATOM      1  C   UNL     1       4.821   5.755  18.312  0.00  0.00    +0.000 A 
ATOM      2  C   UNL     1       4.737   6.679  17.271  0.00  0.00    +0.000 A 
ATOM      3  C   UNL     1       5.282   6.381  16.022  0.00  0.00    +0.000 A 
ATOM      4  C   UNL     1       5.940   5.165  15.798  0.00  0.00    +0.000 A 
ATOM      5  C   UNL     1       6.052   4.254  16.858  0.00  0.00    +0.000 A 
ATOM      6  C   UNL     1       5.502   4.554  18.110  0.00  0.00    +0.000 A 
ENDROOT
BRANCH   4   7
ATOM      7  C   UNL     1       6.494   4.877  14.483  0.00  0.00    +0.000 A 
ATOM      8  N   UNL     1       5.945   3.932  13.642  0.00  0.00    +0.000 NA
ATOM      9  N   UNL     1       6.681   3.921  12.543  0.00  0.00    +0.000 NA
ATOM     10  N   UNL     1       7.627   4.842  12.765  0.00  0.00    +0.000 N 
ATOM     11  N   UNL     1       7.574   5.472  13.948  0.00  0.00    +0.000 NA
ATOM     12  H   UNL     1       8.340   5.047  12.073  0.00  0.00    +0.000 HD
ENDBRANCH   4   7
BRANCH   1  13
ATOM     13  O   UNL     1       4.281   5.929  19.558  0.00  0.00    +0.000 OA
BRANCH  13  14
ATOM     14  C   UNL     1       2.867   6.134  19.579  0.00  0.00    +0.000 C 
BRANCH  14  21
ATOM     15  C   UNL     1       2.293   4.125  21.736  0.00  0.00    +0.000 C 
ATOM     16  C   UNL     1       1.899   3.883  20.305  0.00  0.00    +0.000 A 
ATOM     17  C   UNL     1       1.261   2.681  19.964  0.00  0.00    +0.000 A 
ATOM     18  C   UNL     1       0.887   2.416  18.647  0.00  0.00    +0.000 A 
ATOM     19  C   UNL     1       1.142   3.351  17.649  0.00  0.00    +0.000 A 
ATOM     20  C   UNL     1       1.776   4.550  17.970  0.00  0.00    +0.000 A 
ATOM     21  C   UNL     1       2.171   4.825  19.289  0.00  0.00    +0.000 A 
ENDBRANCH  14  21
ENDBRANCH  13  14
ENDBRANCH   1  13
TORSDOF 4
ENDMDL
MODEL 6
REMARK VINA RESULT:      -7.4      1.008      1.692
REMARK  Name = 
REMARK  5 active torsions:
REMARK  status: ('A' for Active; 'I' for Inactive)
REMARK    1  A    between atoms: C_1  and  C_2
REMARK    2  A    between atoms: C_7  and  C_8
REMARK    3  A    between atoms: C_8  and  O_9
REMARK    4  A    between atoms: O_9  and  C_10
REMARK    5  A    between atoms: C_13  and  C_14
REMARK                            x       y       z     vdW  Elec       q    Type
REMARK                         _______ _______ _______ _____ _____    ______ ____
ROOT
ATOM      1  C   UNL     1       3.960   6.197  18.947  0.00  0.00    +0.000 A 
ATOM      2  C   UNL     1       4.870   5.141  18.961  0.00  0.00    +0.000 A 
ATOM      3  C   UNL     1       5.636   4.858  17.830  0.00  0.00    +0.000 A 
ATOM      4  C   UNL     1       5.490   5.612  16.658  0.00  0.00    +0.000 A 
ATOM      5  C   UNL     1       4.549   6.651  16.638  0.00  0.00    +0.000 A 
ATOM      6  C   UNL     1       3.784   6.935  17.775  0.00  0.00    +0.000 A 
ENDROOT
BRANCH   4   7
ATOM      7  C   UNL     1       6.306   5.299  15.494  0.00  0.00    +0.000 A 
ATOM      8  N   UNL     1       5.849   4.500  14.467  0.00  0.00    +0.000 NA
ATOM      9  N   UNL     1       6.826   4.419  13.579  0.00  0.00    +0.000 NA
ATOM     10  N   UNL     1       7.814   5.156  14.101  0.00  0.00    +0.000 N 
ATOM     11  N   UNL     1       7.563   5.728  15.287  0.00  0.00    +0.000 NA
ATOM     12  H   UNL     1       8.700   5.271  13.619  0.00  0.00    +0.000 HD
ENDBRANCH   4   7
BRANCH   1  13
ATOM     13  O   UNL     1       3.196   6.586  20.014  0.00  0.00    +0.000 OA
BRANCH  13  14
ATOM     14  C   UNL     1       1.825   6.188  19.951  0.00  0.00    +0.000 C 
BRANCH  14  21
ATOM     15  C   UNL     1       1.202   4.435  17.595  0.00  0.00    +0.000 C 
ATOM     16  C   UNL     1       1.448   3.862  18.964  0.00  0.00    +0.000 A 
ATOM     17  C   UNL     1       1.370   2.474  19.150  0.00  0.00    +0.000 A 
ATOM     18  C   UNL     1       1.584   1.905  20.405  0.00  0.00    +0.000 A 
ATOM     19  C   UNL     1       1.884   2.716  21.494  0.00  0.00    +0.000 A 
ATOM     20  C   UNL     1       1.965   4.097  21.328  0.00  0.00    +0.000 A 
ATOM     21  C   UNL     1       1.738   4.686  20.073  0.00  0.00    +0.000 A 
ENDBRANCH  14  21
ENDBRANCH  13  14
ENDBRANCH   1  13
TORSDOF 4
ENDMDL
MODEL 7
REMARK VINA RESULT:      -7.4      0.674      2.134
REMARK  Name = 
REMARK  5 active torsions:
REMARK  status: ('A' for Active; 'I' for Inactive)
REMARK    1  A    between atoms: C_1  and  C_2
REMARK    2  A    between atoms: C_7  and  C_8
REMARK    3  A    between atoms: C_8  and  O_9
REMARK    4  A    between atoms: O_9  and  C_10
REMARK    5  A    between atoms: C_13  and  C_14
REMARK                            x       y       z     vdW  Elec       q    Type
REMARK                         _______ _______ _______ _____ _____    ______ ____
ROOT
ATOM      1  C   UNL     1       4.799   5.549  18.250  0.00  0.00    +0.000 A 
ATOM      2  C   UNL     1       5.368   4.313  17.946  0.00  0.00    +0.000 A 
ATOM      3  C   UNL     1       5.916   4.084  16.684  0.00  0.00    +0.000 A 
ATOM      4  C   UNL     1       5.887   5.078  15.697  0.00  0.00    +0.000 A 
ATOM      5  C   UNL     1       5.282   6.307  15.998  0.00  0.00    +0.000 A 
ATOM      6  C   UNL     1       4.736   6.536  17.265  0.00  0.00    +0.000 A 
ENDROOT
BRANCH   4   7
ATOM      7  C   UNL     1       6.472   4.814  14.390  0.00  0.00    +0.000 A 
ATOM      8  N   UNL     1       7.589   5.483  13.935  0.00  0.00    +0.000 NA
ATOM      9  N   UNL     1       7.854   5.010  12.728  0.00  0.00    +0.000 NA
ATOM     10  N   UNL     1       6.901   4.096  12.511  0.00  0.00    +0.000 N 
ATOM     11  N   UNL     1       6.008   3.924  13.497  0.00  0.00    +0.000 NA
ATOM     12  H   UNL     1       6.862   3.565  11.646  0.00  0.00    +0.000 HD
ENDBRANCH   4   7
BRANCH   1  13
ATOM     13  O   UNL     1       4.277   5.891  19.469  0.00  0.00    +0.000 OA
BRANCH  13  14
ATOM     14  C   UNL     1       2.865   6.112  19.479  0.00  0.00    +0.000 C 
BRANCH  14  21
ATOM     15  C   UNL     1       2.372   4.170  21.716  0.00  0.00    +0.000 C 
ATOM     16  C   UNL     1       1.922   3.886  20.309  0.00  0.00    +0.000 A 
ATOM     17  C   UNL     1       1.268   2.678  20.029  0.00  0.00    +0.000 A 
ATOM     18  C   UNL     1       0.841   2.374  18.736  0.00  0.00    +0.000 A 
ATOM     19  C   UNL     1       1.060   3.278  17.702  0.00  0.00    +0.000 A 
ATOM     20  C   UNL     1       1.708   4.485  17.961  0.00  0.00    +0.000 A 
ATOM     21  C   UNL     1       2.156   4.797  19.256  0.00  0.00    +0.000 A 
ENDBRANCH  14  21
ENDBRANCH  13  14
ENDBRANCH   1  13
TORSDOF 4
ENDMDL
MODEL 8
REMARK VINA RESULT:      -7.3      5.992      7.303
REMARK  Name = 
REMARK  5 active torsions:
REMARK  status: ('A' for Active; 'I' for Inactive)
REMARK    1  A    between atoms: C_1  and  C_2
REMARK    2  A    between atoms: C_7  and  C_8
REMARK    3  A    between atoms: C_8  and  O_9
REMARK    4  A    between atoms: O_9  and  C_10
REMARK    5  A    between atoms: C_13  and  C_14
REMARK                            x       y       z     vdW  Elec       q    Type
REMARK                         _______ _______ _______ _____ _____    ______ ____
ROOT
ATOM      1  C   UNL     1       1.972   7.779  19.827  0.00  0.00    +0.000 A 
ATOM      2  C   UNL     1       1.228   8.533  20.733  0.00  0.00    +0.000 A 
ATOM      3  C   UNL     1       0.596   9.706  20.319  0.00  0.00    +0.000 A 
ATOM      4  C   UNL     1       0.716  10.158  18.998  0.00  0.00    +0.000 A 
ATOM      5  C   UNL     1       1.495   9.414  18.100  0.00  0.00    +0.000 A 
ATOM      6  C   UNL     1       2.124   8.236  18.516  0.00  0.00    +0.000 A 
ENDROOT
BRANCH   4   7
ATOM      7  C   UNL     1       0.042  11.382  18.591  0.00  0.00    +0.000 A 
ATOM      8  N   UNL     1       0.589  12.630  18.806  0.00  0.00    +0.000 NA
ATOM      9  N   UNL     1      -0.270  13.513  18.323  0.00  0.00    +0.000 NA
ATOM     10  N   UNL     1      -1.280  12.774  17.850  0.00  0.00    +0.000 N 
ATOM     11  N   UNL     1      -1.156  11.446  17.985  0.00  0.00    +0.000 NA
ATOM     12  H   UNL     1      -2.091  13.201  17.413  0.00  0.00    +0.000 HD
ENDBRANCH   4   7
BRANCH   1  13
ATOM     13  O   UNL     1       2.591   6.593  20.118  0.00  0.00    +0.000 OA
BRANCH  13  14
ATOM     14  C   UNL     1       1.714   5.540  20.527  0.00  0.00    +0.000 C 
BRANCH  14  21
ATOM     15  C   UNL     1       1.449   2.721  21.526  0.00  0.00    +0.000 C 
ATOM     16  C   UNL     1       1.786   3.023  20.092  0.00  0.00    +0.000 A 
ATOM     17  C   UNL     1       1.997   1.962  19.200  0.00  0.00    +0.000 A 
ATOM     18  C   UNL     1       2.319   2.201  17.863  0.00  0.00    +0.000 A 
ATOM     19  C   UNL     1       2.431   3.506  17.398  0.00  0.00    +0.000 A 
ATOM     20  C   UNL     1       2.225   4.573  18.270  0.00  0.00    +0.000 A 
ATOM     21  C   UNL     1       1.914   4.348  19.622  0.00  0.00    +0.000 A 
ENDBRANCH  14  21
ENDBRANCH  13  14
ENDBRANCH   1  13
TORSDOF 4
ENDMDL
MODEL 9
REMARK VINA RESULT:      -7.3      1.035      2.056
REMARK  Name = 
REMARK  5 active torsions:
REMARK  status: ('A' for Active; 'I' for Inactive)
REMARK    1  A    between atoms: C_1  and  C_2
REMARK    2  A    between atoms: C_7  and  C_8
REMARK    3  A    between atoms: C_8  and  O_9
REMARK    4  A    between atoms: O_9  and  C_10
REMARK    5  A    between atoms: C_13  and  C_14
REMARK                            x       y       z     vdW  Elec       q    Type
REMARK                         _______ _______ _______ _____ _____    ______ ____
ROOT
ATOM      1  C   UNL     1       5.341   5.120  18.120  0.00  0.00    +0.000 A 
ATOM      2  C   UNL     1       6.628   4.642  17.877  0.00  0.00    +0.000 A 
ATOM      3  C   UNL     1       7.100   4.531  16.569  0.00  0.00    +0.000 A 
ATOM      4  C   UNL     1       6.287   4.875  15.480  0.00  0.00    +0.000 A 
ATOM      5  C   UNL     1       4.982   5.322  15.730  0.00  0.00    +0.000 A 
ATOM      6  C   UNL     1       4.511   5.435  17.043  0.00  0.00    +0.000 A 
ENDROOT
BRANCH   4   7
ATOM      7  C   UNL     1       6.807   4.754  14.126  0.00  0.00    +0.000 A 
ATOM      8  N   UNL     1       7.833   5.549  13.658  0.00  0.00    +0.000 NA
ATOM      9  N   UNL     1       8.059   5.185  12.406  0.00  0.00    +0.000 NA
ATOM     10  N   UNL     1       7.174   4.207  12.177  0.00  0.00    +0.000 N 
ATOM     11  N   UNL     1       6.364   3.890  13.197  0.00  0.00    +0.000 NA
ATOM     12  H   UNL     1       7.125   3.736  11.279  0.00  0.00    +0.000 HD
ENDBRANCH   4   7
BRANCH   1  13
ATOM     13  O   UNL     1       4.799   5.311  19.363  0.00  0.00    +0.000 OA
BRANCH  13  14
ATOM     14  C   UNL     1       4.540   4.113  20.098  0.00  0.00    +0.000 C 
BRANCH  14  21
ATOM     15  C   UNL     1       1.917   5.330  20.905  0.00  0.00    +0.000 C 
ATOM     16  C   UNL     1       1.986   4.109  20.030  0.00  0.00    +0.000 A 
ATOM     17  C   UNL     1       0.795   3.512  19.591  0.00  0.00    +0.000 A 
ATOM     18  C   UNL     1       0.817   2.374  18.785  0.00  0.00    +0.000 A 
ATOM     19  C   UNL     1       2.032   1.816  18.402  0.00  0.00    +0.000 A 
ATOM     20  C   UNL     1       3.225   2.396  18.829  0.00  0.00    +0.000 A 
ATOM     21  C   UNL     1       3.219   3.533  19.653  0.00  0.00    +0.000 A 
ENDBRANCH  14  21
ENDBRANCH  13  14
ENDBRANCH   1  13
TORSDOF 4
ENDMDL
