MODEL 1
REMARK VINA RESULT:      -8.5      0.000      0.000
REMARK  Name = 
REMARK  2 active torsions:
REMARK  status: ('A' for Active; 'I' for Inactive)
REMARK    1  A    between atoms: C_4  and  C_5
REMARK    2  A    between atoms: C_9  and  C_10
REMARK                            x       y       z     vdW  Elec       q    Type
REMARK                         _______ _______ _______ _____ _____    ______ ____
ROOT
ATOM      1  C   UNL     1       1.883   6.010  20.270  0.00  0.00    +0.000 A 
ATOM      2  C   UNL     1       1.092   4.873  20.425  0.00  0.00    +0.000 A 
ATOM      3  C   UNL     1       1.248   3.796  19.557  0.00  0.00    +0.000 A 
ATOM      4  C   UNL     1       2.208   3.848  18.542  0.00  0.00    +0.000 A 
ATOM      5  C   UNL     1       3.029   4.977  18.359  0.00  0.00    +0.000 A 
ATOM      6  C   UNL     1       2.830   6.061  19.237  0.00  0.00    +0.000 A 
ENDROOT
BRANCH   1  10
ATOM      7  O   UNL     1       1.465   9.570  22.932  0.00  0.00    +0.000 OA
ATOM      8  C   UNL     1       1.177   9.485  21.756  0.00  0.00    +0.000 C 
ATOM      9  C   UNL     1       1.287   8.316  20.844  0.00  0.00    +0.000 C 
ATOM     10  C   UNL     1       1.761   7.120  21.215  0.00  0.00    +0.000 C 
ATOM     11  O   UNL     1       0.844   8.643  19.565  0.00  0.00    +0.000 OA
ATOM     12  C   UNL     1       0.458   9.961  19.629  0.00  0.00    +0.000 A 
ATOM     13  C   UNL     1      -0.056  10.695  18.582  0.00  0.00    +0.000 A 
ATOM     14  C   UNL     1      -0.391  12.030  18.833  0.00  0.00    +0.000 A 
ATOM     15  C   UNL     1      -0.204  12.600  20.109  0.00  0.00    +0.000 A 
ATOM     16  C   UNL     1       0.316  11.841  21.162  0.00  0.00    +0.000 A 
ATOM     17  C   UNL     1       0.633  10.526  20.889  0.00  0.00    +0.000 A 
ENDBRANCH   1  10
BRANCH   5  18
ATOM     18  C   UNL     1       4.087   5.003  17.318  0.00  0.00    +0.000 A 
ATOM     19  C   UNL     1       4.563   6.211  16.773  0.00  0.00    +0.000 A 
ATOM     20  C   UNL     1       5.515   6.228  15.747  0.00  0.00    +0.000 A 
ATOM     21  C   UNL     1       6.029   5.031  15.259  0.00  0.00    +0.000 A 
ATOM     22 CL   UNL     1       7.187   5.046  13.990  0.00  0.00    +0.000 Cl
ATOM     23  C   UNL     1       5.601   3.822  15.793  0.00  0.00    +0.000 A 
ATOM     24  C   UNL     1       4.636   3.810  16.806  0.00  0.00    +0.000 A 
ENDBRANCH   5  18
TORSDOF 2
ENDMDL
MODEL 2
REMARK VINA RESULT:      -8.2      3.701      8.191
REMARK  Name = 
REMARK  2 active torsions:
REMARK  status: ('A' for Active; 'I' for Inactive)
REMARK    1  A    between atoms: C_4  and  C_5
REMARK    2  A    between atoms: C_9  and  C_10
REMARK                            x       y       z     vdW  Elec       q    Type
REMARK                         _______ _______ _______ _____ _____    ______ ____
ROOT
ATOM      1  C   UNL     1       1.719   8.516  19.099  0.00  0.00    +0.000 A 
ATOM      2  C   UNL     1       1.850   8.532  20.487  0.00  0.00    +0.000 A 
ATOM      3  C   UNL     1       0.902   9.191  21.265  0.00  0.00    +0.000 A 
ATOM      4  C   UNL     1      -0.188   9.820  20.657  0.00  0.00    +0.000 A 
ATOM      5  C   UNL     1      -0.356   9.819  19.260  0.00  0.00    +0.000 A 
ATOM      6  C   UNL     1       0.632   9.167  18.496  0.00  0.00    +0.000 A 
ENDROOT
BRANCH   1  10
ATOM      7  O   UNL     1       4.591   6.024  16.760  0.00  0.00    +0.000 OA
ATOM      8  C   UNL     1       3.719   5.641  17.511  0.00  0.00    +0.000 C 
ATOM      9  C   UNL     1       2.736   6.439  18.293  0.00  0.00    +0.000 C 
ATOM     10  C   UNL     1       2.682   7.777  18.283  0.00  0.00    +0.000 C 
ATOM     11  O   UNL     1       1.901   5.606  19.033  0.00  0.00    +0.000 OA
ATOM     12  C   UNL     1       2.310   4.323  18.754  0.00  0.00    +0.000 A 
ATOM     13  C   UNL     1       1.747   3.175  19.271  0.00  0.00    +0.000 A 
ATOM     14  C   UNL     1       2.300   1.952  18.875  0.00  0.00    +0.000 A 
ATOM     15  C   UNL     1       3.392   1.901  17.984  0.00  0.00    +0.000 A 
ATOM     16  C   UNL     1       3.949   3.075  17.467  0.00  0.00    +0.000 A 
ATOM     17  C   UNL     1       3.382   4.267  17.868  0.00  0.00    +0.000 A 
ENDBRANCH   1  10
BRANCH   5  18
ATOM     18  C   UNL     1      -1.547  10.437  18.624  0.00  0.00    +0.000 A 
ATOM     19  C   UNL     1      -2.257  11.486  19.239  0.00  0.00    +0.000 A 
ATOM     20  C   UNL     1      -3.416  12.023  18.665  0.00  0.00    +0.000 A 
ATOM     21  C   UNL     1      -3.877  11.532  17.449  0.00  0.00    +0.000 A 
ATOM     22 CL   UNL     1      -5.307  12.178  16.747  0.00  0.00    +0.000 Cl
ATOM     23  C   UNL     1      -3.186  10.516  16.801  0.00  0.00    +0.000 A 
ATOM     24  C   UNL     1      -2.039   9.971  17.387  0.00  0.00    +0.000 A 
ENDBRANCH   5  18
TORSDOF 2
ENDMDL
MODEL 3
REMARK VINA RESULT:      -7.9      3.937      8.564
REMARK  Name = 
REMARK  2 active torsions:
REMARK  status: ('A' for Active; 'I' for Inactive)
REMARK    1  A    between atoms: C_4  and  C_5
REMARK    2  A    between atoms: C_9  and  C_10
REMARK                            x       y       z     vdW  Elec       q    Type
REMARK                         _______ _______ _______ _____ _____    ______ ____
ROOT
ATOM      1  C   UNL     1       4.846   5.556  17.525  0.00  0.00    +0.000 A 
ATOM      2  C   UNL     1       4.457   4.306  18.004  0.00  0.00    +0.000 A 
ATOM      3  C   UNL     1       3.337   4.196  18.824  0.00  0.00    +0.000 A 
ATOM      4  C   UNL     1       2.595   5.334  19.151  0.00  0.00    +0.000 A 
ATOM      5  C   UNL     1       2.954   6.611  18.680  0.00  0.00    +0.000 A 
ATOM      6  C   UNL     1       4.106   6.695  17.875  0.00  0.00    +0.000 A 
ENDROOT
BRANCH   1  10
ATOM      7  O   UNL     1       8.216   5.683  14.599  0.00  0.00    +0.000 OA
ATOM      8  C   UNL     1       7.145   5.128  14.472  0.00  0.00    +0.000 C 
ATOM      9  C   UNL     1       5.996   5.076  15.416  0.00  0.00    +0.000 C 
ATOM     10  C   UNL     1       5.989   5.666  16.618  0.00  0.00    +0.000 C 
ATOM     11  O   UNL     1       4.950   4.330  14.881  0.00  0.00    +0.000 OA
ATOM     12  C   UNL     1       5.384   3.910  13.645  0.00  0.00    +0.000 A 
ATOM     13  C   UNL     1       4.656   3.143  12.761  0.00  0.00    +0.000 A 
ATOM     14  C   UNL     1       5.264   2.807  11.546  0.00  0.00    +0.000 A 
ATOM     15  C   UNL     1       6.573   3.235  11.245  0.00  0.00    +0.000 A 
ATOM     16  C   UNL     1       7.297   4.015  12.152  0.00  0.00    +0.000 A 
ATOM     17  C   UNL     1       6.673   4.337  13.339  0.00  0.00    +0.000 A 
ENDBRANCH   1  10
BRANCH   5  18
ATOM     18  C   UNL     1       2.128   7.807  18.982  0.00  0.00    +0.000 A 
ATOM     19  C   UNL     1       1.634   8.062  20.276  0.00  0.00    +0.000 A 
ATOM     20  C   UNL     1       0.804   9.157  20.541  0.00  0.00    +0.000 A 
ATOM     21  C   UNL     1       0.466  10.035  19.517  0.00  0.00    +0.000 A 
ATOM     22 CL   UNL     1      -0.565  11.372  19.835  0.00  0.00    +0.000 Cl
ATOM     23  C   UNL     1       0.957   9.828  18.234  0.00  0.00    +0.000 A 
ATOM     24  C   UNL     1       1.773   8.722  17.970  0.00  0.00    +0.000 A 
ENDBRANCH   5  18
TORSDOF 2
ENDMDL
MODEL 4
REMARK VINA RESULT:      -7.9      3.952      8.592
REMARK  Name = 
REMARK  2 active torsions:
REMARK  status: ('A' for Active; 'I' for Inactive)
REMARK    1  A    between atoms: C_4  and  C_5
REMARK    2  A    between atoms: C_9  and  C_10
REMARK                            x       y       z     vdW  Elec       q    Type
REMARK                         _______ _______ _______ _____ _____    ______ ____
ROOT
ATOM      1  C   UNL     1       4.644   5.606  17.368  0.00  0.00    +0.000 A 
ATOM      2  C   UNL     1       4.148   4.353  17.728  0.00  0.00    +0.000 A 
ATOM      3  C   UNL     1       2.990   4.260  18.493  0.00  0.00    +0.000 A 
ATOM      4  C   UNL     1       2.314   5.420  18.886  0.00  0.00    +0.000 A 
ATOM      5  C   UNL     1       2.781   6.700  18.535  0.00  0.00    +0.000 A 
ATOM      6  C   UNL     1       3.970   6.764  17.782  0.00  0.00    +0.000 A 
ENDROOT
BRANCH   1  10
ATOM      7  O   UNL     1       8.152   5.695  14.608  0.00  0.00    +0.000 OA
ATOM      8  C   UNL     1       7.091   5.131  14.440  0.00  0.00    +0.000 C 
ATOM      9  C   UNL     1       5.898   5.092  15.327  0.00  0.00    +0.000 C 
ATOM     10  C   UNL     1       5.829   5.705  16.516  0.00  0.00    +0.000 C 
ATOM     11  O   UNL     1       4.883   4.328  14.757  0.00  0.00    +0.000 OA
ATOM     12  C   UNL     1       5.379   3.887  13.553  0.00  0.00    +0.000 A 
ATOM     13  C   UNL     1       4.699   3.098  12.649  0.00  0.00    +0.000 A 
ATOM     14  C   UNL     1       5.368   2.742  11.473  0.00  0.00    +0.000 A 
ATOM     15  C   UNL     1       6.689   3.172  11.228  0.00  0.00    +0.000 A 
ATOM     16  C   UNL     1       7.363   3.973  12.154  0.00  0.00    +0.000 A 
ATOM     17  C   UNL     1       6.680   4.315  13.302  0.00  0.00    +0.000 A 
ENDBRANCH   1  10
BRANCH   5  18
ATOM     18  C   UNL     1       2.027   7.925  18.903  0.00  0.00    +0.000 A 
ATOM     19  C   UNL     1       1.735   8.929  17.960  0.00  0.00    +0.000 A 
ATOM     20  C   UNL     1       1.079  10.111  18.325  0.00  0.00    +0.000 A 
ATOM     21  C   UNL     1       0.682  10.303  19.644  0.00  0.00    +0.000 A 
ATOM     22 CL   UNL     1      -0.110  11.758  20.101  0.00  0.00    +0.000 Cl
ATOM     23  C   UNL     1       0.931   9.321  20.595  0.00  0.00    +0.000 A 
ATOM     24  C   UNL     1       1.601   8.150  20.228  0.00  0.00    +0.000 A 
ENDBRANCH   5  18
TORSDOF 2
ENDMDL
MODEL 5
REMARK VINA RESULT:      -7.9      2.563      3.603
REMARK  Name = 
REMARK  2 active torsions:
REMARK  status: ('A' for Active; 'I' for Inactive)
REMARK    1  A    between atoms: C_4  and  C_5
REMARK    2  A    between atoms: C_9  and  C_10
REMARK                            x       y       z     vdW  Elec       q    Type
REMARK                         _______ _______ _______ _____ _____    ______ ____
ROOT
ATOM      1  C   UNL     1       1.475   8.832  20.057  0.00  0.00    +0.000 A 
ATOM      2  C   UNL     1       1.550   9.677  18.950  0.00  0.00    +0.000 A 
ATOM      3  C   UNL     1       2.051   9.196  17.744  0.00  0.00    +0.000 A 
ATOM      4  C   UNL     1       2.461   7.864  17.637  0.00  0.00    +0.000 A 
ATOM      5  C   UNL     1       2.393   6.981  18.730  0.00  0.00    +0.000 A 
ATOM      6  C   UNL     1       1.906   7.502  19.945  0.00  0.00    +0.000 A 
ENDROOT
BRANCH   1  10
ATOM      7  O   UNL     1      -0.414  10.529  23.729  0.00  0.00    +0.000 OA
ATOM      8  C   UNL     1      -0.669  10.795  22.573  0.00  0.00    +0.000 C 
ATOM      9  C   UNL     1      -0.074  10.241  21.328  0.00  0.00    +0.000 C 
ATOM     10  C   UNL     1       0.897   9.319  21.309  0.00  0.00    +0.000 C 
ATOM     11  O   UNL     1      -0.655  10.819  20.203  0.00  0.00    +0.000 OA
ATOM     12  C   UNL     1      -1.589  11.709  20.679  0.00  0.00    +0.000 A 
ATOM     13  C   UNL     1      -2.409  12.499  19.902  0.00  0.00    +0.000 A 
ATOM     14  C   UNL     1      -3.299  13.352  20.565  0.00  0.00    +0.000 A 
ATOM     15  C   UNL     1      -3.349  13.400  21.974  0.00  0.00    +0.000 A 
ATOM     16  C   UNL     1      -2.512  12.589  22.747  0.00  0.00    +0.000 A 
ATOM     17  C   UNL     1      -1.648  11.754  22.069  0.00  0.00    +0.000 A 
ENDBRANCH   1  10
BRANCH   5  18
ATOM     18  C   UNL     1       2.773   5.552  18.595  0.00  0.00    +0.000 A 
ATOM     19  C   UNL     1       2.017   4.652  17.819  0.00  0.00    +0.000 A 
ATOM     20  C   UNL     1       2.344   3.293  17.745  0.00  0.00    +0.000 A 
ATOM     21  C   UNL     1       3.451   2.809  18.433  0.00  0.00    +0.000 A 
ATOM     22 CL   UNL     1       3.848   1.138  18.357  0.00  0.00    +0.000 Cl
ATOM     23  C   UNL     1       4.234   3.673  19.187  0.00  0.00    +0.000 A 
ATOM     24  C   UNL     1       3.893   5.028  19.271  0.00  0.00    +0.000 A 
ENDBRANCH   5  18
TORSDOF 2
ENDMDL
MODEL 6
REMARK VINA RESULT:      -7.7      1.712      2.797
REMARK  Name = 
REMARK  2 active torsions:
REMARK  status: ('A' for Active; 'I' for Inactive)
REMARK    1  A    between atoms: C_4  and  C_5
REMARK    2  A    between atoms: C_9  and  C_10
REMARK                            x       y       z     vdW  Elec       q    Type
REMARK                         _______ _______ _______ _____ _____    ______ ____
ROOT
ATOM      1  C   UNL     1       1.675   8.580  19.129  0.00  0.00    +0.000 A 
ATOM      2  C   UNL     1       1.446   7.999  20.375  0.00  0.00    +0.000 A 
ATOM      3  C   UNL     1       1.969   6.741  20.661  0.00  0.00    +0.000 A 
ATOM      4  C   UNL     1       2.738   6.070  19.706  0.00  0.00    +0.000 A 
ATOM      5  C   UNL     1       2.996   6.628  18.440  0.00  0.00    +0.000 A 
ATOM      6  C   UNL     1       2.431   7.890  18.170  0.00  0.00    +0.000 A 
ENDROOT
BRANCH   1  10
ATOM      7  O   UNL     1      -0.025  12.659  18.498  0.00  0.00    +0.000 OA
ATOM      8  C   UNL     1      -0.130  11.957  19.481  0.00  0.00    +0.000 C 
ATOM      9  C   UNL     1       0.433  10.603  19.733  0.00  0.00    +0.000 C 
ATOM     10  C   UNL     1       1.174   9.925  18.847  0.00  0.00    +0.000 C 
ATOM     11  O   UNL     1       0.076  10.146  20.998  0.00  0.00    +0.000 OA
ATOM     12  C   UNL     1      -0.684  11.147  21.556  0.00  0.00    +0.000 A 
ATOM     13  C   UNL     1      -1.243  11.118  22.816  0.00  0.00    +0.000 A 
ATOM     14  C   UNL     1      -1.992  12.231  23.215  0.00  0.00    +0.000 A 
ATOM     15  C   UNL     1      -2.168  13.336  22.357  0.00  0.00    +0.000 A 
ATOM     16  C   UNL     1      -1.591  13.351  21.082  0.00  0.00    +0.000 A 
ATOM     17  C   UNL     1      -0.854  12.244  20.716  0.00  0.00    +0.000 A 
ENDBRANCH   1  10
BRANCH   5  18
ATOM     18  C   UNL     1       3.863   5.937  17.452  0.00  0.00    +0.000 A 
ATOM     19  C   UNL     1       4.672   6.650  16.547  0.00  0.00    +0.000 A 
ATOM     20  C   UNL     1       5.439   5.995  15.576  0.00  0.00    +0.000 A 
ATOM     21  C   UNL     1       5.428   4.607  15.505  0.00  0.00    +0.000 A 
ATOM     22 CL   UNL     1       6.357   3.799  14.306  0.00  0.00    +0.000 Cl
ATOM     23  C   UNL     1       4.661   3.871  16.400  0.00  0.00    +0.000 A 
ATOM     24  C   UNL     1       3.883   4.531  17.357  0.00  0.00    +0.000 A 
ENDBRANCH   5  18
TORSDOF 2
ENDMDL
MODEL 7
REMARK VINA RESULT:      -7.7      2.538      3.511
REMARK  Name = 
REMARK  2 active torsions:
REMARK  status: ('A' for Active; 'I' for Inactive)
REMARK    1  A    between atoms: C_4  and  C_5
REMARK    2  A    between atoms: C_9  and  C_10
REMARK                            x       y       z     vdW  Elec       q    Type
REMARK                         _______ _______ _______ _____ _____    ______ ____
ROOT
ATOM      1  C   UNL     1       1.466   8.646  20.134  0.00  0.00    +0.000 A 
ATOM      2  C   UNL     1       1.554   9.475  19.017  0.00  0.00    +0.000 A 
ATOM      3  C   UNL     1       2.055   8.973  17.819  0.00  0.00    +0.000 A 
ATOM      4  C   UNL     1       2.452   7.635  17.732  0.00  0.00    +0.000 A 
ATOM      5  C   UNL     1       2.370   6.767  18.837  0.00  0.00    +0.000 A 
ATOM      6  C   UNL     1       1.884   7.310  20.043  0.00  0.00    +0.000 A 
ENDROOT
BRANCH   1  10
ATOM      7  O   UNL     1      -0.407  10.421  23.777  0.00  0.00    +0.000 OA
ATOM      8  C   UNL     1      -0.617  10.713  22.619  0.00  0.00    +0.000 C 
ATOM      9  C   UNL     1      -0.026  10.135  21.382  0.00  0.00    +0.000 C 
ATOM     10  C   UNL     1       0.887   9.155  21.377  0.00  0.00    +0.000 C 
ATOM     11  O   UNL     1      -0.543  10.757  20.249  0.00  0.00    +0.000 OA
ATOM     12  C   UNL     1      -1.432  11.698  20.713  0.00  0.00    +0.000 A 
ATOM     13  C   UNL     1      -2.184  12.544  19.925  0.00  0.00    +0.000 A 
ATOM     14  C   UNL     1      -3.037  13.443  20.575  0.00  0.00    +0.000 A 
ATOM     15  C   UNL     1      -3.119  13.481  21.982  0.00  0.00    +0.000 A 
ATOM     16  C   UNL     1      -2.352  12.613  22.767  0.00  0.00    +0.000 A 
ATOM     17  C   UNL     1      -1.523  11.734  22.101  0.00  0.00    +0.000 A 
ENDBRANCH   1  10
BRANCH   5  18
ATOM     18  C   UNL     1       2.736   5.333  18.723  0.00  0.00    +0.000 A 
ATOM     19  C   UNL     1       3.900   4.813  19.319  0.00  0.00    +0.000 A 
ATOM     20  C   UNL     1       4.274   3.474  19.156  0.00  0.00    +0.000 A 
ATOM     21  C   UNL     1       3.474   2.619  18.406  0.00  0.00    +0.000 A 
ATOM     22 CL   UNL     1       3.936   0.978  18.190  0.00  0.00    +0.000 Cl
ATOM     23  C   UNL     1       2.305   3.092  17.824  0.00  0.00    +0.000 A 
ATOM     24  C   UNL     1       1.945   4.435  17.977  0.00  0.00    +0.000 A 
ENDBRANCH   5  18
TORSDOF 2
ENDMDL
MODEL 8
REMARK VINA RESULT:      -7.6      0.837      1.288
REMARK  Name = 
REMARK  2 active torsions:
REMARK  status: ('A' for Active; 'I' for Inactive)
REMARK    1  A    between atoms: C_4  and  C_5
REMARK    2  A    between atoms: C_9  and  C_10
REMARK                            x       y       z     vdW  Elec       q    Type
REMARK                         _______ _______ _______ _____ _____    ______ ____
ROOT
ATOM      1  C   UNL     1       1.625   5.466  20.340  0.00  0.00    +0.000 A 
ATOM      2  C   UNL     1       1.126   4.196  20.626  0.00  0.00    +0.000 A 
ATOM      3  C   UNL     1       1.489   3.113  19.830  0.00  0.00    +0.000 A 
ATOM      4  C   UNL     1       2.366   3.296  18.757  0.00  0.00    +0.000 A 
ATOM      5  C   UNL     1       2.895   4.562  18.443  0.00  0.00    +0.000 A 
ATOM      6  C   UNL     1       2.489   5.643  19.249  0.00  0.00    +0.000 A 
ENDROOT
BRANCH   1  10
ATOM      7  O   UNL     1       0.706   9.085  22.787  0.00  0.00    +0.000 OA
ATOM      8  C   UNL     1       0.996   9.041  21.610  0.00  0.00    +0.000 C 
ATOM      9  C   UNL     1       1.293   7.856  20.760  0.00  0.00    +0.000 C 
ATOM     10  C   UNL     1       1.290   6.594  21.208  0.00  0.00    +0.000 C 
ATOM     11  O   UNL     1       1.580   8.244  19.454  0.00  0.00    +0.000 OA
ATOM     12  C   UNL     1       1.477   9.615  19.440  0.00  0.00    +0.000 A 
ATOM     13  C   UNL     1       1.673  10.421  18.339  0.00  0.00    +0.000 A 
ATOM     14  C   UNL     1       1.529  11.801  18.515  0.00  0.00    +0.000 A 
ATOM     15  C   UNL     1       1.198  12.344  19.774  0.00  0.00    +0.000 A 
ATOM     16  C   UNL     1       0.999  11.513  20.881  0.00  0.00    +0.000 A 
ATOM     17  C   UNL     1       1.142  10.155  20.679  0.00  0.00    +0.000 A 
ENDBRANCH   1  10
BRANCH   5  18
ATOM     18  C   UNL     1       3.872   4.740  17.339  0.00  0.00    +0.000 A 
ATOM     19  C   UNL     1       4.449   3.641  16.673  0.00  0.00    +0.000 A 
ATOM     20  C   UNL     1       5.417   3.813  15.677  0.00  0.00    +0.000 A 
ATOM     21  C   UNL     1       5.813   5.094  15.310  0.00  0.00    +0.000 A 
ATOM     22 CL   UNL     1       7.012   5.310  14.097  0.00  0.00    +0.000 Cl
ATOM     23  C   UNL     1       5.246   6.202  15.928  0.00  0.00    +0.000 A 
ATOM     24  C   UNL     1       4.291   6.024  16.935  0.00  0.00    +0.000 A 
ENDBRANCH   5  18
TORSDOF 2
ENDMDL
MODEL 9
REMARK VINA RESULT:      -7.6      3.918      8.600
REMARK  Name = 
REMARK  2 active torsions:
REMARK  status: ('A' for Active; 'I' for Inactive)
REMARK    1  A    between atoms: C_4  and  C_5
REMARK    2  A    between atoms: C_9  and  C_10
REMARK                            x       y       z     vdW  Elec       q    Type
REMARK                         _______ _______ _______ _____ _____    ______ ____
ROOT
ATOM      1  C   UNL     1       1.890   8.353  19.161  0.00  0.00    +0.000 A 
ATOM      2  C   UNL     1       2.308   9.107  18.065  0.00  0.00    +0.000 A 
ATOM      3  C   UNL     1       1.824  10.399  17.887  0.00  0.00    +0.000 A 
ATOM      4  C   UNL     1       0.934  10.948  18.816  0.00  0.00    +0.000 A 
ATOM      5  C   UNL     1       0.496  10.220  19.938  0.00  0.00    +0.000 A 
ATOM      6  C   UNL     1       0.983   8.905  20.077  0.00  0.00    +0.000 A 
ENDROOT
BRANCH   1  10
ATOM      7  O   UNL     1       3.659   4.273  19.557  0.00  0.00    +0.000 OA
ATOM      8  C   UNL     1       3.832   5.072  18.661  0.00  0.00    +0.000 C 
ATOM      9  C   UNL     1       3.273   6.442  18.502  0.00  0.00    +0.000 C 
ATOM     10  C   UNL     1       2.441   7.016  19.381  0.00  0.00    +0.000 C 
ATOM     11  O   UNL     1       3.726   7.027  17.323  0.00  0.00    +0.000 OA
ATOM     12  C   UNL     1       4.543   6.093  16.732  0.00  0.00    +0.000 A 
ATOM     13  C   UNL     1       5.216   6.259  15.540  0.00  0.00    +0.000 A 
ATOM     14  C   UNL     1       6.002   5.194  15.089  0.00  0.00    +0.000 A 
ATOM     15  C   UNL     1       6.098   3.996  15.827  0.00  0.00    +0.000 A 
ATOM     16  C   UNL     1       5.411   3.844  17.036  0.00  0.00    +0.000 A 
ATOM     17  C   UNL     1       4.648   4.912  17.461  0.00  0.00    +0.000 A 
ENDBRANCH   1  10
BRANCH   5  18
ATOM     18  C   UNL     1      -0.401  10.828  20.953  0.00  0.00    +0.000 A 
ATOM     19  C   UNL     1      -0.442  10.364  22.281  0.00  0.00    +0.000 A 
ATOM     20  C   UNL     1      -1.335  10.899  23.217  0.00  0.00    +0.000 A 
ATOM     21  C   UNL     1      -2.193  11.928  22.846  0.00  0.00    +0.000 A 
ATOM     22 CL   UNL     1      -3.301  12.579  23.988  0.00  0.00    +0.000 Cl
ATOM     23  C   UNL     1      -2.161  12.428  21.551  0.00  0.00    +0.000 A 
ATOM     24  C   UNL     1      -1.279  11.878  20.614  0.00  0.00    +0.000 A 
ENDBRANCH   5  18
TORSDOF 2
ENDMDL
