MODEL 1
REMARK VINA RESULT:      -7.0      0.000      0.000
REMARK  Name = 
REMARK  10 active torsions:
REMARK  status: ('A' for Active; 'I' for Inactive)
REMARK    1  A    between atoms: C_1  and  C_2
REMARK    2  A    between atoms: C_2  and  O_3
REMARK    3  A    between atoms: O_3  and  C_4
REMARK    4  A    between atoms: C_4  and  C_6
REMARK    5  A    between atoms: N_9  and  S_10
REMARK    6  A    between atoms: S_10  and  C_13
REMARK    7  A    between atoms: C_16  and  O_17
REMARK    8  A    between atoms: O_17  and  C_18
REMARK    9  A    between atoms: C_19  and  O_20
REMARK   10  A    between atoms: O_20  and  C_21
REMARK                            x       y       z     vdW  Elec       q    Type
REMARK                         _______ _______ _______ _____ _____    ______ ____
ROOT
ATOM      1  S   UNL     1       3.087   3.599  18.124  0.00  0.00    +0.000 S 
ATOM      2  O   UNL     1       2.309   3.652  16.906  0.00  0.00    +0.000 OA
ATOM      3  O   UNL     1       2.975   2.478  19.033  0.00  0.00    +0.000 OA
ENDROOT
BRANCH   1   7
ATOM      4  C   UNL     1       7.269   5.150  17.026  0.00  0.00    +0.000 C 
ATOM      5  C   UNL     1       6.470   4.354  15.988  0.00  0.00    +0.000 C 
ATOM      6  C   UNL     1       4.978   4.279  16.316  0.00  0.00    +0.000 C 
ATOM      7  N   UNL     1       4.761   3.746  17.694  0.00  0.00    +0.000 NA
ATOM      8  C   UNL     1       5.504   4.538  18.726  0.00  0.00    +0.000 C 
ATOM      9  C   UNL     1       6.998   4.559  18.413  0.00  0.00    +0.000 C 
BRANCH   4  10
ATOM     10  C   UNL     1       7.005   6.650  17.050  0.00  0.00    +0.000 C 
ATOM     11  O   UNL     1       6.127   7.188  16.385  0.00  0.00    +0.000 OA
BRANCH  10  12
ATOM     12  O   UNL     1       7.813   7.306  17.923  0.00  0.00    +0.000 OA
BRANCH  12  14
ATOM     13  C   UNL     1       8.849   9.347  18.731  0.00  0.00    +0.000 C 
ATOM     14  C   UNL     1       7.888   8.731  17.730  0.00  0.00    +0.000 C 
ENDBRANCH  12  14
ENDBRANCH  10  12
ENDBRANCH   4  10
ENDBRANCH   1   7
BRANCH   1  15
ATOM     15  C   UNL     1       2.717   5.092  19.022  0.00  0.00    +0.000 A 
ATOM     16  C   UNL     1       2.221   5.023  20.321  0.00  0.00    +0.000 A 
ATOM     17  C   UNL     1       1.795   6.196  20.946  0.00  0.00    +0.000 A 
ATOM     18  C   UNL     1       1.851   7.438  20.290  0.00  0.00    +0.000 A 
ATOM     19  C   UNL     1       2.348   7.502  18.973  0.00  0.00    +0.000 A 
ATOM     20  C   UNL     1       2.776   6.319  18.348  0.00  0.00    +0.000 A 
BRANCH  18  21
ATOM     21  O   UNL     1       1.374   8.454  21.077  0.00  0.00    +0.000 OA
ATOM     22  C   UNL     1      -0.026   8.669  21.166  0.00  0.00    +0.000 C 
ENDBRANCH  18  21
BRANCH  19  23
ATOM     23  O   UNL     1       2.371   8.721  18.352  0.00  0.00    +0.000 OA
ATOM     24  C   UNL     1       1.211   9.149  17.650  0.00  0.00    +0.000 C 
ENDBRANCH  19  23
ENDBRANCH   1  15
TORSDOF 7
ENDMDL
MODEL 2
REMARK VINA RESULT:      -6.8      1.781      2.763
REMARK  Name = 
REMARK  10 active torsions:
REMARK  status: ('A' for Active; 'I' for Inactive)
REMARK    1  A    between atoms: C_1  and  C_2
REMARK    2  A    between atoms: C_2  and  O_3
REMARK    3  A    between atoms: O_3  and  C_4
REMARK    4  A    between atoms: C_4  and  C_6
REMARK    5  A    between atoms: N_9  and  S_10
REMARK    6  A    between atoms: S_10  and  C_13
REMARK    7  A    between atoms: C_16  and  O_17
REMARK    8  A    between atoms: O_17  and  C_18
REMARK    9  A    between atoms: C_19  and  O_20
REMARK   10  A    between atoms: O_20  and  C_21
REMARK                            x       y       z     vdW  Elec       q    Type
REMARK                         _______ _______ _______ _____ _____    ______ ____
ROOT
ATOM      1  S   UNL     1       2.949   5.328  19.019  0.00  0.00    +0.000 S 
ATOM      2  O   UNL     1       1.882   4.353  18.963  0.00  0.00    +0.000 OA
ATOM      3  O   UNL     1       4.019   5.209  19.988  0.00  0.00    +0.000 OA
ENDROOT
BRANCH   1   7
ATOM      4  C   UNL     1       5.901   5.501  15.504  0.00  0.00    +0.000 C 
ATOM      5  C   UNL     1       4.995   6.706  15.780  0.00  0.00    +0.000 C 
ATOM      6  C   UNL     1       4.398   6.690  17.188  0.00  0.00    +0.000 C 
ATOM      7  N   UNL     1       3.685   5.404  17.450  0.00  0.00    +0.000 NA
ATOM      8  C   UNL     1       4.569   4.216  17.223  0.00  0.00    +0.000 C 
ATOM      9  C   UNL     1       5.116   4.219  15.797  0.00  0.00    +0.000 C 
BRANCH   4  10
ATOM     10  C   UNL     1       7.219   5.479  16.269  0.00  0.00    +0.000 C 
ATOM     11  O   UNL     1       7.775   4.444  16.617  0.00  0.00    +0.000 OA
BRANCH  10  12
ATOM     12  O   UNL     1       7.721   6.724  16.474  0.00  0.00    +0.000 OA
BRANCH  12  14
ATOM     13  C   UNL     1       8.074   8.601  17.972  0.00  0.00    +0.000 C 
ATOM     14  C   UNL     1       7.869   7.101  17.856  0.00  0.00    +0.000 C 
ENDBRANCH  12  14
ENDBRANCH  10  12
ENDBRANCH   4  10
ENDBRANCH   1   7
BRANCH   1  15
ATOM     15  C   UNL     1       2.170   6.915  19.233  0.00  0.00    +0.000 A 
ATOM     16  C   UNL     1       2.051   7.788  18.155  0.00  0.00    +0.000 A 
ATOM     17  C   UNL     1       1.578   9.081  18.380  0.00  0.00    +0.000 A 
ATOM     18  C   UNL     1       1.227   9.518  19.669  0.00  0.00    +0.000 A 
ATOM     19  C   UNL     1       1.353   8.634  20.758  0.00  0.00    +0.000 A 
ATOM     20  C   UNL     1       1.830   7.332  20.526  0.00  0.00    +0.000 A 
BRANCH  18  21
ATOM     21  O   UNL     1       0.798  10.821  19.668  0.00  0.00    +0.000 OA
ATOM     22  C   UNL     1      -0.133  11.247  18.684  0.00  0.00    +0.000 C 
ENDBRANCH  18  21
BRANCH  19  23
ATOM     23  O   UNL     1       1.024   9.094  22.004  0.00  0.00    +0.000 OA
ATOM     24  C   UNL     1      -0.343   9.087  22.392  0.00  0.00    +0.000 C 
ENDBRANCH  19  23
ENDBRANCH   1  15
TORSDOF 7
ENDMDL
MODEL 3
REMARK VINA RESULT:      -6.8      1.976      3.497
REMARK  Name = 
REMARK  10 active torsions:
REMARK  status: ('A' for Active; 'I' for Inactive)
REMARK    1  A    between atoms: C_1  and  C_2
REMARK    2  A    between atoms: C_2  and  O_3
REMARK    3  A    between atoms: O_3  and  C_4
REMARK    4  A    between atoms: C_4  and  C_6
REMARK    5  A    between atoms: N_9  and  S_10
REMARK    6  A    between atoms: S_10  and  C_13
REMARK    7  A    between atoms: C_16  and  O_17
REMARK    8  A    between atoms: O_17  and  C_18
REMARK    9  A    between atoms: C_19  and  O_20
REMARK   10  A    between atoms: O_20  and  C_21
REMARK                            x       y       z     vdW  Elec       q    Type
REMARK                         _______ _______ _______ _____ _____    ______ ____
ROOT
ATOM      1  S   UNL     1       3.159   5.778  18.936  0.00  0.00    +0.000 S 
ATOM      2  O   UNL     1       2.807   5.099  17.708  0.00  0.00    +0.000 OA
ATOM      3  O   UNL     1       2.999   5.129  20.220  0.00  0.00    +0.000 OA
ENDROOT
BRANCH   1   7
ATOM      4  C   UNL     1       7.572   6.264  17.755  0.00  0.00    +0.000 C 
ATOM      5  C   UNL     1       7.225   5.731  19.150  0.00  0.00    +0.000 C 
ATOM      6  C   UNL     1       5.786   5.223  19.250  0.00  0.00    +0.000 C 
ATOM      7  N   UNL     1       4.817   6.272  18.815  0.00  0.00    +0.000 NA
ATOM      8  C   UNL     1       5.119   6.776  17.436  0.00  0.00    +0.000 C 
ATOM      9  C   UNL     1       6.541   7.328  17.366  0.00  0.00    +0.000 C 
BRANCH   4  10
ATOM     10  C   UNL     1       7.663   5.215  16.654  0.00  0.00    +0.000 C 
ATOM     11  O   UNL     1       7.943   4.041  16.867  0.00  0.00    +0.000 OA
BRANCH  10  12
ATOM     12  O   UNL     1       7.354   5.718  15.431  0.00  0.00    +0.000 OA
BRANCH  12  14
ATOM     13  C   UNL     1       5.471   4.427  14.606  0.00  0.00    +0.000 C 
ATOM     14  C   UNL     1       6.949   4.739  14.455  0.00  0.00    +0.000 C 
ENDBRANCH  12  14
ENDBRANCH  10  12
ENDBRANCH   4  10
ENDBRANCH   1   7
BRANCH   1  15
ATOM     15  C   UNL     1       2.232   7.299  18.954  0.00  0.00    +0.000 A 
ATOM     16  C   UNL     1       2.146   8.079  17.805  0.00  0.00    +0.000 A 
ATOM     17  C   UNL     1       1.546   9.337  17.884  0.00  0.00    +0.000 A 
ATOM     18  C   UNL     1       1.037   9.830  19.098  0.00  0.00    +0.000 A 
ATOM     19  C   UNL     1       1.132   9.039  20.260  0.00  0.00    +0.000 A 
ATOM     20  C   UNL     1       1.736   7.773  20.175  0.00  0.00    +0.000 A 
BRANCH  18  21
ATOM     21  O   UNL     1       0.503  11.086  18.956  0.00  0.00    +0.000 OA
ATOM     22  C   UNL     1      -0.886  11.227  18.702  0.00  0.00    +0.000 C 
ENDBRANCH  18  21
BRANCH  19  23
ATOM     23  O   UNL     1       0.647   9.554  21.431  0.00  0.00    +0.000 OA
ATOM     24  C   UNL     1       1.293   9.203  22.648  0.00  0.00    +0.000 C 
ENDBRANCH  19  23
ENDBRANCH   1  15
TORSDOF 7
ENDMDL
MODEL 4
REMARK VINA RESULT:      -6.6      0.877      1.875
REMARK  Name = 
REMARK  10 active torsions:
REMARK  status: ('A' for Active; 'I' for Inactive)
REMARK    1  A    between atoms: C_1  and  C_2
REMARK    2  A    between atoms: C_2  and  O_3
REMARK    3  A    between atoms: O_3  and  C_4
REMARK    4  A    between atoms: C_4  and  C_6
REMARK    5  A    between atoms: N_9  and  S_10
REMARK    6  A    between atoms: S_10  and  C_13
REMARK    7  A    between atoms: C_16  and  O_17
REMARK    8  A    between atoms: O_17  and  C_18
REMARK    9  A    between atoms: C_19  and  O_20
REMARK   10  A    between atoms: O_20  and  C_21
REMARK                            x       y       z     vdW  Elec       q    Type
REMARK                         _______ _______ _______ _____ _____    ______ ____
ROOT
ATOM      1  S   UNL     1       3.093   4.101  18.986  0.00  0.00    +0.000 S 
ATOM      2  O   UNL     1       2.327   3.403  17.978  0.00  0.00    +0.000 OA
ATOM      3  O   UNL     1       3.077   3.672  20.368  0.00  0.00    +0.000 OA
ENDROOT
BRANCH   1   7
ATOM      4  C   UNL     1       7.254   5.310  17.460  0.00  0.00    +0.000 C 
ATOM      5  C   UNL     1       6.401   4.350  16.625  0.00  0.00    +0.000 C 
ATOM      6  C   UNL     1       4.922   4.376  17.015  0.00  0.00    +0.000 C 
ATOM      7  N   UNL     1       4.751   4.122  18.476  0.00  0.00    +0.000 NA
ATOM      8  C   UNL     1       5.548   5.079  19.309  0.00  0.00    +0.000 C 
ATOM      9  C   UNL     1       7.029   5.003  18.944  0.00  0.00    +0.000 C 
BRANCH   4  10
ATOM     10  C   UNL     1       7.016   6.794  17.205  0.00  0.00    +0.000 C 
ATOM     11  O   UNL     1       6.071   7.219  16.550  0.00  0.00    +0.000 OA
BRANCH  10  12
ATOM     12  O   UNL     1       7.936   7.580  17.821  0.00  0.00    +0.000 OA
BRANCH  12  14
ATOM     13  C   UNL     1       8.743   9.767  18.499  0.00  0.00    +0.000 C 
ATOM     14  C   UNL     1       7.682   8.996  17.734  0.00  0.00    +0.000 C 
ENDBRANCH  12  14
ENDBRANCH  10  12
ENDBRANCH   4  10
ENDBRANCH   1   7
BRANCH   1  15
ATOM     15  C   UNL     1       2.577   5.805  18.920  0.00  0.00    +0.000 A 
ATOM     16  C   UNL     1       2.750   6.544  17.752  0.00  0.00    +0.000 A 
ATOM     17  C   UNL     1       2.481   7.913  17.771  0.00  0.00    +0.000 A 
ATOM     18  C   UNL     1       2.048   8.558  18.944  0.00  0.00    +0.000 A 
ATOM     19  C   UNL     1       1.880   7.808  20.124  0.00  0.00    +0.000 A 
ATOM     20  C   UNL     1       2.152   6.429  20.099  0.00  0.00    +0.000 A 
BRANCH  18  21
ATOM     21  O   UNL     1       1.854   9.901  18.746  0.00  0.00    +0.000 OA
ATOM     22  C   UNL     1       0.546  10.384  18.479  0.00  0.00    +0.000 C 
ENDBRANCH  18  21
BRANCH  19  23
ATOM     23  O   UNL     1       1.479   8.466  21.254  0.00  0.00    +0.000 OA
ATOM     24  C   UNL     1       0.086   8.593  21.509  0.00  0.00    +0.000 C 
ENDBRANCH  19  23
ENDBRANCH   1  15
TORSDOF 7
ENDMDL
MODEL 5
REMARK VINA RESULT:      -6.4      2.799      6.888
REMARK  Name = 
REMARK  10 active torsions:
REMARK  status: ('A' for Active; 'I' for Inactive)
REMARK    1  A    between atoms: C_1  and  C_2
REMARK    2  A    between atoms: C_2  and  O_3
REMARK    3  A    between atoms: O_3  and  C_4
REMARK    4  A    between atoms: C_4  and  C_6
REMARK    5  A    between atoms: N_9  and  S_10
REMARK    6  A    between atoms: S_10  and  C_13
REMARK    7  A    between atoms: C_16  and  O_17
REMARK    8  A    between atoms: O_17  and  C_18
REMARK    9  A    between atoms: C_19  and  O_20
REMARK   10  A    between atoms: O_20  and  C_21
REMARK                            x       y       z     vdW  Elec       q    Type
REMARK                         _______ _______ _______ _____ _____    ______ ____
ROOT
ATOM      1  S   UNL     1       6.813   5.584  17.661  0.00  0.00    +0.000 S 
ATOM      2  O   UNL     1       7.524   6.823  17.440  0.00  0.00    +0.000 OA
ATOM      3  O   UNL     1       7.398   4.517  18.444  0.00  0.00    +0.000 OA
ENDROOT
BRANCH   1   7
ATOM      4  C   UNL     1       2.408   5.639  18.964  0.00  0.00    +0.000 C 
ATOM      5  C   UNL     1       2.946   6.784  18.098  0.00  0.00    +0.000 C 
ATOM      6  C   UNL     1       4.259   6.431  17.397  0.00  0.00    +0.000 C 
ATOM      7  N   UNL     1       5.282   5.968  18.381  0.00  0.00    +0.000 NA
ATOM      8  C   UNL     1       4.785   4.822  19.209  0.00  0.00    +0.000 C 
ATOM      9  C   UNL     1       3.503   5.207  19.943  0.00  0.00    +0.000 C 
BRANCH   4  10
ATOM     10  C   UNL     1       1.896   4.423  18.201  0.00  0.00    +0.000 C 
ATOM     11  O   UNL     1       1.280   4.503  17.145  0.00  0.00    +0.000 OA
BRANCH  10  12
ATOM     12  O   UNL     1       2.242   3.253  18.799  0.00  0.00    +0.000 OA
BRANCH  12  14
ATOM     13  C   UNL     1       3.683   1.365  18.300  0.00  0.00    +0.000 C 
ATOM     14  C   UNL     1       2.446   2.147  17.898  0.00  0.00    +0.000 C 
ENDBRANCH  12  14
ENDBRANCH  10  12
ENDBRANCH   4  10
ENDBRANCH   1   7
BRANCH   1  15
ATOM     15  C   UNL     1       6.407   4.942  16.049  0.00  0.00    +0.000 A 
ATOM     16  C   UNL     1       5.420   3.970  15.911  0.00  0.00    +0.000 A 
ATOM     17  C   UNL     1       5.227   3.374  14.664  0.00  0.00    +0.000 A 
ATOM     18  C   UNL     1       6.012   3.730  13.553  0.00  0.00    +0.000 A 
ATOM     19  C   UNL     1       7.014   4.709  13.699  0.00  0.00    +0.000 A 
ATOM     20  C   UNL     1       7.204   5.307  14.956  0.00  0.00    +0.000 A 
BRANCH  18  21
ATOM     21  O   UNL     1       5.666   3.017  12.433  0.00  0.00    +0.000 OA
ATOM     22  C   UNL     1       4.501   3.382  11.708  0.00  0.00    +0.000 C 
ENDBRANCH  18  21
BRANCH  19  23
ATOM     23  O   UNL     1       7.776   5.020  12.605  0.00  0.00    +0.000 OA
ATOM     24  C   UNL     1       8.734   6.064  12.719  0.00  0.00    +0.000 C 
ENDBRANCH  19  23
ENDBRANCH   1  15
TORSDOF 7
ENDMDL
MODEL 6
REMARK VINA RESULT:      -6.2      2.050      3.058
REMARK  Name = 
REMARK  10 active torsions:
REMARK  status: ('A' for Active; 'I' for Inactive)
REMARK    1  A    between atoms: C_1  and  C_2
REMARK    2  A    between atoms: C_2  and  O_3
REMARK    3  A    between atoms: O_3  and  C_4
REMARK    4  A    between atoms: C_4  and  C_6
REMARK    5  A    between atoms: N_9  and  S_10
REMARK    6  A    between atoms: S_10  and  C_13
REMARK    7  A    between atoms: C_16  and  O_17
REMARK    8  A    between atoms: O_17  and  C_18
REMARK    9  A    between atoms: C_19  and  O_20
REMARK   10  A    between atoms: O_20  and  C_21
REMARK                            x       y       z     vdW  Elec       q    Type
REMARK                         _______ _______ _______ _____ _____    ______ ____
ROOT
ATOM      1  S   UNL     1       2.987   5.784  19.101  0.00  0.00    +0.000 S 
ATOM      2  O   UNL     1       2.363   5.491  17.829  0.00  0.00    +0.000 OA
ATOM      3  O   UNL     1       3.032   4.793  20.156  0.00  0.00    +0.000 OA
ENDROOT
BRANCH   1   7
ATOM      4  C   UNL     1       7.270   6.201  17.493  0.00  0.00    +0.000 C 
ATOM      5  C   UNL     1       7.056   5.783  18.952  0.00  0.00    +0.000 C 
ATOM      6  C   UNL     1       5.639   5.275  19.223  0.00  0.00    +0.000 C 
ATOM      7  N   UNL     1       4.621   6.278  18.791  0.00  0.00    +0.000 NA
ATOM      8  C   UNL     1       4.791   6.668  17.354  0.00  0.00    +0.000 C 
ATOM      9  C   UNL     1       6.194   7.221  17.112  0.00  0.00    +0.000 C 
BRANCH   4  10
ATOM     10  C   UNL     1       7.278   5.064  16.478  0.00  0.00    +0.000 C 
ATOM     11  O   UNL     1       7.012   3.903  16.768  0.00  0.00    +0.000 OA
BRANCH  10  12
ATOM     12  O   UNL     1       7.564   5.493  15.221  0.00  0.00    +0.000 OA
BRANCH  12  14
ATOM     13  C   UNL     1       5.450   4.617  14.411  0.00  0.00    +0.000 C 
ATOM     14  C   UNL     1       6.943   4.736  14.165  0.00  0.00    +0.000 C 
ENDBRANCH  12  14
ENDBRANCH  10  12
ENDBRANCH   4  10
ENDBRANCH   1   7
BRANCH   1  15
ATOM     15  C   UNL     1       2.183   7.243  19.732  0.00  0.00    +0.000 A 
ATOM     16  C   UNL     1       1.771   7.296  21.061  0.00  0.00    +0.000 A 
ATOM     17  C   UNL     1       1.010   8.383  21.490  0.00  0.00    +0.000 A 
ATOM     18  C   UNL     1       0.648   9.417  20.609  0.00  0.00    +0.000 A 
ATOM     19  C   UNL     1       1.062   9.357  19.264  0.00  0.00    +0.000 A 
ATOM     20  C   UNL     1       1.829   8.260  18.836  0.00  0.00    +0.000 A 
BRANCH  18  21
ATOM     21  O   UNL     1      -0.108  10.379  21.232  0.00  0.00    +0.000 OA
ATOM     22  C   UNL     1      -0.360  10.271  22.625  0.00  0.00    +0.000 C 
ENDBRANCH  18  21
BRANCH  19  23
ATOM     23  O   UNL     1       0.676  10.367  18.425  0.00  0.00    +0.000 OA
ATOM     24  C   UNL     1      -0.663  10.380  17.947  0.00  0.00    +0.000 C 
ENDBRANCH  19  23
ENDBRANCH   1  15
TORSDOF 7
ENDMDL
MODEL 7
REMARK VINA RESULT:      -6.1      2.369      6.972
REMARK  Name = 
REMARK  10 active torsions:
REMARK  status: ('A' for Active; 'I' for Inactive)
REMARK    1  A    between atoms: C_1  and  C_2
REMARK    2  A    between atoms: C_2  and  O_3
REMARK    3  A    between atoms: O_3  and  C_4
REMARK    4  A    between atoms: C_4  and  C_6
REMARK    5  A    between atoms: N_9  and  S_10
REMARK    6  A    between atoms: S_10  and  C_13
REMARK    7  A    between atoms: C_16  and  O_17
REMARK    8  A    between atoms: O_17  and  C_18
REMARK    9  A    between atoms: C_19  and  O_20
REMARK   10  A    between atoms: O_20  and  C_21
REMARK                            x       y       z     vdW  Elec       q    Type
REMARK                         _______ _______ _______ _____ _____    ______ ____
ROOT
ATOM      1  S   UNL     1       2.739   5.900  18.691  0.00  0.00    +0.000 S 
ATOM      2  O   UNL     1       3.198   5.348  19.947  0.00  0.00    +0.000 OA
ATOM      3  O   UNL     1       1.526   5.419  18.063  0.00  0.00    +0.000 OA
ENDROOT
BRANCH   1   7
ATOM      4  C   UNL     1       1.125  10.177  19.139  0.00  0.00    +0.000 C 
ATOM      5  C   UNL     1       1.962   9.819  17.906  0.00  0.00    +0.000 C 
ATOM      6  C   UNL     1       2.060   8.310  17.673  0.00  0.00    +0.000 C 
ATOM      7  N   UNL     1       2.567   7.614  18.893  0.00  0.00    +0.000 NA
ATOM      8  C   UNL     1       1.735   7.922  20.101  0.00  0.00    +0.000 C 
ATOM      9  C   UNL     1       1.689   9.428  20.350  0.00  0.00    +0.000 C 
BRANCH   4  10
ATOM     10  C   UNL     1      -0.370   9.904  19.022  0.00  0.00    +0.000 C 
ATOM     11  O   UNL     1      -1.103   9.751  19.993  0.00  0.00    +0.000 OA
BRANCH  10  12
ATOM     12  O   UNL     1      -0.797   9.901  17.732  0.00  0.00    +0.000 OA
BRANCH  12  14
ATOM     13  C   UNL     1      -3.135   9.843  17.083  0.00  0.00    +0.000 C 
ATOM     14  C   UNL     1      -1.956  10.716  17.474  0.00  0.00    +0.000 C 
ENDBRANCH  12  14
ENDBRANCH  10  12
ENDBRANCH   4  10
ENDBRANCH   1   7
BRANCH   1  15
ATOM     15  C   UNL     1       4.083   5.712  17.538  0.00  0.00    +0.000 A 
ATOM     16  C   UNL     1       4.183   4.561  16.760  0.00  0.00    +0.000 A 
ATOM     17  C   UNL     1       5.323   4.368  15.979  0.00  0.00    +0.000 A 
ATOM     18  C   UNL     1       6.371   5.306  15.969  0.00  0.00    +0.000 A 
ATOM     19  C   UNL     1       6.269   6.466  16.761  0.00  0.00    +0.000 A 
ATOM     20  C   UNL     1       5.118   6.656  17.546  0.00  0.00    +0.000 A 
BRANCH  18  21
ATOM     21  O   UNL     1       7.397   4.918  15.145  0.00  0.00    +0.000 OA
ATOM     22  C   UNL     1       7.115   4.573  13.797  0.00  0.00    +0.000 C 
ENDBRANCH  18  21
BRANCH  19  23
ATOM     23  O   UNL     1       7.313   7.350  16.747  0.00  0.00    +0.000 OA
ATOM     24  C   UNL     1       7.901   7.728  17.986  0.00  0.00    +0.000 C 
ENDBRANCH  19  23
ENDBRANCH   1  15
TORSDOF 7
ENDMDL
MODEL 8
REMARK VINA RESULT:      -6.1      1.954      3.527
REMARK  Name = 
REMARK  10 active torsions:
REMARK  status: ('A' for Active; 'I' for Inactive)
REMARK    1  A    between atoms: C_1  and  C_2
REMARK    2  A    between atoms: C_2  and  O_3
REMARK    3  A    between atoms: O_3  and  C_4
REMARK    4  A    between atoms: C_4  and  C_6
REMARK    5  A    between atoms: N_9  and  S_10
REMARK    6  A    between atoms: S_10  and  C_13
REMARK    7  A    between atoms: C_16  and  O_17
REMARK    8  A    between atoms: O_17  and  C_18
REMARK    9  A    between atoms: C_19  and  O_20
REMARK   10  A    between atoms: O_20  and  C_21
REMARK                            x       y       z     vdW  Elec       q    Type
REMARK                         _______ _______ _______ _____ _____    ______ ____
ROOT
ATOM      1  S   UNL     1       3.067   5.769  18.988  0.00  0.00    +0.000 S 
ATOM      2  O   UNL     1       2.621   5.193  17.738  0.00  0.00    +0.000 OA
ATOM      3  O   UNL     1       2.977   5.026  20.227  0.00  0.00    +0.000 OA
ENDROOT
BRANCH   1   7
ATOM      4  C   UNL     1       7.382   6.325  17.514  0.00  0.00    +0.000 C 
ATOM      5  C   UNL     1       7.134   5.617  18.850  0.00  0.00    +0.000 C 
ATOM      6  C   UNL     1       5.693   5.127  19.003  0.00  0.00    +0.000 C 
ATOM      7  N   UNL     1       4.724   6.243  18.794  0.00  0.00    +0.000 NA
ATOM      8  C   UNL     1       4.928   6.922  17.473  0.00  0.00    +0.000 C 
ATOM      9  C   UNL     1       6.356   7.451  17.357  0.00  0.00    +0.000 C 
BRANCH   4  10
ATOM     10  C   UNL     1       7.352   5.432  16.279  0.00  0.00    +0.000 C 
ATOM     11  O   UNL     1       7.740   5.799  15.176  0.00  0.00    +0.000 OA
BRANCH  10  12
ATOM     12  O   UNL     1       6.899   4.182  16.555  0.00  0.00    +0.000 OA
BRANCH  12  14
ATOM     13  C   UNL     1       4.749   4.060  15.434  0.00  0.00    +0.000 C 
ATOM     14  C   UNL     1       6.177   3.547  15.482  0.00  0.00    +0.000 C 
ENDBRANCH  12  14
ENDBRANCH  10  12
ENDBRANCH   4  10
ENDBRANCH   1   7
BRANCH   1  15
ATOM     15  C   UNL     1       2.177   7.299  19.182  0.00  0.00    +0.000 A 
ATOM     16  C   UNL     1       2.013   8.157  18.098  0.00  0.00    +0.000 A 
ATOM     17  C   UNL     1       1.448   9.415  18.309  0.00  0.00    +0.000 A 
ATOM     18  C   UNL     1       1.050   9.833  19.592  0.00  0.00    +0.000 A 
ATOM     19  C   UNL     1       1.223   8.965  20.687  0.00  0.00    +0.000 A 
ATOM     20  C   UNL     1       1.792   7.698  20.469  0.00  0.00    +0.000 A 
BRANCH  18  21
ATOM     21  O   UNL     1       0.533  11.104  19.577  0.00  0.00    +0.000 OA
ATOM     22  C   UNL     1       1.414  12.215  19.635  0.00  0.00    +0.000 C 
ENDBRANCH  18  21
BRANCH  19  23
ATOM     23  O   UNL     1       0.846   9.407  21.926  0.00  0.00    +0.000 OA
ATOM     24  C   UNL     1      -0.481   9.148  22.366  0.00  0.00    +0.000 C 
ENDBRANCH  19  23
ENDBRANCH   1  15
TORSDOF 7
ENDMDL
MODEL 9
REMARK VINA RESULT:      -5.9      2.334      3.823
REMARK  Name = 
REMARK  10 active torsions:
REMARK  status: ('A' for Active; 'I' for Inactive)
REMARK    1  A    between atoms: C_1  and  C_2
REMARK    2  A    between atoms: C_2  and  O_3
REMARK    3  A    between atoms: O_3  and  C_4
REMARK    4  A    between atoms: C_4  and  C_6
REMARK    5  A    between atoms: N_9  and  S_10
REMARK    6  A    between atoms: S_10  and  C_13
REMARK    7  A    between atoms: C_16  and  O_17
REMARK    8  A    between atoms: O_17  and  C_18
REMARK    9  A    between atoms: C_19  and  O_20
REMARK   10  A    between atoms: O_20  and  C_21
REMARK                            x       y       z     vdW  Elec       q    Type
REMARK                         _______ _______ _______ _____ _____    ______ ____
ROOT
ATOM      1  S   UNL     1       2.609   5.883  19.459  0.00  0.00    +0.000 S 
ATOM      2  O   UNL     1       1.810   5.224  18.450  0.00  0.00    +0.000 OA
ATOM      3  O   UNL     1       2.813   5.282  20.760  0.00  0.00    +0.000 OA
ENDROOT
BRANCH   1   7
ATOM      4  C   UNL     1       6.442   5.807  16.929  0.00  0.00    +0.000 C 
ATOM      5  C   UNL     1       6.515   5.411  18.408  0.00  0.00    +0.000 C 
ATOM      6  C   UNL     1       5.146   5.069  18.999  0.00  0.00    +0.000 C 
ATOM      7  N   UNL     1       4.178   6.185  18.783  0.00  0.00    +0.000 NA
ATOM      8  C   UNL     1       4.065   6.558  17.335  0.00  0.00    +0.000 C 
ATOM      9  C   UNL     1       5.431   6.946  16.774  0.00  0.00    +0.000 C 
BRANCH   4  10
ATOM     10  C   UNL     1       6.094   4.681  15.963  0.00  0.00    +0.000 C 
ATOM     11  O   UNL     1       5.926   3.520  16.318  0.00  0.00    +0.000 OA
BRANCH  10  12
ATOM     12  O   UNL     1       5.944   5.120  14.686  0.00  0.00    +0.000 OA
BRANCH  12  14
ATOM     13  C   UNL     1       6.351   3.694  12.765  0.00  0.00    +0.000 C 
ATOM     14  C   UNL     1       6.954   4.665  13.764  0.00  0.00    +0.000 C 
ENDBRANCH  12  14
ENDBRANCH  10  12
ENDBRANCH   4  10
ENDBRANCH   1   7
BRANCH   1  15
ATOM     15  C   UNL     1       1.895   7.498  19.690  0.00  0.00    +0.000 A 
ATOM     16  C   UNL     1       1.830   8.393  18.626  0.00  0.00    +0.000 A 
ATOM     17  C   UNL     1       1.409   9.702  18.867  0.00  0.00    +0.000 A 
ATOM     18  C   UNL     1       1.059  10.132  20.159  0.00  0.00    +0.000 A 
ATOM     19  C   UNL     1       1.133   9.225  21.234  0.00  0.00    +0.000 A 
ATOM     20  C   UNL     1       1.557   7.908  20.986  0.00  0.00    +0.000 A 
BRANCH  18  21
ATOM     21  O   UNL     1       0.687  11.453  20.174  0.00  0.00    +0.000 OA
ATOM     22  C   UNL     1      -0.665  11.798  19.914  0.00  0.00    +0.000 C 
ENDBRANCH  18  21
BRANCH  19  23
ATOM     23  O   UNL     1       0.807   9.679  22.483  0.00  0.00    +0.000 OA
ATOM     24  C   UNL     1      -0.523   9.490  22.950  0.00  0.00    +0.000 C 
ENDBRANCH  19  23
ENDBRANCH   1  15
TORSDOF 7
ENDMDL
