MODEL 1
REMARK VINA RESULT:      -7.3      0.000      0.000
REMARK  Name = 
REMARK  8 active torsions:
REMARK  status: ('A' for Active; 'I' for Inactive)
REMARK    1  A    between atoms: N_1  and  C_2
REMARK    2  A    between atoms: C_2  and  C_3
REMARK    3  A    between atoms: N_6  and  C_7
REMARK    4  A    between atoms: C_12  and  C_13
REMARK    5  A    between atoms: N_15  and  C_16
REMARK    6  A    between atoms: C_16  and  C_17
REMARK    7  A    between atoms: C_17  and  C_18
REMARK    8  A    between atoms: C_18  and  N_19
REMARK                            x       y       z     vdW  Elec       q    Type
REMARK                         _______ _______ _______ _____ _____    ______ ____
ROOT
ATOM      1  C   UNL     1       2.366   4.855  19.827  0.00  0.00    +0.000 A 
ATOM      2  C   UNL     1       2.118   4.743  21.213  0.00  0.00    +0.000 A 
ATOM      3  C   UNL     1       1.978   3.497  21.824  0.00  0.00    +0.000 A 
ATOM      4  C   UNL     1       2.111   2.340  21.072  0.00  0.00    +0.000 A 
ATOM      5  C   UNL     1       2.385   2.429  19.706  0.00  0.00    +0.000 A 
ATOM      6  C   UNL     1       2.503   3.679  19.060  0.00  0.00    +0.000 A 
ENDROOT
BRANCH   1  10
ATOM      7  C   UNL     1       2.101   8.300  18.764  0.00  0.00    +0.000 A 
ATOM      8  C   UNL     1       3.038   7.688  17.914  0.00  0.00    +0.000 A 
ATOM      9  N   UNL     1       3.342   6.445  18.293  0.00  0.00    +0.000 NA
ATOM     10  N   UNL     1       2.461   6.173  19.297  0.00  0.00    +0.000 N 
ATOM     11  C   UNL     1       1.827   7.325  19.704  0.00  0.00    +0.000 A 
BRANCH   7  12
ATOM     12  C   UNL     1       1.528   9.661  18.673  0.00  0.00    +0.000 C 
BRANCH  12  13
ATOM     13  N   UNL     1       1.991  10.257  17.433  0.00  0.00    +0.000 NA
ATOM     14  H   UNL     1       1.809   9.617  16.661  0.00  0.00    +0.000 HD
ATOM     15  H   UNL     1       3.007  10.373  17.475  0.00  0.00    +0.000 HD
ENDBRANCH  12  13
ENDBRANCH   7  12
ENDBRANCH   1  10
BRANCH   6  16
ATOM     16  C   UNL     1       2.947   3.642  17.633  0.00  0.00    +0.000 C 
ATOM     17  O   UNL     1       2.139   3.566  16.718  0.00  0.00    +0.000 OA
ATOM     18  N   UNL     1       4.312   3.731  17.420  0.00  0.00    +0.000 N 
ATOM     19  H   UNL     1       4.942   3.723  18.213  0.00  0.00    +0.000 HD
BRANCH  18  20
ATOM     20  C   UNL     1       4.882   3.687  16.086  0.00  0.00    +0.000 C 
BRANCH  20  21
ATOM     21  C   UNL     1       5.271   5.061  15.539  0.00  0.00    +0.000 C 
BRANCH  21  22
ATOM     22  C   UNL     1       6.778   5.302  15.579  0.00  0.00    +0.000 C 
BRANCH  22  23
ATOM     23  N   UNL     1       7.258   5.534  16.928  0.00  0.00    +0.000 N 
ATOM     24  C   UNL     1       7.333   6.744  17.561  0.00  0.00    +0.000 A 
ATOM     25  C   UNL     1       7.813   6.456  18.816  0.00  0.00    +0.000 A 
ATOM     26  N   UNL     1       8.025   5.110  18.960  0.00  0.00    +0.000 NA
ATOM     27  C   UNL     1       7.683   4.580  17.807  0.00  0.00    +0.000 A 
ENDBRANCH  22  23
ENDBRANCH  21  22
ENDBRANCH  20  21
ENDBRANCH  18  20
ENDBRANCH   6  16
TORSDOF 8
ENDMDL
MODEL 2
REMARK VINA RESULT:      -7.2      2.434      6.235
REMARK  Name = 
REMARK  8 active torsions:
REMARK  status: ('A' for Active; 'I' for Inactive)
REMARK    1  A    between atoms: N_1  and  C_2
REMARK    2  A    between atoms: C_2  and  C_3
REMARK    3  A    between atoms: N_6  and  C_7
REMARK    4  A    between atoms: C_12  and  C_13
REMARK    5  A    between atoms: N_15  and  C_16
REMARK    6  A    between atoms: C_16  and  C_17
REMARK    7  A    between atoms: C_17  and  C_18
REMARK    8  A    between atoms: C_18  and  N_19
REMARK                            x       y       z     vdW  Elec       q    Type
REMARK                         _______ _______ _______ _____ _____    ______ ____
ROOT
ATOM      1  C   UNL     1       4.088   3.759  19.289  0.00  0.00    +0.000 A 
ATOM      2  C   UNL     1       4.362   2.602  20.053  0.00  0.00    +0.000 A 
ATOM      3  C   UNL     1       3.507   2.191  21.075  0.00  0.00    +0.000 A 
ATOM      4  C   UNL     1       2.348   2.907  21.335  0.00  0.00    +0.000 A 
ATOM      5  C   UNL     1       2.044   4.035  20.572  0.00  0.00    +0.000 A 
ATOM      6  C   UNL     1       2.909   4.487  19.552  0.00  0.00    +0.000 A 
ENDROOT
BRANCH   1  10
ATOM      7  C   UNL     1       6.170   4.338  16.390  0.00  0.00    +0.000 A 
ATOM      8  C   UNL     1       6.951   4.651  17.516  0.00  0.00    +0.000 A 
ATOM      9  N   UNL     1       6.253   4.622  18.652  0.00  0.00    +0.000 NA
ATOM     10  N   UNL     1       5.042   4.109  18.292  0.00  0.00    +0.000 N 
ATOM     11  C   UNL     1       4.918   4.091  16.921  0.00  0.00    +0.000 A 
BRANCH   7  12
ATOM     12  C   UNL     1       6.584   4.272  14.972  0.00  0.00    +0.000 C 
BRANCH  12  13
ATOM     13  N   UNL     1       7.564   5.320  14.745  0.00  0.00    +0.000 NA
ATOM     14  H   UNL     1       8.501   4.937  14.857  0.00  0.00    +0.000 HD
ATOM     15  H   UNL     1       7.460   6.037  15.467  0.00  0.00    +0.000 HD
ENDBRANCH  12  13
ENDBRANCH   7  12
ENDBRANCH   1  10
BRANCH   6  16
ATOM     16  C   UNL     1       2.401   5.613  18.709  0.00  0.00    +0.000 C 
ATOM     17  O   UNL     1       1.784   5.404  17.675  0.00  0.00    +0.000 OA
ATOM     18  N   UNL     1       2.647   6.888  19.190  0.00  0.00    +0.000 N 
ATOM     19  H   UNL     1       3.222   7.008  20.014  0.00  0.00    +0.000 HD
BRANCH  18  20
ATOM     20  C   UNL     1       2.228   8.072  18.463  0.00  0.00    +0.000 C 
BRANCH  20  21
ATOM     21  C   UNL     1       1.413   9.054  19.305  0.00  0.00    +0.000 C 
BRANCH  21  22
ATOM     22  C   UNL     1       1.331   8.640  20.772  0.00  0.00    +0.000 C 
BRANCH  22  23
ATOM     23  N   UNL     1       0.614   9.612  21.574  0.00  0.00    +0.000 N 
ATOM     24  C   UNL     1       0.201  10.850  21.166  0.00  0.00    +0.000 A 
ATOM     25  C   UNL     1      -0.455  11.378  22.251  0.00  0.00    +0.000 A 
ATOM     26  N   UNL     1      -0.456  10.496  23.299  0.00  0.00    +0.000 NA
ATOM     27  C   UNL     1       0.196   9.440  22.863  0.00  0.00    +0.000 A 
ENDBRANCH  22  23
ENDBRANCH  21  22
ENDBRANCH  20  21
ENDBRANCH  18  20
ENDBRANCH   6  16
TORSDOF 8
ENDMDL
MODEL 3
REMARK VINA RESULT:      -7.1      2.056      6.110
REMARK  Name = 
REMARK  8 active torsions:
REMARK  status: ('A' for Active; 'I' for Inactive)
REMARK    1  A    between atoms: N_1  and  C_2
REMARK    2  A    between atoms: C_2  and  C_3
REMARK    3  A    between atoms: N_6  and  C_7
REMARK    4  A    between atoms: C_12  and  C_13
REMARK    5  A    between atoms: N_15  and  C_16
REMARK    6  A    between atoms: C_16  and  C_17
REMARK    7  A    between atoms: C_17  and  C_18
REMARK    8  A    between atoms: C_18  and  N_19
REMARK                            x       y       z     vdW  Elec       q    Type
REMARK                         _______ _______ _______ _____ _____    ______ ____
ROOT
ATOM      1  C   UNL     1       3.420   3.912  18.427  0.00  0.00    +0.000 A 
ATOM      2  C   UNL     1       3.376   2.615  17.868  0.00  0.00    +0.000 A 
ATOM      3  C   UNL     1       2.258   1.797  18.026  0.00  0.00    +0.000 A 
ATOM      4  C   UNL     1       1.151   2.266  18.719  0.00  0.00    +0.000 A 
ATOM      5  C   UNL     1       1.164   3.556  19.253  0.00  0.00    +0.000 A 
ATOM      6  C   UNL     1       2.295   4.391  19.130  0.00  0.00    +0.000 A 
ENDROOT
BRANCH   1  10
ATOM      7  C   UNL     1       6.593   5.644  18.492  0.00  0.00    +0.000 A 
ATOM      8  C   UNL     1       5.880   6.151  17.392  0.00  0.00    +0.000 A 
ATOM      9  N   UNL     1       4.744   5.489  17.164  0.00  0.00    +0.000 NA
ATOM     10  N   UNL     1       4.620   4.653  18.234  0.00  0.00    +0.000 N 
ATOM     11  C   UNL     1       5.796   4.612  18.949  0.00  0.00    +0.000 A 
BRANCH   7  12
ATOM     12  C   UNL     1       7.884   6.108  19.045  0.00  0.00    +0.000 C 
BRANCH  12  13
ATOM     13  N   UNL     1       8.064   5.480  20.342  0.00  0.00    +0.000 NA
ATOM     14  H   UNL     1       8.223   6.198  21.047  0.00  0.00    +0.000 HD
ATOM     15  H   UNL     1       8.911   4.906  20.323  0.00  0.00    +0.000 HD
ENDBRANCH  12  13
ENDBRANCH   7  12
ENDBRANCH   1  10
BRANCH   6  16
ATOM     16  C   UNL     1       2.129   5.798  19.610  0.00  0.00    +0.000 C 
ATOM     17  O   UNL     1       1.847   6.042  20.774  0.00  0.00    +0.000 OA
ATOM     18  N   UNL     1       2.345   6.789  18.668  0.00  0.00    +0.000 N 
ATOM     19  H   UNL     1       2.509   6.533  17.702  0.00  0.00    +0.000 HD
BRANCH  18  20
ATOM     20  C   UNL     1       2.199   8.196  18.992  0.00  0.00    +0.000 C 
BRANCH  20  21
ATOM     21  C   UNL     1       1.679   9.044  17.832  0.00  0.00    +0.000 C 
BRANCH  21  22
ATOM     22  C   UNL     1       1.784  10.542  18.106  0.00  0.00    +0.000 C 
BRANCH  22  23
ATOM     23  N   UNL     1       0.799  10.991  19.072  0.00  0.00    +0.000 N 
ATOM     24  C   UNL     1      -0.539  10.713  19.049  0.00  0.00    +0.000 A 
ATOM     25  C   UNL     1      -1.044  11.320  20.173  0.00  0.00    +0.000 A 
ATOM     26  N   UNL     1      -0.051  11.952  20.874  0.00  0.00    +0.000 NA
ATOM     27  C   UNL     1       1.048  11.737  20.187  0.00  0.00    +0.000 A 
ENDBRANCH  22  23
ENDBRANCH  21  22
ENDBRANCH  20  21
ENDBRANCH  18  20
ENDBRANCH   6  16
TORSDOF 8
ENDMDL
MODEL 4
REMARK VINA RESULT:      -7.1      3.758      6.111
REMARK  Name = 
REMARK  8 active torsions:
REMARK  status: ('A' for Active; 'I' for Inactive)
REMARK    1  A    between atoms: N_1  and  C_2
REMARK    2  A    between atoms: C_2  and  C_3
REMARK    3  A    between atoms: N_6  and  C_7
REMARK    4  A    between atoms: C_12  and  C_13
REMARK    5  A    between atoms: N_15  and  C_16
REMARK    6  A    between atoms: C_16  and  C_17
REMARK    7  A    between atoms: C_17  and  C_18
REMARK    8  A    between atoms: C_18  and  N_19
REMARK                            x       y       z     vdW  Elec       q    Type
REMARK                         _______ _______ _______ _____ _____    ______ ____
ROOT
ATOM      1  C   UNL     1       5.393   4.704  16.139  0.00  0.00    +0.000 A 
ATOM      2  C   UNL     1       4.933   3.992  15.010  0.00  0.00    +0.000 A 
ATOM      3  C   UNL     1       5.688   3.926  13.839  0.00  0.00    +0.000 A 
ATOM      4  C   UNL     1       6.928   4.545  13.781  0.00  0.00    +0.000 A 
ATOM      5  C   UNL     1       7.414   5.228  14.897  0.00  0.00    +0.000 A 
ATOM      6  C   UNL     1       6.655   5.332  16.083  0.00  0.00    +0.000 A 
ENDROOT
BRANCH   1  10
ATOM      7  C   UNL     1       3.188   5.364  18.928  0.00  0.00    +0.000 A 
ATOM      8  C   UNL     1       3.717   4.078  19.128  0.00  0.00    +0.000 A 
ATOM      9  N   UNL     1       4.437   3.648  18.090  0.00  0.00    +0.000 NA
ATOM     10  N   UNL     1       4.532   4.735  17.272  0.00  0.00    +0.000 N 
ATOM     11  C   UNL     1       3.654   5.716  17.675  0.00  0.00    +0.000 A 
BRANCH   7  12
ATOM     12  C   UNL     1       2.344   6.165  19.841  0.00  0.00    +0.000 C 
BRANCH  12  13
ATOM     13  N   UNL     1       2.252   5.451  21.102  0.00  0.00    +0.000 NA
ATOM     14  H   UNL     1       1.291   5.486  21.441  0.00  0.00    +0.000 HD
ATOM     15  H   UNL     1       2.820   5.933  21.803  0.00  0.00    +0.000 HD
ENDBRANCH  12  13
ENDBRANCH   7  12
ENDBRANCH   1  10
BRANCH   6  16
ATOM     16  C   UNL     1       7.345   5.957  17.253  0.00  0.00    +0.000 C 
ATOM     17  O   UNL     1       7.711   5.287  18.208  0.00  0.00    +0.000 OA
ATOM     18  N   UNL     1       7.568   7.322  17.167  0.00  0.00    +0.000 N 
ATOM     19  H   UNL     1       7.185   7.841  16.387  0.00  0.00    +0.000 HD
BRANCH  18  20
ATOM     20  C   UNL     1       8.209   8.060  18.239  0.00  0.00    +0.000 C 
BRANCH  20  21
ATOM     21  C   UNL     1       8.268   9.568  17.997  0.00  0.00    +0.000 C 
BRANCH  21  22
ATOM     22  C   UNL     1       9.214  10.280  18.961  0.00  0.00    +0.000 C 
BRANCH  22  23
ATOM     23  N   UNL     1       9.783  11.481  18.380  0.00  0.00    +0.000 N 
ATOM     24  C   UNL     1      11.069  11.635  17.943  0.00  0.00    +0.000 A 
ATOM     25  C   UNL     1      11.123  12.917  17.452  0.00  0.00    +0.000 A 
ATOM     26  N   UNL     1       9.908  13.538  17.575  0.00  0.00    +0.000 NA
ATOM     27  C   UNL     1       9.120  12.649  18.137  0.00  0.00    +0.000 A 
ENDBRANCH  22  23
ENDBRANCH  21  22
ENDBRANCH  20  21
ENDBRANCH  18  20
ENDBRANCH   6  16
TORSDOF 8
ENDMDL
MODEL 5
REMARK VINA RESULT:      -7.0      2.347      6.683
REMARK  Name = 
REMARK  8 active torsions:
REMARK  status: ('A' for Active; 'I' for Inactive)
REMARK    1  A    between atoms: N_1  and  C_2
REMARK    2  A    between atoms: C_2  and  C_3
REMARK    3  A    between atoms: N_6  and  C_7
REMARK    4  A    between atoms: C_12  and  C_13
REMARK    5  A    between atoms: N_15  and  C_16
REMARK    6  A    between atoms: C_16  and  C_17
REMARK    7  A    between atoms: C_17  and  C_18
REMARK    8  A    between atoms: C_18  and  N_19
REMARK                            x       y       z     vdW  Elec       q    Type
REMARK                         _______ _______ _______ _____ _____    ______ ____
ROOT
ATOM      1  C   UNL     1       3.166   4.175  19.121  0.00  0.00    +0.000 A 
ATOM      2  C   UNL     1       2.940   2.795  18.924  0.00  0.00    +0.000 A 
ATOM      3  C   UNL     1       1.756   2.189  19.344  0.00  0.00    +0.000 A 
ATOM      4  C   UNL     1       0.764   2.951  19.942  0.00  0.00    +0.000 A 
ATOM      5  C   UNL     1       0.956   4.322  20.120  0.00  0.00    +0.000 A 
ATOM      6  C   UNL     1       2.158   4.953  19.728  0.00  0.00    +0.000 A 
ENDROOT
BRANCH   1  10
ATOM      7  C   UNL     1       6.473   5.534  18.583  0.00  0.00    +0.000 A 
ATOM      8  C   UNL     1       5.783   5.659  17.365  0.00  0.00    +0.000 A 
ATOM      9  N   UNL     1       4.593   5.057  17.383  0.00  0.00    +0.000 NA
ATOM     10  N   UNL     1       4.420   4.688  18.684  0.00  0.00    +0.000 N 
ATOM     11  C   UNL     1       5.602   4.815  19.379  0.00  0.00    +0.000 A 
BRANCH   7  12
ATOM     12  C   UNL     1       7.809   6.058  18.943  0.00  0.00    +0.000 C 
BRANCH  12  13
ATOM     13  N   UNL     1       8.131   5.578  20.275  0.00  0.00    +0.000 NA
ATOM     14  H   UNL     1       9.116   5.751  20.468  0.00  0.00    +0.000 HD
ATOM     15  H   UNL     1       8.008   4.563  20.305  0.00  0.00    +0.000 HD
ENDBRANCH  12  13
ENDBRANCH   7  12
ENDBRANCH   1  10
BRANCH   6  16
ATOM     16  C   UNL     1       2.182   6.444  19.832  0.00  0.00    +0.000 C 
ATOM     17  O   UNL     1       2.657   7.135  18.943  0.00  0.00    +0.000 OA
ATOM     18  N   UNL     1       1.610   6.981  20.973  0.00  0.00    +0.000 N 
ATOM     19  H   UNL     1       1.293   6.364  21.710  0.00  0.00    +0.000 HD
BRANCH  18  20
ATOM     20  C   UNL     1       1.583   8.412  21.213  0.00  0.00    +0.000 C 
BRANCH  20  21
ATOM     21  C   UNL     1       0.252   9.071  20.851  0.00  0.00    +0.000 C 
BRANCH  21  22
ATOM     22  C   UNL     1       0.258  10.578  21.095  0.00  0.00    +0.000 C 
BRANCH  22  23
ATOM     23  N   UNL     1      -0.285  11.315  19.970  0.00  0.00    +0.000 N 
ATOM     24  C   UNL     1       0.152  12.527  19.513  0.00  0.00    +0.000 A 
ATOM     25  C   UNL     1      -0.640  12.799  18.424  0.00  0.00    +0.000 A 
ATOM     26  N   UNL     1      -1.537  11.787  18.207  0.00  0.00    +0.000 NA
ATOM     27  C   UNL     1      -1.300  10.906  19.154  0.00  0.00    +0.000 A 
ENDBRANCH  22  23
ENDBRANCH  21  22
ENDBRANCH  20  21
ENDBRANCH  18  20
ENDBRANCH   6  16
TORSDOF 8
ENDMDL
MODEL 6
REMARK VINA RESULT:      -7.0      2.436      6.748
REMARK  Name = 
REMARK  8 active torsions:
REMARK  status: ('A' for Active; 'I' for Inactive)
REMARK    1  A    between atoms: N_1  and  C_2
REMARK    2  A    between atoms: C_2  and  C_3
REMARK    3  A    between atoms: N_6  and  C_7
REMARK    4  A    between atoms: C_12  and  C_13
REMARK    5  A    between atoms: N_15  and  C_16
REMARK    6  A    between atoms: C_16  and  C_17
REMARK    7  A    between atoms: C_17  and  C_18
REMARK    8  A    between atoms: C_18  and  N_19
REMARK                            x       y       z     vdW  Elec       q    Type
REMARK                         _______ _______ _______ _____ _____    ______ ____
ROOT
ATOM      1  C   UNL     1       3.205   4.491  19.175  0.00  0.00    +0.000 A 
ATOM      2  C   UNL     1       3.070   3.087  19.118  0.00  0.00    +0.000 A 
ATOM      3  C   UNL     1       2.032   2.432  19.782  0.00  0.00    +0.000 A 
ATOM      4  C   UNL     1       1.094   3.168  20.492  0.00  0.00    +0.000 A 
ATOM      5  C   UNL     1       1.194   4.559  20.535  0.00  0.00    +0.000 A 
ATOM      6  C   UNL     1       2.251   5.241  19.895  0.00  0.00    +0.000 A 
ENDROOT
BRANCH   1  10
ATOM      7  C   UNL     1       6.245   6.032  17.967  0.00  0.00    +0.000 A 
ATOM      8  C   UNL     1       5.343   6.021  16.890  0.00  0.00    +0.000 A 
ATOM      9  N   UNL     1       4.226   5.342  17.158  0.00  0.00    +0.000 NA
ATOM     10  N   UNL     1       4.317   5.056  18.489  0.00  0.00    +0.000 N 
ATOM     11  C   UNL     1       5.589   5.313  18.948  0.00  0.00    +0.000 A 
BRANCH   7  12
ATOM     12  C   UNL     1       7.577   6.671  18.047  0.00  0.00    +0.000 C 
BRANCH  12  13
ATOM     13  N   UNL     1       8.209   6.230  19.278  0.00  0.00    +0.000 NA
ATOM     14  H   UNL     1       7.543   5.684  19.823  0.00  0.00    +0.000 HD
ATOM     15  H   UNL     1       8.441   7.048  19.847  0.00  0.00    +0.000 HD
ENDBRANCH  12  13
ENDBRANCH   7  12
ENDBRANCH   1  10
BRANCH   6  16
ATOM     16  C   UNL     1       2.163   6.733  19.888  0.00  0.00    +0.000 C 
ATOM     17  O   UNL     1       2.550   7.388  18.931  0.00  0.00    +0.000 OA
ATOM     18  N   UNL     1       1.592   7.312  21.009  0.00  0.00    +0.000 N 
ATOM     19  H   UNL     1       1.352   6.731  21.802  0.00  0.00    +0.000 HD
BRANCH  18  20
ATOM     20  C   UNL     1       1.463   8.751  21.144  0.00  0.00    +0.000 C 
BRANCH  20  21
ATOM     21  C   UNL     1       0.120   9.295  20.657  0.00  0.00    +0.000 C 
BRANCH  21  22
ATOM     22  C   UNL     1       0.270  10.564  19.821  0.00  0.00    +0.000 C 
BRANCH  22  23
ATOM     23  N   UNL     1      -0.892  10.811  18.989  0.00  0.00    +0.000 N 
ATOM     24  C   UNL     1      -1.204  10.164  17.825  0.00  0.00    +0.000 A 
ATOM     25  C   UNL     1      -2.398  10.714  17.426  0.00  0.00    +0.000 A 
ATOM     26  N   UNL     1      -2.818  11.668  18.315  0.00  0.00    +0.000 NA
ATOM     27  C   UNL     1      -1.891  11.705  19.246  0.00  0.00    +0.000 A 
ENDBRANCH  22  23
ENDBRANCH  21  22
ENDBRANCH  20  21
ENDBRANCH  18  20
ENDBRANCH   6  16
TORSDOF 8
ENDMDL
MODEL 7
REMARK VINA RESULT:      -7.0      2.087      6.386
REMARK  Name = 
REMARK  8 active torsions:
REMARK  status: ('A' for Active; 'I' for Inactive)
REMARK    1  A    between atoms: N_1  and  C_2
REMARK    2  A    between atoms: C_2  and  C_3
REMARK    3  A    between atoms: N_6  and  C_7
REMARK    4  A    between atoms: C_12  and  C_13
REMARK    5  A    between atoms: N_15  and  C_16
REMARK    6  A    between atoms: C_16  and  C_17
REMARK    7  A    between atoms: C_17  and  C_18
REMARK    8  A    between atoms: C_18  and  N_19
REMARK                            x       y       z     vdW  Elec       q    Type
REMARK                         _______ _______ _______ _____ _____    ______ ____
ROOT
ATOM      1  C   UNL     1       3.093   3.866  18.633  0.00  0.00    +0.000 A 
ATOM      2  C   UNL     1       2.739   2.498  18.629  0.00  0.00    +0.000 A 
ATOM      3  C   UNL     1       1.643   2.033  19.355  0.00  0.00    +0.000 A 
ATOM      4  C   UNL     1       0.862   2.925  20.075  0.00  0.00    +0.000 A 
ATOM      5  C   UNL     1       1.178   4.284  20.067  0.00  0.00    +0.000 A 
ATOM      6  C   UNL     1       2.299   4.775  19.363  0.00  0.00    +0.000 A 
ENDROOT
BRANCH   1  10
ATOM      7  C   UNL     1       5.805   4.444  16.312  0.00  0.00    +0.000 A 
ATOM      8  C   UNL     1       6.259   4.862  17.575  0.00  0.00    +0.000 A 
ATOM      9  N   UNL     1       5.299   4.840  18.501  0.00  0.00    +0.000 NA
ATOM     10  N   UNL     1       4.247   4.231  17.884  0.00  0.00    +0.000 N 
ATOM     11  C   UNL     1       4.475   4.140  16.529  0.00  0.00    +0.000 A 
BRANCH   7  12
ATOM     12  C   UNL     1       6.566   4.339  15.048  0.00  0.00    +0.000 C 
BRANCH  12  13
ATOM     13  N   UNL     1       7.563   5.395  15.040  0.00  0.00    +0.000 NA
ATOM     14  H   UNL     1       7.139   6.262  15.369  0.00  0.00    +0.000 HD
ATOM     15  H   UNL     1       7.859   5.570  14.076  0.00  0.00    +0.000 HD
ENDBRANCH  12  13
ENDBRANCH   7  12
ENDBRANCH   1  10
BRANCH   6  16
ATOM     16  C   UNL     1       2.443   6.262  19.308  0.00  0.00    +0.000 C 
ATOM     17  O   UNL     1       2.419   6.940  20.325  0.00  0.00    +0.000 OA
ATOM     18  N   UNL     1       2.634   6.807  18.049  0.00  0.00    +0.000 N 
ATOM     19  H   UNL     1       2.577   6.210  17.234  0.00  0.00    +0.000 HD
BRANCH  18  20
ATOM     20  C   UNL     1       2.768   8.237  17.849  0.00  0.00    +0.000 C 
BRANCH  20  21
ATOM     21  C   UNL     1       1.432   8.974  17.763  0.00  0.00    +0.000 C 
BRANCH  21  22
ATOM     22  C   UNL     1       1.430  10.280  18.554  0.00  0.00    +0.000 C 
BRANCH  22  23
ATOM     23  N   UNL     1       0.126  10.914  18.557  0.00  0.00    +0.000 N 
ATOM     24  C   UNL     1      -1.072  10.299  18.325  0.00  0.00    +0.000 A 
ATOM     25  C   UNL     1      -2.012  11.292  18.467  0.00  0.00    +0.000 A 
ATOM     26  N   UNL     1      -1.417  12.485  18.783  0.00  0.00    +0.000 NA
ATOM     27  C   UNL     1      -0.129  12.228  18.830  0.00  0.00    +0.000 A 
ENDBRANCH  22  23
ENDBRANCH  21  22
ENDBRANCH  20  21
ENDBRANCH  18  20
ENDBRANCH   6  16
TORSDOF 8
ENDMDL
MODEL 8
REMARK VINA RESULT:      -7.0      2.156      3.018
REMARK  Name = 
REMARK  8 active torsions:
REMARK  status: ('A' for Active; 'I' for Inactive)
REMARK    1  A    between atoms: N_1  and  C_2
REMARK    2  A    between atoms: C_2  and  C_3
REMARK    3  A    between atoms: N_6  and  C_7
REMARK    4  A    between atoms: C_12  and  C_13
REMARK    5  A    between atoms: N_15  and  C_16
REMARK    6  A    between atoms: C_16  and  C_17
REMARK    7  A    between atoms: C_17  and  C_18
REMARK    8  A    between atoms: C_18  and  N_19
REMARK                            x       y       z     vdW  Elec       q    Type
REMARK                         _______ _______ _______ _____ _____    ______ ____
ROOT
ATOM      1  C   UNL     1       2.892   4.929  19.597  0.00  0.00    +0.000 A 
ATOM      2  C   UNL     1       1.733   4.458  20.252  0.00  0.00    +0.000 A 
ATOM      3  C   UNL     1       1.696   3.192  20.837  0.00  0.00    +0.000 A 
ATOM      4  C   UNL     1       2.823   2.383  20.804  0.00  0.00    +0.000 A 
ATOM      5  C   UNL     1       3.987   2.843  20.187  0.00  0.00    +0.000 A 
ATOM      6  C   UNL     1       4.039   4.109  19.564  0.00  0.00    +0.000 A 
ENDROOT
BRANCH   1  10
ATOM      7  C   UNL     1       2.214   8.283  18.431  0.00  0.00    +0.000 A 
ATOM      8  C   UNL     1       3.104   7.709  17.508  0.00  0.00    +0.000 A 
ATOM      9  N   UNL     1       3.555   6.516  17.900  0.00  0.00    +0.000 NA
ATOM     10  N   UNL     1       2.814   6.222  19.007  0.00  0.00    +0.000 N 
ATOM     11  C   UNL     1       2.128   7.337  19.434  0.00  0.00    +0.000 A 
BRANCH   7  12
ATOM     12  C   UNL     1       1.517   9.586  18.350  0.00  0.00    +0.000 C 
BRANCH  12  13
ATOM     13  N   UNL     1       2.333  10.477  17.544  0.00  0.00    +0.000 NA
ATOM     14  H   UNL     1       1.754  11.236  17.187  0.00  0.00    +0.000 HD
ATOM     15  H   UNL     1       2.675   9.969  16.724  0.00  0.00    +0.000 HD
ENDBRANCH  12  13
ENDBRANCH   7  12
ENDBRANCH   1  10
BRANCH   6  16
ATOM     16  C   UNL     1       5.382   4.546  19.073  0.00  0.00    +0.000 C 
ATOM     17  O   UNL     1       6.128   5.214  19.773  0.00  0.00    +0.000 OA
ATOM     18  N   UNL     1       5.730   4.121  17.801  0.00  0.00    +0.000 N 
ATOM     19  H   UNL     1       5.049   3.628  17.236  0.00  0.00    +0.000 HD
BRANCH  18  20
ATOM     20  C   UNL     1       6.994   4.489  17.193  0.00  0.00    +0.000 C 
BRANCH  20  21
ATOM     21  C   UNL     1       6.878   5.619  16.169  0.00  0.00    +0.000 C 
BRANCH  21  22
ATOM     22  C   UNL     1       5.705   5.425  15.213  0.00  0.00    +0.000 C 
BRANCH  22  23
ATOM     23  N   UNL     1       6.093   4.717  14.008  0.00  0.00    +0.000 N 
ATOM     24  C   UNL     1       7.269   4.866  13.327  0.00  0.00    +0.000 A 
ATOM     25  C   UNL     1       7.190   3.972  12.288  0.00  0.00    +0.000 A 
ATOM     26  N   UNL     1       6.006   3.285  12.323  0.00  0.00    +0.000 NA
ATOM     27  C   UNL     1       5.364   3.755  13.370  0.00  0.00    +0.000 A 
ENDBRANCH  22  23
ENDBRANCH  21  22
ENDBRANCH  20  21
ENDBRANCH  18  20
ENDBRANCH   6  16
TORSDOF 8
ENDMDL
MODEL 9
REMARK VINA RESULT:      -6.9      2.511      6.379
REMARK  Name = 
REMARK  8 active torsions:
REMARK  status: ('A' for Active; 'I' for Inactive)
REMARK    1  A    between atoms: N_1  and  C_2
REMARK    2  A    between atoms: C_2  and  C_3
REMARK    3  A    between atoms: N_6  and  C_7
REMARK    4  A    between atoms: C_12  and  C_13
REMARK    5  A    between atoms: N_15  and  C_16
REMARK    6  A    between atoms: C_16  and  C_17
REMARK    7  A    between atoms: C_17  and  C_18
REMARK    8  A    between atoms: C_18  and  N_19
REMARK                            x       y       z     vdW  Elec       q    Type
REMARK                         _______ _______ _______ _____ _____    ______ ____
ROOT
ATOM      1  C   UNL     1       3.664   3.796  19.456  0.00  0.00    +0.000 A 
ATOM      2  C   UNL     1       3.806   2.627  20.236  0.00  0.00    +0.000 A 
ATOM      3  C   UNL     1       2.964   2.372  21.318  0.00  0.00    +0.000 A 
ATOM      4  C   UNL     1       1.946   3.263  21.625  0.00  0.00    +0.000 A 
ATOM      5  C   UNL     1       1.771   4.409  20.849  0.00  0.00    +0.000 A 
ATOM      6  C   UNL     1       2.629   4.702  19.766  0.00  0.00    +0.000 A 
ENDROOT
BRANCH   1  10
ATOM      7  C   UNL     1       6.246   4.687  17.087  0.00  0.00    +0.000 A 
ATOM      8  C   UNL     1       5.310   3.906  16.388  0.00  0.00    +0.000 A 
ATOM      9  N   UNL     1       4.375   3.385  17.184  0.00  0.00    +0.000 NA
ATOM     10  N   UNL     1       4.595   3.975  18.394  0.00  0.00    +0.000 N 
ATOM     11  C   UNL     1       5.808   4.626  18.396  0.00  0.00    +0.000 A 
BRANCH   7  12
ATOM     12  C   UNL     1       7.418   5.416  16.555  0.00  0.00    +0.000 C 
BRANCH  12  13
ATOM     13  N   UNL     1       7.448   5.221  15.116  0.00  0.00    +0.000 NA
ATOM     14  H   UNL     1       8.415   5.181  14.800  0.00  0.00    +0.000 HD
ATOM     15  H   UNL     1       7.031   6.036  14.659  0.00  0.00    +0.000 HD
ENDBRANCH  12  13
ENDBRANCH   7  12
ENDBRANCH   1  10
BRANCH   6  16
ATOM     16  C   UNL     1       2.246   5.876  18.923  0.00  0.00    +0.000 C 
ATOM     17  O   UNL     1       1.728   5.727  17.825  0.00  0.00    +0.000 OA
ATOM     18  N   UNL     1       2.486   7.123  19.475  0.00  0.00    +0.000 N 
ATOM     19  H   UNL     1       2.979   7.192  20.356  0.00  0.00    +0.000 HD
BRANCH  18  20
ATOM     20  C   UNL     1       2.181   8.347  18.757  0.00  0.00    +0.000 C 
BRANCH  20  21
ATOM     21  C   UNL     1       1.149   9.230  19.459  0.00  0.00    +0.000 C 
BRANCH  21  22
ATOM     22  C   UNL     1       0.890   8.798  20.900  0.00  0.00    +0.000 C 
BRANCH  22  23
ATOM     23  N   UNL     1       0.149   9.797  21.645  0.00  0.00    +0.000 N 
ATOM     24  C   UNL     1      -0.318  10.986  21.158  0.00  0.00    +0.000 A 
ATOM     25  C   UNL     1      -0.977  11.566  22.215  0.00  0.00    +0.000 A 
ATOM     26  N   UNL     1      -0.925  10.761  23.322  0.00  0.00    +0.000 NA
ATOM     27  C   UNL     1      -0.241   9.703  22.950  0.00  0.00    +0.000 A 
ENDBRANCH  22  23
ENDBRANCH  21  22
ENDBRANCH  20  21
ENDBRANCH  18  20
ENDBRANCH   6  16
TORSDOF 8
ENDMDL
