MODEL 1
REMARK VINA RESULT:      -6.2      0.000      0.000
REMARK  Name = 
REMARK  15 active torsions:
REMARK  status: ('A' for Active; 'I' for Inactive)
REMARK    1  A    between atoms: C_1  and  C_2
REMARK    2  A    between atoms: C_2  and  C_3
REMARK    3  A    between atoms: C_3  and  C_4
REMARK    4  A    between atoms: C_4  and  S_5
REMARK    5  A    between atoms: S_5  and  N_8
REMARK    6  A    between atoms: N_8  and  C_9
REMARK    7  A    between atoms: C_9  and  C_10
REMARK    8  A    between atoms: C_10  and  C_11
REMARK    9  A    between atoms: C_11  and  C_12
REMARK   10  A    between atoms: C_12  and  N_13
REMARK   11  A    between atoms: N_13  and  S_14
REMARK   12  A    between atoms: S_14  and  C_17
REMARK   13  A    between atoms: C_17  and  C_18
REMARK   14  A    between atoms: C_18  and  C_19
REMARK   15  A    between atoms: C_19  and  C_20
REMARK                            x       y       z     vdW  Elec       q    Type
REMARK                         _______ _______ _______ _____ _____    ______ ____
ROOT
ATOM      1  C   UNL     1       3.965   5.509  18.254  0.00  0.00    +0.000 C 
ENDROOT
BRANCH   1   2
ATOM      2  C   UNL     1       5.009   4.934  19.212  0.00  0.00    +0.000 C 
BRANCH   2   3
ATOM      3  N   UNL     1       5.210   3.494  18.964  0.00  0.00    +0.000 NA
ATOM      4  H   UNL     1       5.248   3.197  17.994  0.00  0.00    +0.000 HD
BRANCH   3   5
ATOM      5  S   UNL     1       4.327   2.440  19.949  0.00  0.00    +0.000 S 
ATOM      6  O   UNL     1       3.405   3.230  20.741  0.00  0.00    +0.000 OA
ATOM      7  O   UNL     1       5.280   1.540  20.556  0.00  0.00    +0.000 OA
BRANCH   5   8
ATOM      8  C   UNL     1       3.385   1.503  18.739  0.00  0.00    +0.000 C 
BRANCH   8   9
ATOM      9  C   UNL     1       2.878   2.434  17.644  0.00  0.00    +0.000 C 
BRANCH   9  11
ATOM     10  C   UNL     1       0.722   2.149  18.882  0.00  0.00    +0.000 C 
ATOM     11  C   UNL     1       1.526   3.061  17.966  0.00  0.00    +0.000 C 
ENDBRANCH   9  11
ENDBRANCH   8   9
ENDBRANCH   5   8
ENDBRANCH   3   5
ENDBRANCH   2   3
ENDBRANCH   1   2
BRANCH   1  12
ATOM     12  C   UNL     1       4.397   6.782  17.520  0.00  0.00    +0.000 C 
BRANCH  12  13
ATOM     13  C   UNL     1       4.930   6.551  16.106  0.00  0.00    +0.000 C 
BRANCH  13  14
ATOM     14  N   UNL     1       6.414   6.576  16.106  0.00  0.00    +0.000 NA
ATOM     15  H   UNL     1       6.776   6.796  17.035  0.00  0.00    +0.000 HD
BRANCH  14  16
ATOM     16  S   UNL     1       7.070   5.110  15.550  0.00  0.00    +0.000 S 
ATOM     17  O   UNL     1       8.030   5.480  14.534  0.00  0.00    +0.000 OA
ATOM     18  O   UNL     1       7.459   4.352  16.720  0.00  0.00    +0.000 OA
BRANCH  16  19
ATOM     19  C   UNL     1       5.669   4.313  14.758  0.00  0.00    +0.000 C 
BRANCH  19  20
ATOM     20  C   UNL     1       6.098   3.804  13.387  0.00  0.00    +0.000 C 
BRANCH  20  21
ATOM     21  C   UNL     1       4.921   3.571  12.442  0.00  0.00    +0.000 C 
ATOM     22  C   UNL     1       5.209   2.405  11.507  0.00  0.00    +0.000 C 
ENDBRANCH  20  21
ENDBRANCH  19  20
ENDBRANCH  16  19
ENDBRANCH  14  16
ENDBRANCH  13  14
ENDBRANCH  12  13
ENDBRANCH   1  12
TORSDOF 13
ENDMDL
MODEL 2
REMARK VINA RESULT:      -6.1      1.824      2.282
REMARK  Name = 
REMARK  15 active torsions:
REMARK  status: ('A' for Active; 'I' for Inactive)
REMARK    1  A    between atoms: C_1  and  C_2
REMARK    2  A    between atoms: C_2  and  C_3
REMARK    3  A    between atoms: C_3  and  C_4
REMARK    4  A    between atoms: C_4  and  S_5
REMARK    5  A    between atoms: S_5  and  N_8
REMARK    6  A    between atoms: N_8  and  C_9
REMARK    7  A    between atoms: C_9  and  C_10
REMARK    8  A    between atoms: C_10  and  C_11
REMARK    9  A    between atoms: C_11  and  C_12
REMARK   10  A    between atoms: C_12  and  N_13
REMARK   11  A    between atoms: N_13  and  S_14
REMARK   12  A    between atoms: S_14  and  C_17
REMARK   13  A    between atoms: C_17  and  C_18
REMARK   14  A    between atoms: C_18  and  C_19
REMARK   15  A    between atoms: C_19  and  C_20
REMARK                            x       y       z     vdW  Elec       q    Type
REMARK                         _______ _______ _______ _____ _____    ______ ____
ROOT
ATOM      1  C   UNL     1       2.766   6.248  19.463  0.00  0.00    +0.000 C 
ENDROOT
BRANCH   1   2
ATOM      2  C   UNL     1       1.804   5.638  20.484  0.00  0.00    +0.000 C 
BRANCH   2   3
ATOM      3  N   UNL     1       2.516   4.710  21.383  0.00  0.00    +0.000 NA
ATOM      4  H   UNL     1       3.519   4.840  21.475  0.00  0.00    +0.000 HD
BRANCH   3   5
ATOM      5  S   UNL     1       2.061   3.085  21.284  0.00  0.00    +0.000 S 
ATOM      6  O   UNL     1       1.298   2.757  22.472  0.00  0.00    +0.000 OA
ATOM      7  O   UNL     1       3.242   2.343  20.905  0.00  0.00    +0.000 OA
BRANCH   5   8
ATOM      8  C   UNL     1       0.948   3.096  19.873  0.00  0.00    +0.000 C 
BRANCH   8   9
ATOM      9  C   UNL     1       1.434   2.105  18.822  0.00  0.00    +0.000 C 
BRANCH   9  11
ATOM     10  C   UNL     1       3.603   2.214  17.576  0.00  0.00    +0.000 C 
ATOM     11  C   UNL     1       2.188   2.767  17.673  0.00  0.00    +0.000 C 
ENDBRANCH   9  11
ENDBRANCH   8   9
ENDBRANCH   5   8
ENDBRANCH   3   5
ENDBRANCH   2   3
ENDBRANCH   1   2
BRANCH   1  12
ATOM     12  C   UNL     1       4.072   5.472  19.265  0.00  0.00    +0.000 C 
BRANCH  12  13
ATOM     13  C   UNL     1       4.968   6.010  18.151  0.00  0.00    +0.000 C 
BRANCH  13  14
ATOM     14  N   UNL     1       6.382   5.632  18.401  0.00  0.00    +0.000 NA
ATOM     15  H   UNL     1       6.444   4.891  19.101  0.00  0.00    +0.000 HD
BRANCH  14  16
ATOM     16  S   UNL     1       7.173   5.161  16.972  0.00  0.00    +0.000 S 
ATOM     17  O   UNL     1       7.531   6.394  16.308  0.00  0.00    +0.000 OA
ATOM     18  O   UNL     1       8.172   4.183  17.347  0.00  0.00    +0.000 OA
BRANCH  16  19
ATOM     19  C   UNL     1       5.869   4.357  16.034  0.00  0.00    +0.000 C 
BRANCH  19  20
ATOM     20  C   UNL     1       6.428   3.911  14.689  0.00  0.00    +0.000 C 
BRANCH  20  21
ATOM     21  C   UNL     1       5.488   4.212  13.523  0.00  0.00    +0.000 C 
ATOM     22  C   UNL     1       5.742   3.250  12.370  0.00  0.00    +0.000 C 
ENDBRANCH  20  21
ENDBRANCH  19  20
ENDBRANCH  16  19
ENDBRANCH  14  16
ENDBRANCH  13  14
ENDBRANCH  12  13
ENDBRANCH   1  12
TORSDOF 13
ENDMDL
MODEL 3
REMARK VINA RESULT:      -5.9      2.072      3.196
REMARK  Name = 
REMARK  15 active torsions:
REMARK  status: ('A' for Active; 'I' for Inactive)
REMARK    1  A    between atoms: C_1  and  C_2
REMARK    2  A    between atoms: C_2  and  C_3
REMARK    3  A    between atoms: C_3  and  C_4
REMARK    4  A    between atoms: C_4  and  S_5
REMARK    5  A    between atoms: S_5  and  N_8
REMARK    6  A    between atoms: N_8  and  C_9
REMARK    7  A    between atoms: C_9  and  C_10
REMARK    8  A    between atoms: C_10  and  C_11
REMARK    9  A    between atoms: C_11  and  C_12
REMARK   10  A    between atoms: C_12  and  N_13
REMARK   11  A    between atoms: N_13  and  S_14
REMARK   12  A    between atoms: S_14  and  C_17
REMARK   13  A    between atoms: C_17  and  C_18
REMARK   14  A    between atoms: C_18  and  C_19
REMARK   15  A    between atoms: C_19  and  C_20
REMARK                            x       y       z     vdW  Elec       q    Type
REMARK                         _______ _______ _______ _____ _____    ______ ____
ROOT
ATOM      1  C   UNL     1       3.294   2.220  17.643  0.00  0.00    +0.000 C 
ENDROOT
BRANCH   1   2
ATOM      2  C   UNL     1       2.398   1.811  18.814  0.00  0.00    +0.000 C 
BRANCH   2   3
ATOM      3  N   UNL     1       2.895   2.385  20.078  0.00  0.00    +0.000 NA
ATOM      4  H   UNL     1       3.441   1.772  20.677  0.00  0.00    +0.000 HD
BRANCH   3   5
ATOM      5  S   UNL     1       1.805   3.354  20.934  0.00  0.00    +0.000 S 
ATOM      6  O   UNL     1       1.813   2.926  22.319  0.00  0.00    +0.000 OA
ATOM      7  O   UNL     1       0.589   3.400  20.155  0.00  0.00    +0.000 OA
BRANCH   5   8
ATOM      8  C   UNL     1       2.583   4.970  20.828  0.00  0.00    +0.000 C 
BRANCH   8   9
ATOM      9  C   UNL     1       1.634   5.958  20.159  0.00  0.00    +0.000 C 
BRANCH   9  11
ATOM     10  C   UNL     1       2.483   7.353  18.262  0.00  0.00    +0.000 C 
ATOM     11  C   UNL     1       2.307   7.271  19.772  0.00  0.00    +0.000 C 
ENDBRANCH   9  11
ENDBRANCH   8   9
ENDBRANCH   5   8
ENDBRANCH   3   5
ENDBRANCH   2   3
ENDBRANCH   1   2
BRANCH   1  12
ATOM     12  C   UNL     1       3.314   3.722  17.343  0.00  0.00    +0.000 C 
BRANCH  12  13
ATOM     13  C   UNL     1       4.661   4.402  17.588  0.00  0.00    +0.000 C 
BRANCH  13  14
ATOM     14  N   UNL     1       5.655   3.947  16.583  0.00  0.00    +0.000 NA
ATOM     15  H   UNL     1       5.215   3.361  15.873  0.00  0.00    +0.000 HD
BRANCH  14  16
ATOM     16  S   UNL     1       6.458   5.256  15.853  0.00  0.00    +0.000 S 
ATOM     17  O   UNL     1       5.448   6.275  15.677  0.00  0.00    +0.000 OA
ATOM     18  O   UNL     1       7.655   5.500  16.627  0.00  0.00    +0.000 OA
BRANCH  16  19
ATOM     19  C   UNL     1       6.908   4.606  14.240  0.00  0.00    +0.000 C 
BRANCH  19  20
ATOM     20  C   UNL     1       5.675   3.991  13.590  0.00  0.00    +0.000 C 
BRANCH  20  21
ATOM     21  C   UNL     1       5.963   3.383  12.219  0.00  0.00    +0.000 C 
ATOM     22  C   UNL     1       4.664   3.054  11.497  0.00  0.00    +0.000 C 
ENDBRANCH  20  21
ENDBRANCH  19  20
ENDBRANCH  16  19
ENDBRANCH  14  16
ENDBRANCH  13  14
ENDBRANCH  12  13
ENDBRANCH   1  12
TORSDOF 13
ENDMDL
MODEL 4
REMARK VINA RESULT:      -5.8      2.474      6.244
REMARK  Name = 
REMARK  15 active torsions:
REMARK  status: ('A' for Active; 'I' for Inactive)
REMARK    1  A    between atoms: C_1  and  C_2
REMARK    2  A    between atoms: C_2  and  C_3
REMARK    3  A    between atoms: C_3  and  C_4
REMARK    4  A    between atoms: C_4  and  S_5
REMARK    5  A    between atoms: S_5  and  N_8
REMARK    6  A    between atoms: N_8  and  C_9
REMARK    7  A    between atoms: C_9  and  C_10
REMARK    8  A    between atoms: C_10  and  C_11
REMARK    9  A    between atoms: C_11  and  C_12
REMARK   10  A    between atoms: C_12  and  N_13
REMARK   11  A    between atoms: N_13  and  S_14
REMARK   12  A    between atoms: S_14  and  C_17
REMARK   13  A    between atoms: C_17  and  C_18
REMARK   14  A    between atoms: C_18  and  C_19
REMARK   15  A    between atoms: C_19  and  C_20
REMARK                            x       y       z     vdW  Elec       q    Type
REMARK                         _______ _______ _______ _____ _____    ______ ____
ROOT
ATOM      1  C   UNL     1       3.023   4.651  17.573  0.00  0.00    +0.000 C 
ENDROOT
BRANCH   1   2
ATOM      2  C   UNL     1       3.554   3.937  16.329  0.00  0.00    +0.000 C 
BRANCH   2   3
ATOM      3  N   UNL     1       5.029   3.906  16.333  0.00  0.00    +0.000 NA
ATOM      4  H   UNL     1       5.487   3.990  17.236  0.00  0.00    +0.000 HD
BRANCH   3   5
ATOM      5  S   UNL     1       5.794   4.793  15.113  0.00  0.00    +0.000 S 
ATOM      6  O   UNL     1       5.281   6.148  15.152  0.00  0.00    +0.000 OA
ATOM      7  O   UNL     1       5.737   3.987  13.915  0.00  0.00    +0.000 OA
BRANCH   5   8
ATOM      8  C   UNL     1       7.500   4.809  15.680  0.00  0.00    +0.000 C 
BRANCH   8   9
ATOM      9  C   UNL     1       7.541   4.697  17.199  0.00  0.00    +0.000 C 
BRANCH   9  11
ATOM     10  C   UNL     1       7.975   5.879  19.362  0.00  0.00    +0.000 C 
ATOM     11  C   UNL     1       7.582   6.050  17.901  0.00  0.00    +0.000 C 
ENDBRANCH   9  11
ENDBRANCH   8   9
ENDBRANCH   5   8
ENDBRANCH   3   5
ENDBRANCH   2   3
ENDBRANCH   1   2
BRANCH   1  12
ATOM     12  C   UNL     1       4.082   5.404  18.383  0.00  0.00    +0.000 C 
BRANCH  12  13
ATOM     13  C   UNL     1       4.488   4.722  19.689  0.00  0.00    +0.000 C 
BRANCH  13  14
ATOM     14  N   UNL     1       5.224   3.464  19.405  0.00  0.00    +0.000 NA
ATOM     15  H   UNL     1       6.181   3.513  19.759  0.00  0.00    +0.000 HD
BRANCH  14  16
ATOM     16  S   UNL     1       4.427   2.107  20.046  0.00  0.00    +0.000 S 
ATOM     17  O   UNL     1       3.989   1.343  18.899  0.00  0.00    +0.000 OA
ATOM     18  O   UNL     1       5.304   1.537  21.046  0.00  0.00    +0.000 OA
BRANCH  16  19
ATOM     19  C   UNL     1       2.988   2.823  20.847  0.00  0.00    +0.000 C 
BRANCH  19  20
ATOM     20  C   UNL     1       1.733   2.363  20.116  0.00  0.00    +0.000 C 
BRANCH  20  21
ATOM     21  C   UNL     1       0.578   3.356  20.231  0.00  0.00    +0.000 C 
ATOM     22  C   UNL     1       1.101   4.747  20.561  0.00  0.00    +0.000 C 
ENDBRANCH  20  21
ENDBRANCH  19  20
ENDBRANCH  16  19
ENDBRANCH  14  16
ENDBRANCH  13  14
ENDBRANCH  12  13
ENDBRANCH   1  12
TORSDOF 13
ENDMDL
MODEL 5
REMARK VINA RESULT:      -5.8      1.528      6.175
REMARK  Name = 
REMARK  15 active torsions:
REMARK  status: ('A' for Active; 'I' for Inactive)
REMARK    1  A    between atoms: C_1  and  C_2
REMARK    2  A    between atoms: C_2  and  C_3
REMARK    3  A    between atoms: C_3  and  C_4
REMARK    4  A    between atoms: C_4  and  S_5
REMARK    5  A    between atoms: S_5  and  N_8
REMARK    6  A    between atoms: N_8  and  C_9
REMARK    7  A    between atoms: C_9  and  C_10
REMARK    8  A    between atoms: C_10  and  C_11
REMARK    9  A    between atoms: C_11  and  C_12
REMARK   10  A    between atoms: C_12  and  N_13
REMARK   11  A    between atoms: N_13  and  S_14
REMARK   12  A    between atoms: S_14  and  C_17
REMARK   13  A    between atoms: C_17  and  C_18
REMARK   14  A    between atoms: C_18  and  C_19
REMARK   15  A    between atoms: C_19  and  C_20
REMARK                            x       y       z     vdW  Elec       q    Type
REMARK                         _______ _______ _______ _____ _____    ______ ____
ROOT
ATOM      1  C   UNL     1       4.731   6.865  17.600  0.00  0.00    +0.000 C 
ENDROOT
BRANCH   1   2
ATOM      2  C   UNL     1       5.588   6.623  16.356  0.00  0.00    +0.000 C 
BRANCH   2   3
ATOM      3  N   UNL     1       5.137   5.416  15.637  0.00  0.00    +0.000 NA
ATOM      4  H   UNL     1       4.228   5.043  15.893  0.00  0.00    +0.000 HD
BRANCH   3   5
ATOM      5  S   UNL     1       6.305   4.218  15.393  0.00  0.00    +0.000 S 
ATOM      6  O   UNL     1       5.780   2.966  15.902  0.00  0.00    +0.000 OA
ATOM      7  O   UNL     1       7.563   4.762  15.851  0.00  0.00    +0.000 OA
BRANCH   5   8
ATOM      8  C   UNL     1       6.371   4.125  13.599  0.00  0.00    +0.000 C 
BRANCH   8   9
ATOM      9  C   UNL     1       4.997   3.761  13.049  0.00  0.00    +0.000 C 
BRANCH   9  11
ATOM     10  C   UNL     1       5.770   1.932  11.525  0.00  0.00    +0.000 C 
ATOM     11  C   UNL     1       5.039   3.265  11.607  0.00  0.00    +0.000 C 
ENDBRANCH   9  11
ENDBRANCH   8   9
ENDBRANCH   5   8
ENDBRANCH   3   5
ENDBRANCH   2   3
ENDBRANCH   1   2
BRANCH   1  12
ATOM     12  C   UNL     1       3.953   5.641  18.093  0.00  0.00    +0.000 C 
BRANCH  12  13
ATOM     13  C   UNL     1       4.657   4.839  19.188  0.00  0.00    +0.000 C 
BRANCH  13  14
ATOM     14  N   UNL     1       5.024   3.492  18.683  0.00  0.00    +0.000 NA
ATOM     15  H   UNL     1       6.037   3.365  18.686  0.00  0.00    +0.000 HD
BRANCH  14  16
ATOM     16  S   UNL     1       4.272   2.257  19.575  0.00  0.00    +0.000 S 
ATOM     17  O   UNL     1       3.509   1.497  18.611  0.00  0.00    +0.000 OA
ATOM     18  O   UNL     1       5.299   1.638  20.386  0.00  0.00    +0.000 OA
BRANCH  16  19
ATOM     19  C   UNL     1       3.133   3.157  20.633  0.00  0.00    +0.000 C 
BRANCH  19  20
ATOM     20  C   UNL     1       1.713   2.684  20.349  0.00  0.00    +0.000 C 
BRANCH  20  21
ATOM     21  C   UNL     1       0.732   3.835  20.136  0.00  0.00    +0.000 C 
ATOM     22  C   UNL     1       1.327   5.144  20.638  0.00  0.00    +0.000 C 
ENDBRANCH  20  21
ENDBRANCH  19  20
ENDBRANCH  16  19
ENDBRANCH  14  16
ENDBRANCH  13  14
ENDBRANCH  12  13
ENDBRANCH   1  12
TORSDOF 13
ENDMDL
MODEL 6
REMARK VINA RESULT:      -5.7      1.934      2.348
REMARK  Name = 
REMARK  15 active torsions:
REMARK  status: ('A' for Active; 'I' for Inactive)
REMARK    1  A    between atoms: C_1  and  C_2
REMARK    2  A    between atoms: C_2  and  C_3
REMARK    3  A    between atoms: C_3  and  C_4
REMARK    4  A    between atoms: C_4  and  S_5
REMARK    5  A    between atoms: S_5  and  N_8
REMARK    6  A    between atoms: N_8  and  C_9
REMARK    7  A    between atoms: C_9  and  C_10
REMARK    8  A    between atoms: C_10  and  C_11
REMARK    9  A    between atoms: C_11  and  C_12
REMARK   10  A    between atoms: C_12  and  N_13
REMARK   11  A    between atoms: N_13  and  S_14
REMARK   12  A    between atoms: S_14  and  C_17
REMARK   13  A    between atoms: C_17  and  C_18
REMARK   14  A    between atoms: C_18  and  C_19
REMARK   15  A    between atoms: C_19  and  C_20
REMARK                            x       y       z     vdW  Elec       q    Type
REMARK                         _______ _______ _______ _____ _____    ______ ____
ROOT
ATOM      1  C   UNL     1       5.306   5.510  18.427  0.00  0.00    +0.000 C 
ENDROOT
BRANCH   1   2
ATOM      2  C   UNL     1       5.027   4.460  19.504  0.00  0.00    +0.000 C 
BRANCH   2   3
ATOM      3  N   UNL     1       5.113   3.099  18.941  0.00  0.00    +0.000 NA
ATOM      4  H   UNL     1       5.865   2.922  18.281  0.00  0.00    +0.000 HD
BRANCH   3   5
ATOM      5  S   UNL     1       3.648   2.389  18.486  0.00  0.00    +0.000 S 
ATOM      6  O   UNL     1       3.868   0.965  18.324  0.00  0.00    +0.000 OA
ATOM      7  O   UNL     1       3.102   3.204  17.424  0.00  0.00    +0.000 OA
BRANCH   5   8
ATOM      8  C   UNL     1       2.638   2.651  19.949  0.00  0.00    +0.000 C 
BRANCH   8   9
ATOM      9  C   UNL     1       1.309   3.285  19.554  0.00  0.00    +0.000 C 
BRANCH   9  11
ATOM     10  C   UNL     1       1.936   5.578  20.340  0.00  0.00    +0.000 C 
ATOM     11  C   UNL     1       0.912   4.456  20.447  0.00  0.00    +0.000 C 
ENDBRANCH   9  11
ENDBRANCH   8   9
ENDBRANCH   5   8
ENDBRANCH   3   5
ENDBRANCH   2   3
ENDBRANCH   1   2
BRANCH   1  12
ATOM     12  C   UNL     1       6.788   5.719  18.100  0.00  0.00    +0.000 C 
BRANCH  12  13
ATOM     13  C   UNL     1       7.448   4.553  17.367  0.00  0.00    +0.000 C 
BRANCH  13  14
ATOM     14  N   UNL     1       6.569   4.071  16.271  0.00  0.00    +0.000 NA
ATOM     15  H   UNL     1       5.606   3.969  16.594  0.00  0.00    +0.000 HD
BRANCH  14  16
ATOM     16  S   UNL     1       6.632   5.093  14.915  0.00  0.00    +0.000 S 
ATOM     17  O   UNL     1       5.407   5.860  14.956  0.00  0.00    +0.000 OA
ATOM     18  O   UNL     1       7.929   5.735  14.932  0.00  0.00    +0.000 OA
BRANCH  16  19
ATOM     19  C   UNL     1       6.550   3.945  13.537  0.00  0.00    +0.000 C 
BRANCH  19  20
ATOM     20  C   UNL     1       5.088   3.649  13.224  0.00  0.00    +0.000 C 
BRANCH  20  21
ATOM     21  C   UNL     1       4.845   3.335  11.749  0.00  0.00    +0.000 C 
ATOM     22  C   UNL     1       5.495   2.011  11.371  0.00  0.00    +0.000 C 
ENDBRANCH  20  21
ENDBRANCH  19  20
ENDBRANCH  16  19
ENDBRANCH  14  16
ENDBRANCH  13  14
ENDBRANCH  12  13
ENDBRANCH   1  12
TORSDOF 13
ENDMDL
MODEL 7
REMARK VINA RESULT:      -5.7      2.267      6.315
REMARK  Name = 
REMARK  15 active torsions:
REMARK  status: ('A' for Active; 'I' for Inactive)
REMARK    1  A    between atoms: C_1  and  C_2
REMARK    2  A    between atoms: C_2  and  C_3
REMARK    3  A    between atoms: C_3  and  C_4
REMARK    4  A    between atoms: C_4  and  S_5
REMARK    5  A    between atoms: S_5  and  N_8
REMARK    6  A    between atoms: N_8  and  C_9
REMARK    7  A    between atoms: C_9  and  C_10
REMARK    8  A    between atoms: C_10  and  C_11
REMARK    9  A    between atoms: C_11  and  C_12
REMARK   10  A    between atoms: C_12  and  N_13
REMARK   11  A    between atoms: N_13  and  S_14
REMARK   12  A    between atoms: S_14  and  C_17
REMARK   13  A    between atoms: C_17  and  C_18
REMARK   14  A    between atoms: C_18  and  C_19
REMARK   15  A    between atoms: C_19  and  C_20
REMARK                            x       y       z     vdW  Elec       q    Type
REMARK                         _______ _______ _______ _____ _____    ______ ____
ROOT
ATOM      1  C   UNL     1       5.482   4.784  19.423  0.00  0.00    +0.000 C 
ENDROOT
BRANCH   1   2
ATOM      2  C   UNL     1       6.107   5.406  18.173  0.00  0.00    +0.000 C 
BRANCH   2   3
ATOM      3  N   UNL     1       5.456   4.893  16.953  0.00  0.00    +0.000 NA
ATOM      4  H   UNL     1       5.312   3.889  16.897  0.00  0.00    +0.000 HD
BRANCH   3   5
ATOM      5  S   UNL     1       5.972   5.573  15.493  0.00  0.00    +0.000 S 
ATOM      6  O   UNL     1       7.422   5.585  15.489  0.00  0.00    +0.000 OA
ATOM      7  O   UNL     1       5.197   6.777  15.298  0.00  0.00    +0.000 OA
BRANCH   5   8
ATOM      8  C   UNL     1       5.404   4.358  14.296  0.00  0.00    +0.000 C 
BRANCH   8   9
ATOM      9  C   UNL     1       6.588   3.833  13.492  0.00  0.00    +0.000 C 
BRANCH   9  11
ATOM     10  C   UNL     1       4.708   3.279  11.934  0.00  0.00    +0.000 C 
ATOM     11  C   UNL     1       6.217   3.435  12.067  0.00  0.00    +0.000 C 
ENDBRANCH   9  11
ENDBRANCH   8   9
ENDBRANCH   5   8
ENDBRANCH   3   5
ENDBRANCH   2   3
ENDBRANCH   1   2
BRANCH   1  12
ATOM     12  C   UNL     1       4.901   3.381  19.222  0.00  0.00    +0.000 C 
BRANCH  12  13
ATOM     13  C   UNL     1       3.650   3.087  20.049  0.00  0.00    +0.000 C 
BRANCH  13  14
ATOM     14  N   UNL     1       2.772   2.128  19.330  0.00  0.00    +0.000 NA
ATOM     15  H   UNL     1       2.291   1.512  19.986  0.00  0.00    +0.000 HD
BRANCH  14  16
ATOM     16  S   UNL     1       1.648   2.925  18.335  0.00  0.00    +0.000 S 
ATOM     17  O   UNL     1       2.256   2.962  17.024  0.00  0.00    +0.000 OA
ATOM     18  O   UNL     1       0.366   2.292  18.559  0.00  0.00    +0.000 OA
BRANCH  16  19
ATOM     19  C   UNL     1       1.621   4.590  19.007  0.00  0.00    +0.000 C 
BRANCH  19  20
ATOM     20  C   UNL     1       1.979   5.577  17.903  0.00  0.00    +0.000 C 
BRANCH  20  21
ATOM     21  C   UNL     1       2.669   6.834  18.426  0.00  0.00    +0.000 C 
ATOM     22  C   UNL     1       2.183   7.165  19.831  0.00  0.00    +0.000 C 
ENDBRANCH  20  21
ENDBRANCH  19  20
ENDBRANCH  16  19
ENDBRANCH  14  16
ENDBRANCH  13  14
ENDBRANCH  12  13
ENDBRANCH   1  12
TORSDOF 13
ENDMDL
MODEL 8
REMARK VINA RESULT:      -5.7      1.902      6.706
REMARK  Name = 
REMARK  15 active torsions:
REMARK  status: ('A' for Active; 'I' for Inactive)
REMARK    1  A    between atoms: C_1  and  C_2
REMARK    2  A    between atoms: C_2  and  C_3
REMARK    3  A    between atoms: C_3  and  C_4
REMARK    4  A    between atoms: C_4  and  S_5
REMARK    5  A    between atoms: S_5  and  N_8
REMARK    6  A    between atoms: N_8  and  C_9
REMARK    7  A    between atoms: C_9  and  C_10
REMARK    8  A    between atoms: C_10  and  C_11
REMARK    9  A    between atoms: C_11  and  C_12
REMARK   10  A    between atoms: C_12  and  N_13
REMARK   11  A    between atoms: N_13  and  S_14
REMARK   12  A    between atoms: S_14  and  C_17
REMARK   13  A    between atoms: C_17  and  C_18
REMARK   14  A    between atoms: C_18  and  C_19
REMARK   15  A    between atoms: C_19  and  C_20
REMARK                            x       y       z     vdW  Elec       q    Type
REMARK                         _______ _______ _______ _____ _____    ______ ____
ROOT
ATOM      1  C   UNL     1       4.868   5.758  17.487  0.00  0.00    +0.000 C 
ENDROOT
BRANCH   1   2
ATOM      2  C   UNL     1       4.801   5.515  15.979  0.00  0.00    +0.000 C 
BRANCH   2   3
ATOM      3  N   UNL     1       5.987   6.079  15.306  0.00  0.00    +0.000 NA
ATOM      4  H   UNL     1       5.820   6.789  14.600  0.00  0.00    +0.000 HD
BRANCH   3   5
ATOM      5  S   UNL     1       7.187   4.972  14.865  0.00  0.00    +0.000 S 
ATOM      6  O   UNL     1       7.801   4.466  16.077  0.00  0.00    +0.000 OA
ATOM      7  O   UNL     1       7.963   5.594  13.817  0.00  0.00    +0.000 OA
BRANCH   5   8
ATOM      8  C   UNL     1       6.220   3.653  14.119  0.00  0.00    +0.000 C 
BRANCH   8   9
ATOM      9  C   UNL     1       6.382   3.687  12.604  0.00  0.00    +0.000 C 
BRANCH   9  11
ATOM     10  C   UNL     1       4.282   3.282  11.304  0.00  0.00    +0.000 C 
ATOM     11  C   UNL     1       5.535   2.642  11.884  0.00  0.00    +0.000 C 
ENDBRANCH   9  11
ENDBRANCH   8   9
ENDBRANCH   5   8
ENDBRANCH   3   5
ENDBRANCH   2   3
ENDBRANCH   1   2
BRANCH   1  12
ATOM     12  C   UNL     1       5.108   4.502  18.331  0.00  0.00    +0.000 C 
BRANCH  12  13
ATOM     13  C   UNL     1       4.278   3.288  17.915  0.00  0.00    +0.000 C 
BRANCH  13  14
ATOM     14  N   UNL     1       2.829   3.600  18.007  0.00  0.00    +0.000 NA
ATOM     15  H   UNL     1       2.349   3.360  17.138  0.00  0.00    +0.000 HD
BRANCH  14  16
ATOM     16  S   UNL     1       2.096   2.815  19.323  0.00  0.00    +0.000 S 
ATOM     17  O   UNL     1       1.274   1.777  18.742  0.00  0.00    +0.000 OA
ATOM     18  O   UNL     1       3.148   2.508  20.269  0.00  0.00    +0.000 OA
BRANCH  16  19
ATOM     19  C   UNL     1       1.025   4.084  20.008  0.00  0.00    +0.000 C 
BRANCH  19  20
ATOM     20  C   UNL     1       1.878   5.106  20.748  0.00  0.00    +0.000 C 
BRANCH  20  21
ATOM     21  C   UNL     1       2.226   6.324  19.894  0.00  0.00    +0.000 C 
ATOM     22  C   UNL     1       1.814   7.608  20.600  0.00  0.00    +0.000 C 
ENDBRANCH  20  21
ENDBRANCH  19  20
ENDBRANCH  16  19
ENDBRANCH  14  16
ENDBRANCH  13  14
ENDBRANCH  12  13
ENDBRANCH   1  12
TORSDOF 13
ENDMDL
MODEL 9
REMARK VINA RESULT:      -5.7      2.584      4.188
REMARK  Name = 
REMARK  15 active torsions:
REMARK  status: ('A' for Active; 'I' for Inactive)
REMARK    1  A    between atoms: C_1  and  C_2
REMARK    2  A    between atoms: C_2  and  C_3
REMARK    3  A    between atoms: C_3  and  C_4
REMARK    4  A    between atoms: C_4  and  S_5
REMARK    5  A    between atoms: S_5  and  N_8
REMARK    6  A    between atoms: N_8  and  C_9
REMARK    7  A    between atoms: C_9  and  C_10
REMARK    8  A    between atoms: C_10  and  C_11
REMARK    9  A    between atoms: C_11  and  C_12
REMARK   10  A    between atoms: C_12  and  N_13
REMARK   11  A    between atoms: N_13  and  S_14
REMARK   12  A    between atoms: S_14  and  C_17
REMARK   13  A    between atoms: C_17  and  C_18
REMARK   14  A    between atoms: C_18  and  C_19
REMARK   15  A    between atoms: C_19  and  C_20
REMARK                            x       y       z     vdW  Elec       q    Type
REMARK                         _______ _______ _______ _____ _____    ______ ____
ROOT
ATOM      1  C   UNL     1       4.569   3.296  18.792  0.00  0.00    +0.000 C 
ENDROOT
BRANCH   1   2
ATOM      2  C   UNL     1       4.374   2.109  19.736  0.00  0.00    +0.000 C 
BRANCH   2   3
ATOM      3  N   UNL     1       3.837   2.557  21.035  0.00  0.00    +0.000 NA
ATOM      4  H   UNL     1       4.174   2.075  21.862  0.00  0.00    +0.000 HD
BRANCH   3   5
ATOM      5  S   UNL     1       2.177   2.878  21.082  0.00  0.00    +0.000 S 
ATOM      6  O   UNL     1       1.631   2.256  22.272  0.00  0.00    +0.000 OA
ATOM      7  O   UNL     1       1.660   2.591  19.763  0.00  0.00    +0.000 OA
BRANCH   5   8
ATOM      8  C   UNL     1       2.149   4.661  21.303  0.00  0.00    +0.000 C 
BRANCH   8   9
ATOM      9  C   UNL     1       1.617   5.330  20.041  0.00  0.00    +0.000 C 
BRANCH   9  11
ATOM     10  C   UNL     1       2.787   6.553  18.197  0.00  0.00    +0.000 C 
ATOM     11  C   UNL     1       2.380   6.596  19.664  0.00  0.00    +0.000 C 
ENDBRANCH   9  11
ENDBRANCH   8   9
ENDBRANCH   5   8
ENDBRANCH   3   5
ENDBRANCH   2   3
ENDBRANCH   1   2
BRANCH   1  12
ATOM     12  C   UNL     1       4.161   3.036  17.338  0.00  0.00    +0.000 C 
BRANCH  12  13
ATOM     13  C   UNL     1       4.635   4.096  16.345  0.00  0.00    +0.000 C 
BRANCH  13  14
ATOM     14  N   UNL     1       5.958   3.720  15.783  0.00  0.00    +0.000 NA
ATOM     15  H   UNL     1       5.892   3.551  14.779  0.00  0.00    +0.000 HD
BRANCH  14  16
ATOM     16  S   UNL     1       7.140   4.898  16.107  0.00  0.00    +0.000 S 
ATOM     17  O   UNL     1       7.976   4.327  17.139  0.00  0.00    +0.000 OA
ATOM     18  O   UNL     1       7.684   5.309  14.832  0.00  0.00    +0.000 OA
BRANCH  16  19
ATOM     19  C   UNL     1       6.187   6.245  16.816  0.00  0.00    +0.000 C 
BRANCH  19  20
ATOM     20  C   UNL     1       6.977   6.863  17.962  0.00  0.00    +0.000 C 
BRANCH  20  21
ATOM     21  C   UNL     1       8.137   7.735  17.486  0.00  0.00    +0.000 C 
ATOM     22  C   UNL     1       7.907   9.189  17.875  0.00  0.00    +0.000 C 
ENDBRANCH  20  21
ENDBRANCH  19  20
ENDBRANCH  16  19
ENDBRANCH  14  16
ENDBRANCH  13  14
ENDBRANCH  12  13
ENDBRANCH   1  12
TORSDOF 13
ENDMDL
