MODEL 1
REMARK VINA RESULT:      -7.0      0.000      0.000
REMARK  Name = 
REMARK  7 active torsions:
REMARK  status: ('A' for Active; 'I' for Inactive)
REMARK    1  A    between atoms: C_1  and  C_2
REMARK    2  A    between atoms: C_2  and  C_3
REMARK    3  A    between atoms: C_5  and  O_6
REMARK    4  A    between atoms: C_8  and  C_9
REMARK    5  A    between atoms: C_14  and  C_16
REMARK    6  A    between atoms: C_16  and  O_17
REMARK    7  A    between atoms: O_17  and  C_18
REMARK                            x       y       z     vdW  Elec       q    Type
REMARK                         _______ _______ _______ _____ _____    ______ ____
ROOT
ATOM      1  C   UNL     1       6.554   4.894  17.040  0.00  0.00    +0.000 A 
ATOM      2  C   UNL     1       7.547   5.113  17.975  0.00  0.00    +0.000 A 
ATOM      3  C   UNL     1       7.116   5.312  19.262  0.00  0.00    +0.000 A 
ATOM      4  N   UNL     1       5.833   5.313  19.632  0.00  0.00    +0.000 NA
ATOM      5  C   UNL     1       4.928   5.138  18.660  0.00  0.00    +0.000 A 
ATOM      6  N   UNL     1       5.244   4.911  17.368  0.00  0.00    +0.000 NA
ENDROOT
BRANCH   5   7
ATOM      7  C   UNL     1       3.459   5.275  19.003  0.00  0.00    +0.000 C 
ATOM      8  C   UNL     1       3.150   6.707  19.466  0.00  0.00    +0.000 C 
ATOM      9  C   UNL     1       1.782   6.590  20.112  0.00  0.00    +0.000 C 
ATOM     10  C   UNL     1       1.770   5.187  20.703  0.00  0.00    +0.000 C 
ATOM     11  N   UNL     1       2.882   4.474  20.093  0.00  0.00    +0.000 N 
ATOM     12  C   UNL     1       3.056   3.147  20.425  0.00  0.00    +0.000 C 
ATOM     13  O   UNL     1       2.305   2.613  21.247  0.00  0.00    +0.000 OA
BRANCH  12  14
ATOM     14  C   UNL     1       4.211   2.364  19.775  0.00  0.00    +0.000 C 
BRANCH  14  15
ATOM     15  O   UNL     1       3.875   1.383  18.801  0.00  0.00    +0.000 OA
ATOM     16  C   UNL     1       3.001   1.886  17.800  0.00  0.00    +0.000 C 
ENDBRANCH  14  15
ENDBRANCH  12  14
ENDBRANCH   5   7
BRANCH   1  18
ATOM     17  C   UNL     1       5.660   4.229  14.798  0.00  0.00    +0.000 C 
ATOM     18  C   UNL     1       6.893   4.608  15.602  0.00  0.00    +0.000 C 
ENDBRANCH   1  18
BRANCH   3  19
ATOM     19  O   UNL     1       7.989   5.559  20.278  0.00  0.00    +0.000 OA
ATOM     20  H   UNL     1       7.821   4.933  20.991  0.00  0.00    +0.000 HD
ENDBRANCH   3  19
TORSDOF 5
ENDMDL
MODEL 2
REMARK VINA RESULT:      -6.9      2.283      4.361
REMARK  Name = 
REMARK  7 active torsions:
REMARK  status: ('A' for Active; 'I' for Inactive)
REMARK    1  A    between atoms: C_1  and  C_2
REMARK    2  A    between atoms: C_2  and  C_3
REMARK    3  A    between atoms: C_5  and  O_6
REMARK    4  A    between atoms: C_8  and  C_9
REMARK    5  A    between atoms: C_14  and  C_16
REMARK    6  A    between atoms: C_16  and  O_17
REMARK    7  A    between atoms: O_17  and  C_18
REMARK                            x       y       z     vdW  Elec       q    Type
REMARK                         _______ _______ _______ _____ _____    ______ ____
ROOT
ATOM      1  C   UNL     1       7.811   7.456  17.843  0.00  0.00    +0.000 A 
ATOM      2  C   UNL     1       8.213   7.025  19.092  0.00  0.00    +0.000 A 
ATOM      3  C   UNL     1       8.177   5.668  19.290  0.00  0.00    +0.000 A 
ATOM      4  N   UNL     1       7.778   4.786  18.371  0.00  0.00    +0.000 NA
ATOM      5  C   UNL     1       7.360   5.286  17.200  0.00  0.00    +0.000 A 
ATOM      6  N   UNL     1       7.377   6.600  16.893  0.00  0.00    +0.000 NA
ENDROOT
BRANCH   5   7
ATOM      7  C   UNL     1       6.763   4.341  16.179  0.00  0.00    +0.000 C 
ATOM      8  C   UNL     1       7.110   4.804  14.755  0.00  0.00    +0.000 C 
ATOM      9  C   UNL     1       6.161   4.010  13.876  0.00  0.00    +0.000 C 
ATOM     10  C   UNL     1       4.916   3.839  14.734  0.00  0.00    +0.000 C 
ATOM     11  N   UNL     1       5.304   4.175  16.096  0.00  0.00    +0.000 N 
ATOM     12  C   UNL     1       4.356   4.045  17.088  0.00  0.00    +0.000 C 
ATOM     13  O   UNL     1       3.207   3.693  16.800  0.00  0.00    +0.000 OA
BRANCH  12  14
ATOM     14  C   UNL     1       4.748   4.371  18.540  0.00  0.00    +0.000 C 
BRANCH  14  15
ATOM     15  O   UNL     1       5.095   3.283  19.388  0.00  0.00    +0.000 OA
ATOM     16  C   UNL     1       3.962   2.696  20.012  0.00  0.00    +0.000 C 
ENDBRANCH  14  15
ENDBRANCH  12  14
ENDBRANCH   5   7
BRANCH   1  18
ATOM     17  C   UNL     1       8.722   9.711  18.439  0.00  0.00    +0.000 C 
ATOM     18  C   UNL     1       7.853   8.916  17.477  0.00  0.00    +0.000 C 
ENDBRANCH   1  18
BRANCH   3  19
ATOM     19  O   UNL     1       8.529   5.110  20.482  0.00  0.00    +0.000 OA
ATOM     20  H   UNL     1       8.628   4.159  20.362  0.00  0.00    +0.000 HD
ENDBRANCH   3  19
TORSDOF 5
ENDMDL
MODEL 3
REMARK VINA RESULT:      -6.6      2.308      4.527
REMARK  Name = 
REMARK  7 active torsions:
REMARK  status: ('A' for Active; 'I' for Inactive)
REMARK    1  A    between atoms: C_1  and  C_2
REMARK    2  A    between atoms: C_2  and  C_3
REMARK    3  A    between atoms: C_5  and  O_6
REMARK    4  A    between atoms: C_8  and  C_9
REMARK    5  A    between atoms: C_14  and  C_16
REMARK    6  A    between atoms: C_16  and  O_17
REMARK    7  A    between atoms: O_17  and  C_18
REMARK                            x       y       z     vdW  Elec       q    Type
REMARK                         _______ _______ _______ _____ _____    ______ ____
ROOT
ATOM      1  C   UNL     1       7.788   7.458  17.861  0.00  0.00    +0.000 A 
ATOM      2  C   UNL     1       8.120   7.049  19.138  0.00  0.00    +0.000 A 
ATOM      3  C   UNL     1       8.058   5.697  19.360  0.00  0.00    +0.000 A 
ATOM      4  N   UNL     1       7.697   4.800  18.439  0.00  0.00    +0.000 NA
ATOM      5  C   UNL     1       7.347   5.280  17.239  0.00  0.00    +0.000 A 
ATOM      6  N   UNL     1       7.395   6.587  16.907  0.00  0.00    +0.000 NA
ENDROOT
BRANCH   5   7
ATOM      7  C   UNL     1       6.794   4.320  16.206  0.00  0.00    +0.000 C 
ATOM      8  C   UNL     1       7.167   4.785  14.790  0.00  0.00    +0.000 C 
ATOM      9  C   UNL     1       6.257   3.971  13.891  0.00  0.00    +0.000 C 
ATOM     10  C   UNL     1       4.993   3.780  14.718  0.00  0.00    +0.000 C 
ATOM     11  N   UNL     1       5.341   4.128  16.088  0.00  0.00    +0.000 N 
ATOM     12  C   UNL     1       4.370   3.983  17.056  0.00  0.00    +0.000 C 
ATOM     13  O   UNL     1       3.236   3.608  16.741  0.00  0.00    +0.000 OA
BRANCH  12  14
ATOM     14  C   UNL     1       4.720   4.322  18.516  0.00  0.00    +0.000 C 
BRANCH  14  15
ATOM     15  O   UNL     1       3.950   5.329  19.161  0.00  0.00    +0.000 OA
ATOM     16  C   UNL     1       3.853   6.518  18.388  0.00  0.00    +0.000 C 
ENDBRANCH  14  15
ENDBRANCH  12  14
ENDBRANCH   5   7
BRANCH   1  18
ATOM     17  C   UNL     1       8.736   9.705  18.431  0.00  0.00    +0.000 C 
ATOM     18  C   UNL     1       7.867   8.909  17.469  0.00  0.00    +0.000 C 
ENDBRANCH   1  18
BRANCH   3  19
ATOM     19  O   UNL     1       8.341   5.159  20.581  0.00  0.00    +0.000 OA
ATOM     20  H   UNL     1       9.293   5.028  20.649  0.00  0.00    +0.000 HD
ENDBRANCH   3  19
TORSDOF 5
ENDMDL
MODEL 4
REMARK VINA RESULT:      -6.6      1.066      1.356
REMARK  Name = 
REMARK  7 active torsions:
REMARK  status: ('A' for Active; 'I' for Inactive)
REMARK    1  A    between atoms: C_1  and  C_2
REMARK    2  A    between atoms: C_2  and  C_3
REMARK    3  A    between atoms: C_5  and  O_6
REMARK    4  A    between atoms: C_8  and  C_9
REMARK    5  A    between atoms: C_14  and  C_16
REMARK    6  A    between atoms: C_16  and  O_17
REMARK    7  A    between atoms: O_17  and  C_18
REMARK                            x       y       z     vdW  Elec       q    Type
REMARK                         _______ _______ _______ _____ _____    ______ ____
ROOT
ATOM      1  C   UNL     1       6.441   4.524  17.143  0.00  0.00    +0.000 A 
ATOM      2  C   UNL     1       7.453   4.902  18.005  0.00  0.00    +0.000 A 
ATOM      3  C   UNL     1       7.065   5.164  19.294  0.00  0.00    +0.000 A 
ATOM      4  N   UNL     1       5.805   5.083  19.730  0.00  0.00    +0.000 NA
ATOM      5  C   UNL     1       4.876   4.754  18.824  0.00  0.00    +0.000 A 
ATOM      6  N   UNL     1       5.151   4.454  17.537  0.00  0.00    +0.000 NA
ENDROOT
BRANCH   5   7
ATOM      7  C   UNL     1       3.418   4.790  19.233  0.00  0.00    +0.000 C 
ATOM      8  C   UNL     1       2.979   6.234  19.519  0.00  0.00    +0.000 C 
ATOM      9  C   UNL     1       1.662   6.072  20.256  0.00  0.00    +0.000 C 
ATOM     10  C   UNL     1       1.828   4.770  21.027  0.00  0.00    +0.000 C 
ATOM     11  N   UNL     1       2.981   4.094  20.452  0.00  0.00    +0.000 N 
ATOM     12  C   UNL     1       3.311   2.849  20.945  0.00  0.00    +0.000 C 
ATOM     13  O   UNL     1       2.659   2.362  21.875  0.00  0.00    +0.000 OA
BRANCH  12  14
ATOM     14  C   UNL     1       4.512   2.103  20.337  0.00  0.00    +0.000 C 
BRANCH  14  15
ATOM     15  O   UNL     1       5.546   1.689  21.222  0.00  0.00    +0.000 OA
ATOM     16  C   UNL     1       5.574   0.281  21.408  0.00  0.00    +0.000 C 
ENDBRANCH  14  15
ENDBRANCH  12  14
ENDBRANCH   5   7
BRANCH   1  18
ATOM     17  C   UNL     1       5.598   4.543  14.785  0.00  0.00    +0.000 C 
ATOM     18  C   UNL     1       6.738   4.156  15.714  0.00  0.00    +0.000 C 
ENDBRANCH   1  18
BRANCH   3  19
ATOM     19  O   UNL     1       7.958   5.566  20.242  0.00  0.00    +0.000 OA
ATOM     20  H   UNL     1       8.233   4.797  20.755  0.00  0.00    +0.000 HD
ENDBRANCH   3  19
TORSDOF 5
ENDMDL
MODEL 5
REMARK VINA RESULT:      -6.4      1.306      1.530
REMARK  Name = 
REMARK  7 active torsions:
REMARK  status: ('A' for Active; 'I' for Inactive)
REMARK    1  A    between atoms: C_1  and  C_2
REMARK    2  A    between atoms: C_2  and  C_3
REMARK    3  A    between atoms: C_5  and  O_6
REMARK    4  A    between atoms: C_8  and  C_9
REMARK    5  A    between atoms: C_14  and  C_16
REMARK    6  A    between atoms: C_16  and  O_17
REMARK    7  A    between atoms: O_17  and  C_18
REMARK                            x       y       z     vdW  Elec       q    Type
REMARK                         _______ _______ _______ _____ _____    ______ ____
ROOT
ATOM      1  C   UNL     1       6.043   4.451  15.976  0.00  0.00    +0.000 A 
ATOM      2  C   UNL     1       7.144   4.504  16.809  0.00  0.00    +0.000 A 
ATOM      3  C   UNL     1       6.918   5.027  18.056  0.00  0.00    +0.000 A 
ATOM      4  N   UNL     1       5.734   5.478  18.479  0.00  0.00    +0.000 NA
ATOM      5  C   UNL     1       4.726   5.433  17.597  0.00  0.00    +0.000 A 
ATOM      6  N   UNL     1       4.833   4.918  16.355  0.00  0.00    +0.000 NA
ENDROOT
BRANCH   5   7
ATOM      7  C   UNL     1       3.402   6.063  17.977  0.00  0.00    +0.000 C 
ATOM      8  C   UNL     1       3.494   7.594  17.887  0.00  0.00    +0.000 C 
ATOM      9  C   UNL     1       2.263   8.074  18.634  0.00  0.00    +0.000 C 
ATOM     10  C   UNL     1       2.047   7.019  19.709  0.00  0.00    +0.000 C 
ATOM     11  N   UNL     1       2.859   5.872  19.329  0.00  0.00    +0.000 N 
ATOM     12  C   UNL     1       2.795   4.746  20.123  0.00  0.00    +0.000 C 
ATOM     13  O   UNL     1       2.096   4.748  21.142  0.00  0.00    +0.000 OA
BRANCH  12  14
ATOM     14  C   UNL     1       3.625   3.511  19.729  0.00  0.00    +0.000 C 
BRANCH  14  15
ATOM     15  O   UNL     1       2.932   2.406  19.161  0.00  0.00    +0.000 OA
ATOM     16  C   UNL     1       3.675   1.769  18.131  0.00  0.00    +0.000 C 
ENDBRANCH  14  15
ENDBRANCH  12  14
ENDBRANCH   5   7
BRANCH   1  18
ATOM     17  C   UNL     1       7.005   4.696  13.678  0.00  0.00    +0.000 C 
ATOM     18  C   UNL     1       6.142   3.850  14.600  0.00  0.00    +0.000 C 
ENDBRANCH   1  18
BRANCH   3  19
ATOM     19  O   UNL     1       7.921   5.156  18.971  0.00  0.00    +0.000 OA
ATOM     20  H   UNL     1       8.523   5.848  18.676  0.00  0.00    +0.000 HD
ENDBRANCH   3  19
TORSDOF 5
ENDMDL
MODEL 6
REMARK VINA RESULT:      -6.3      1.876      4.741
REMARK  Name = 
REMARK  7 active torsions:
REMARK  status: ('A' for Active; 'I' for Inactive)
REMARK    1  A    between atoms: C_1  and  C_2
REMARK    2  A    between atoms: C_2  and  C_3
REMARK    3  A    between atoms: C_5  and  O_6
REMARK    4  A    between atoms: C_8  and  C_9
REMARK    5  A    between atoms: C_14  and  C_16
REMARK    6  A    between atoms: C_16  and  O_17
REMARK    7  A    between atoms: O_17  and  C_18
REMARK                            x       y       z     vdW  Elec       q    Type
REMARK                         _______ _______ _______ _____ _____    ______ ____
ROOT
ATOM      1  C   UNL     1       2.532   6.556  19.652  0.00  0.00    +0.000 A 
ATOM      2  C   UNL     1       1.781   5.725  20.460  0.00  0.00    +0.000 A 
ATOM      3  C   UNL     1       2.378   4.540  20.808  0.00  0.00    +0.000 A 
ATOM      4  N   UNL     1       3.597   4.168  20.409  0.00  0.00    +0.000 NA
ATOM      5  C   UNL     1       4.243   5.010  19.591  0.00  0.00    +0.000 A 
ATOM      6  N   UNL     1       3.758   6.208  19.207  0.00  0.00    +0.000 NA
ENDROOT
BRANCH   5   7
ATOM      7  C   UNL     1       5.565   4.571  18.996  0.00  0.00    +0.000 C 
ATOM      8  C   UNL     1       6.668   5.584  19.340  0.00  0.00    +0.000 C 
ATOM      9  C   UNL     1       7.798   5.223  18.394  0.00  0.00    +0.000 C 
ATOM     10  C   UNL     1       7.088   4.707  17.149  0.00  0.00    +0.000 C 
ATOM     11  N   UNL     1       5.710   4.450  17.538  0.00  0.00    +0.000 N 
ATOM     12  C   UNL     1       4.862   3.917  16.591  0.00  0.00    +0.000 C 
ATOM     13  O   UNL     1       5.270   3.712  15.443  0.00  0.00    +0.000 OA
BRANCH  12  14
ATOM     14  C   UNL     1       3.405   3.613  16.983  0.00  0.00    +0.000 C 
BRANCH  14  15
ATOM     15  O   UNL     1       3.125   2.331  17.534  0.00  0.00    +0.000 OA
ATOM     16  C   UNL     1       1.833   2.260  18.119  0.00  0.00    +0.000 C 
ENDBRANCH  14  15
ENDBRANCH  12  14
ENDBRANCH   5   7
BRANCH   1  18
ATOM     17  C   UNL     1       2.486   8.291  17.847  0.00  0.00    +0.000 C 
ATOM     18  C   UNL     1       2.015   7.909  19.242  0.00  0.00    +0.000 C 
ENDBRANCH   1  18
BRANCH   3  19
ATOM     19  O   UNL     1       1.741   3.619  21.584  0.00  0.00    +0.000 OA
ATOM     20  H   UNL     1       1.329   2.962  21.012  0.00  0.00    +0.000 HD
ENDBRANCH   3  19
TORSDOF 5
ENDMDL
MODEL 7
REMARK VINA RESULT:      -6.3      2.036      3.319
REMARK  Name = 
REMARK  7 active torsions:
REMARK  status: ('A' for Active; 'I' for Inactive)
REMARK    1  A    between atoms: C_1  and  C_2
REMARK    2  A    between atoms: C_2  and  C_3
REMARK    3  A    between atoms: C_5  and  O_6
REMARK    4  A    between atoms: C_8  and  C_9
REMARK    5  A    between atoms: C_14  and  C_16
REMARK    6  A    between atoms: C_16  and  O_17
REMARK    7  A    between atoms: O_17  and  C_18
REMARK                            x       y       z     vdW  Elec       q    Type
REMARK                         _______ _______ _______ _____ _____    ______ ____
ROOT
ATOM      1  C   UNL     1       6.671   4.706  16.899  0.00  0.00    +0.000 A 
ATOM      2  C   UNL     1       7.498   5.310  17.827  0.00  0.00    +0.000 A 
ATOM      3  C   UNL     1       7.104   5.192  19.136  0.00  0.00    +0.000 A 
ATOM      4  N   UNL     1       6.000   4.556  19.533  0.00  0.00    +0.000 NA
ATOM      5  C   UNL     1       5.228   4.035  18.570  0.00  0.00    +0.000 A 
ATOM      6  N   UNL     1       5.533   4.073  17.257  0.00  0.00    +0.000 NA
ENDROOT
BRANCH   5   7
ATOM      7  C   UNL     1       3.894   3.430  18.957  0.00  0.00    +0.000 C 
ATOM      8  C   UNL     1       3.887   1.922  18.663  0.00  0.00    +0.000 C 
ATOM      9  C   UNL     1       2.419   1.546  18.741  0.00  0.00    +0.000 C 
ATOM     10  C   UNL     1       1.691   2.792  18.257  0.00  0.00    +0.000 C 
ATOM     11  N   UNL     1       2.664   3.874  18.286  0.00  0.00    +0.000 N 
ATOM     12  C   UNL     1       2.233   5.138  17.940  0.00  0.00    +0.000 C 
ATOM     13  O   UNL     1       1.064   5.314  17.581  0.00  0.00    +0.000 OA
BRANCH  12  14
ATOM     14  C   UNL     1       3.236   6.304  17.986  0.00  0.00    +0.000 C 
BRANCH  14  15
ATOM     15  O   UNL     1       2.846   7.482  18.681  0.00  0.00    +0.000 OA
ATOM     16  C   UNL     1       2.421   8.516  17.805  0.00  0.00    +0.000 C 
ENDBRANCH  14  15
ENDBRANCH  12  14
ENDBRANCH   5   7
BRANCH   1  18
ATOM     17  C   UNL     1       5.828   4.312  14.575  0.00  0.00    +0.000 C 
ATOM     18  C   UNL     1       7.017   4.714  15.434  0.00  0.00    +0.000 C 
ENDBRANCH   1  18
BRANCH   3  19
ATOM     19  O   UNL     1       7.817   5.758  20.150  0.00  0.00    +0.000 OA
ATOM     20  H   UNL     1       7.926   6.697  19.967  0.00  0.00    +0.000 HD
ENDBRANCH   3  19
TORSDOF 5
ENDMDL
MODEL 8
REMARK VINA RESULT:      -6.3      1.839      2.676
REMARK  Name = 
REMARK  7 active torsions:
REMARK  status: ('A' for Active; 'I' for Inactive)
REMARK    1  A    between atoms: C_1  and  C_2
REMARK    2  A    between atoms: C_2  and  C_3
REMARK    3  A    between atoms: C_5  and  O_6
REMARK    4  A    between atoms: C_8  and  C_9
REMARK    5  A    between atoms: C_14  and  C_16
REMARK    6  A    between atoms: C_16  and  O_17
REMARK    7  A    between atoms: O_17  and  C_18
REMARK                            x       y       z     vdW  Elec       q    Type
REMARK                         _______ _______ _______ _____ _____    ______ ____
ROOT
ATOM      1  C   UNL     1       6.968   5.886  17.855  0.00  0.00    +0.000 A 
ATOM      2  C   UNL     1       7.173   4.800  17.026  0.00  0.00    +0.000 A 
ATOM      3  C   UNL     1       6.043   4.268  16.458  0.00  0.00    +0.000 A 
ATOM      4  N   UNL     1       4.808   4.728  16.670  0.00  0.00    +0.000 NA
ATOM      5  C   UNL     1       4.688   5.756  17.521  0.00  0.00    +0.000 A 
ATOM      6  N   UNL     1       5.734   6.368  18.115  0.00  0.00    +0.000 NA
ENDROOT
BRANCH   5   7
ATOM      7  C   UNL     1       3.299   6.221  17.907  0.00  0.00    +0.000 C 
ATOM      8  C   UNL     1       3.193   7.749  17.776  0.00  0.00    +0.000 C 
ATOM      9  C   UNL     1       1.920   8.087  18.531  0.00  0.00    +0.000 C 
ATOM     10  C   UNL     1       1.856   7.043  19.637  0.00  0.00    +0.000 C 
ATOM     11  N   UNL     1       2.803   5.999  19.273  0.00  0.00    +0.000 N 
ATOM     12  C   UNL     1       2.894   4.896  20.095  0.00  0.00    +0.000 C 
ATOM     13  O   UNL     1       2.215   4.837  21.125  0.00  0.00    +0.000 OA
BRANCH  12  14
ATOM     14  C   UNL     1       3.871   3.767  19.719  0.00  0.00    +0.000 C 
BRANCH  14  15
ATOM     15  O   UNL     1       3.319   2.487  19.436  0.00  0.00    +0.000 OA
ATOM     16  C   UNL     1       2.442   2.507  18.319  0.00  0.00    +0.000 C 
ENDBRANCH  14  15
ENDBRANCH  12  14
ENDBRANCH   5   7
BRANCH   1  18
ATOM     17  C   UNL     1       8.178   8.064  18.102  0.00  0.00    +0.000 C 
ATOM     18  C   UNL     1       8.128   6.597  18.499  0.00  0.00    +0.000 C 
ENDBRANCH   1  18
BRANCH   3  19
ATOM     19  O   UNL     1       6.099   3.183  15.636  0.00  0.00    +0.000 OA
ATOM     20  H   UNL     1       5.772   2.413  16.114  0.00  0.00    +0.000 HD
ENDBRANCH   3  19
TORSDOF 5
ENDMDL
MODEL 9
REMARK VINA RESULT:      -6.3      2.298      4.189
REMARK  Name = 
REMARK  7 active torsions:
REMARK  status: ('A' for Active; 'I' for Inactive)
REMARK    1  A    between atoms: C_1  and  C_2
REMARK    2  A    between atoms: C_2  and  C_3
REMARK    3  A    between atoms: C_5  and  O_6
REMARK    4  A    between atoms: C_8  and  C_9
REMARK    5  A    between atoms: C_14  and  C_16
REMARK    6  A    between atoms: C_16  and  O_17
REMARK    7  A    between atoms: O_17  and  C_18
REMARK                            x       y       z     vdW  Elec       q    Type
REMARK                         _______ _______ _______ _____ _____    ______ ____
ROOT
ATOM      1  C   UNL     1       2.818   7.417  18.050  0.00  0.00    +0.000 A 
ATOM      2  C   UNL     1       3.948   7.731  17.321  0.00  0.00    +0.000 A 
ATOM      3  C   UNL     1       4.592   6.668  16.740  0.00  0.00    +0.000 A 
ATOM      4  N   UNL     1       4.195   5.398  16.852  0.00  0.00    +0.000 NA
ATOM      5  C   UNL     1       3.116   5.171  17.612  0.00  0.00    +0.000 A 
ATOM      6  N   UNL     1       2.396   6.144  18.208  0.00  0.00    +0.000 NA
ENDROOT
BRANCH   5   7
ATOM      7  C   UNL     1       2.711   3.738  17.888  0.00  0.00    +0.000 C 
ATOM      8  C   UNL     1       1.210   3.659  18.208  0.00  0.00    +0.000 C 
ATOM      9  C   UNL     1       1.042   2.277  18.812  0.00  0.00    +0.000 C 
ATOM     10  C   UNL     1       2.362   2.022  19.526  0.00  0.00    +0.000 C 
ATOM     11  N   UNL     1       3.300   3.014  19.024  0.00  0.00    +0.000 N 
ATOM     12  C   UNL     1       4.600   2.960  19.481  0.00  0.00    +0.000 C 
ATOM     13  O   UNL     1       4.925   2.114  20.321  0.00  0.00    +0.000 OA
BRANCH  12  14
ATOM     14  C   UNL     1       5.619   3.984  18.947  0.00  0.00    +0.000 C 
BRANCH  14  15
ATOM     15  O   UNL     1       6.150   4.927  19.870  0.00  0.00    +0.000 OA
ATOM     16  C   UNL     1       7.218   5.685  19.320  0.00  0.00    +0.000 C 
ENDBRANCH  14  15
ENDBRANCH  12  14
ENDBRANCH   5   7
BRANCH   1  18
ATOM     17  C   UNL     1       1.951   9.758  17.847  0.00  0.00    +0.000 C 
ATOM     18  C   UNL     1       1.988   8.495  18.694  0.00  0.00    +0.000 C 
ENDBRANCH   1  18
BRANCH   3  19
ATOM     19  O   UNL     1       5.731   6.834  16.010  0.00  0.00    +0.000 OA
ATOM     20  H   UNL     1       6.486   6.583  16.553  0.00  0.00    +0.000 HD
ENDBRANCH   3  19
TORSDOF 5
ENDMDL
