MODEL 1
REMARK VINA RESULT:      -9.0      0.000      0.000
REMARK  Name = 
REMARK  5 active torsions:
REMARK  status: ('A' for Active; 'I' for Inactive)
REMARK    1  A    between atoms: C_1  and  N_2
REMARK    2  A    between atoms: C_9  and  C_10
REMARK    3  A    between atoms: C_10  and  N_11
REMARK    4  A    between atoms: C_14  and  C_15
REMARK    5  A    between atoms: C_15  and  C_16
REMARK                            x       y       z     vdW  Elec       q    Type
REMARK                         _______ _______ _______ _____ _____    ______ ____
ROOT
ATOM      1  C   UNL     1       3.694   1.833  18.413  0.00  0.00    +0.000 C 
ENDROOT
BRANCH   1  10
ATOM      2  C   UNL     1       5.879   4.194  14.001  0.00  0.00    +0.000 C 
ATOM      3  N   UNL     1       6.231   4.662  15.318  0.00  0.00    +0.000 N 
ATOM      4  N   UNL     1       7.109   5.688  15.458  0.00  0.00    +0.000 NA
ATOM      5  C   UNL     1       7.215   5.836  16.784  0.00  0.00    +0.000 A 
ATOM      6  C   UNL     1       6.423   4.918  17.477  0.00  0.00    +0.000 A 
ATOM      7  C   UNL     1       6.170   4.637  18.859  0.00  0.00    +0.000 A 
ATOM      8  O   UNL     1       6.650   5.262  19.794  0.00  0.00    +0.000 OA
ATOM      9  N   UNL     1       5.302   3.577  19.018  0.00  0.00    +0.000 N 
ATOM     10  C   UNL     1       4.664   2.924  17.970  0.00  0.00    +0.000 A 
ATOM     11  N   UNL     1       4.880   3.173  16.706  0.00  0.00    +0.000 NA
ATOM     12  C   UNL     1       5.778   4.175  16.514  0.00  0.00    +0.000 A 
ATOM     13  H   UNL     1       5.012   3.341  19.960  0.00  0.00    +0.000 HD
ENDBRANCH   1  10
BRANCH   1  14
ATOM     14  N   UNL     1       2.583   2.401  19.232  0.00  0.00    +0.000 NA
ATOM     15  C   UNL     1       3.074   2.768  20.577  0.00  0.00    +0.000 C 
ATOM     16  C   UNL     1       2.000   3.469  21.410  0.00  0.00    +0.000 C 
ATOM     17  C   UNL     1       1.480   4.736  20.723  0.00  0.00    +0.000 C 
ATOM     18  C   UNL     1       0.960   4.323  19.336  0.00  0.00    +0.000 C 
ATOM     19  C   UNL     1       2.006   3.556  18.517  0.00  0.00    +0.000 C 
BRANCH  17  20
ATOM     20  C   UNL     1       2.538   5.858  20.602  0.00  0.00    +0.000 C 
BRANCH  20  21
ATOM     21  C   UNL     1       2.107   7.097  19.851  0.00  0.00    +0.000 A 
ATOM     22  C   UNL     1       1.372   8.097  20.506  0.00  0.00    +0.000 A 
ATOM     23  C   UNL     1       1.048   9.287  19.851  0.00  0.00    +0.000 A 
ATOM     24  C   UNL     1       1.453   9.491  18.534  0.00  0.00    +0.000 A 
ATOM     25  C   UNL     1       2.166   8.497  17.866  0.00  0.00    +0.000 A 
ATOM     26  C   UNL     1       2.491   7.306  18.520  0.00  0.00    +0.000 A 
ENDBRANCH  20  21
ENDBRANCH  17  20
ENDBRANCH   1  14
TORSDOF 4
ENDMDL
MODEL 2
REMARK VINA RESULT:      -8.8      0.274      1.003
REMARK  Name = 
REMARK  5 active torsions:
REMARK  status: ('A' for Active; 'I' for Inactive)
REMARK    1  A    between atoms: C_1  and  N_2
REMARK    2  A    between atoms: C_9  and  C_10
REMARK    3  A    between atoms: C_10  and  N_11
REMARK    4  A    between atoms: C_14  and  C_15
REMARK    5  A    between atoms: C_15  and  C_16
REMARK                            x       y       z     vdW  Elec       q    Type
REMARK                         _______ _______ _______ _____ _____    ______ ____
ROOT
ATOM      1  C   UNL     1       3.961   1.873  18.753  0.00  0.00    +0.000 C 
ENDROOT
BRANCH   1  10
ATOM      2  C   UNL     1       5.811   4.206  14.176  0.00  0.00    +0.000 C 
ATOM      3  N   UNL     1       6.225   4.712  15.460  0.00  0.00    +0.000 N 
ATOM      4  N   UNL     1       7.077   5.766  15.528  0.00  0.00    +0.000 NA
ATOM      5  C   UNL     1       7.256   5.944  16.843  0.00  0.00    +0.000 A 
ATOM      6  C   UNL     1       6.534   5.018  17.598  0.00  0.00    +0.000 A 
ATOM      7  C   UNL     1       6.372   4.758  18.999  0.00  0.00    +0.000 A 
ATOM      8  O   UNL     1       6.886   5.417  19.891  0.00  0.00    +0.000 OA
ATOM      9  N   UNL     1       5.548   3.676  19.229  0.00  0.00    +0.000 N 
ATOM     10  C   UNL     1       4.870   2.983  18.232  0.00  0.00    +0.000 A 
ATOM     11  N   UNL     1       5.004   3.212  16.953  0.00  0.00    +0.000 NA
ATOM     12  C   UNL     1       5.857   4.236  16.690  0.00  0.00    +0.000 A 
ATOM     13  H   UNL     1       5.321   3.452  20.190  0.00  0.00    +0.000 HD
ENDBRANCH   1  10
BRANCH   1  14
ATOM     14  N   UNL     1       2.693   2.431  19.305  0.00  0.00    +0.000 NA
ATOM     15  C   UNL     1       2.858   2.762  20.736  0.00  0.00    +0.000 C 
ATOM     16  C   UNL     1       1.622   3.453  21.314  0.00  0.00    +0.000 C 
ATOM     17  C   UNL     1       1.280   4.740  20.557  0.00  0.00    +0.000 C 
ATOM     18  C   UNL     1       1.095   4.363  19.077  0.00  0.00    +0.000 C 
ATOM     19  C   UNL     1       2.300   3.606  18.504  0.00  0.00    +0.000 C 
BRANCH  17  20
ATOM     20  C   UNL     1       2.340   5.855  20.711  0.00  0.00    +0.000 C 
BRANCH  20  21
ATOM     21  C   UNL     1       2.006   7.180  20.064  0.00  0.00    +0.000 A 
ATOM     22  C   UNL     1       2.380   7.429  18.734  0.00  0.00    +0.000 A 
ATOM     23  C   UNL     1       1.996   8.609  18.095  0.00  0.00    +0.000 A 
ATOM     24  C   UNL     1       1.237   9.557  18.778  0.00  0.00    +0.000 A 
ATOM     25  C   UNL     1       0.876   9.330  20.105  0.00  0.00    +0.000 A 
ATOM     26  C   UNL     1       1.258   8.149  20.745  0.00  0.00    +0.000 A 
ENDBRANCH  20  21
ENDBRANCH  17  20
ENDBRANCH   1  14
TORSDOF 4
ENDMDL
MODEL 3
REMARK VINA RESULT:      -8.0      1.771      2.613
REMARK  Name = 
REMARK  5 active torsions:
REMARK  status: ('A' for Active; 'I' for Inactive)
REMARK    1  A    between atoms: C_1  and  N_2
REMARK    2  A    between atoms: C_9  and  C_10
REMARK    3  A    between atoms: C_10  and  N_11
REMARK    4  A    between atoms: C_14  and  C_15
REMARK    5  A    between atoms: C_15  and  C_16
REMARK                            x       y       z     vdW  Elec       q    Type
REMARK                         _______ _______ _______ _____ _____    ______ ____
ROOT
ATOM      1  C   UNL     1       4.174   2.910  17.579  0.00  0.00    +0.000 C 
ENDROOT
BRANCH   1  10
ATOM      2  C   UNL     1       8.228   5.479  20.184  0.00  0.00    +0.000 C 
ATOM      3  N   UNL     1       7.691   6.030  18.966  0.00  0.00    +0.000 N 
ATOM      4  N   UNL     1       8.193   7.189  18.470  0.00  0.00    +0.000 NA
ATOM      5  C   UNL     1       7.461   7.408  17.371  0.00  0.00    +0.000 A 
ATOM      6  C   UNL     1       6.506   6.408  17.172  0.00  0.00    +0.000 A 
ATOM      7  C   UNL     1       5.491   6.156  16.192  0.00  0.00    +0.000 A 
ATOM      8  O   UNL     1       5.282   6.857  15.212  0.00  0.00    +0.000 OA
ATOM      9  N   UNL     1       4.775   5.011  16.476  0.00  0.00    +0.000 N 
ATOM     10  C   UNL     1       5.067   4.146  17.524  0.00  0.00    +0.000 A 
ATOM     11  N   UNL     1       5.992   4.360  18.421  0.00  0.00    +0.000 NA
ATOM     12  C   UNL     1       6.678   5.513  18.204  0.00  0.00    +0.000 A 
ATOM     13  H   UNL     1       4.076   4.714  15.807  0.00  0.00    +0.000 HD
ENDBRANCH   1  10
BRANCH   1  14
ATOM     14  N   UNL     1       3.018   3.123  18.497  0.00  0.00    +0.000 NA
ATOM     15  C   UNL     1       3.487   3.240  19.894  0.00  0.00    +0.000 C 
ATOM     16  C   UNL     1       2.349   3.584  20.857  0.00  0.00    +0.000 C 
ATOM     17  C   UNL     1       1.648   4.889  20.471  0.00  0.00    +0.000 C 
ATOM     18  C   UNL     1       1.154   4.732  19.023  0.00  0.00    +0.000 C 
ATOM     19  C   UNL     1       2.273   4.319  18.058  0.00  0.00    +0.000 C 
BRANCH  17  20
ATOM     20  C   UNL     1       2.542   6.143  20.613  0.00  0.00    +0.000 C 
BRANCH  20  21
ATOM     21  C   UNL     1       1.921   7.452  20.182  0.00  0.00    +0.000 A 
ATOM     22  C   UNL     1       2.153   7.950  18.890  0.00  0.00    +0.000 A 
ATOM     23  C   UNL     1       1.510   9.108  18.448  0.00  0.00    +0.000 A 
ATOM     24  C   UNL     1       0.632   9.784  19.292  0.00  0.00    +0.000 A 
ATOM     25  C   UNL     1       0.409   9.310  20.584  0.00  0.00    +0.000 A 
ATOM     26  C   UNL     1       1.050   8.152  21.027  0.00  0.00    +0.000 A 
ENDBRANCH  20  21
ENDBRANCH  17  20
ENDBRANCH   1  14
TORSDOF 4
ENDMDL
MODEL 4
REMARK VINA RESULT:      -7.9      2.601      4.222
REMARK  Name = 
REMARK  5 active torsions:
REMARK  status: ('A' for Active; 'I' for Inactive)
REMARK    1  A    between atoms: C_1  and  N_2
REMARK    2  A    between atoms: C_9  and  C_10
REMARK    3  A    between atoms: C_10  and  N_11
REMARK    4  A    between atoms: C_14  and  C_15
REMARK    5  A    between atoms: C_15  and  C_16
REMARK                            x       y       z     vdW  Elec       q    Type
REMARK                         _______ _______ _______ _____ _____    ______ ____
ROOT
ATOM      1  C   UNL     1       2.501   6.101  18.574  0.00  0.00    +0.000 C 
ENDROOT
BRANCH   1  10
ATOM      2  C   UNL     1       5.530   4.284  14.410  0.00  0.00    +0.000 C 
ATOM      3  N   UNL     1       6.139   4.522  15.694  0.00  0.00    +0.000 N 
ATOM      4  N   UNL     1       7.465   4.290  15.865  0.00  0.00    +0.000 NA
ATOM      5  C   UNL     1       7.675   4.589  17.153  0.00  0.00    +0.000 A 
ATOM      6  C   UNL     1       6.503   5.000  17.792  0.00  0.00    +0.000 A 
ATOM      7  C   UNL     1       6.165   5.417  19.121  0.00  0.00    +0.000 A 
ATOM      8  O   UNL     1       6.965   5.527  20.039  0.00  0.00    +0.000 OA
ATOM      9  N   UNL     1       4.820   5.696  19.246  0.00  0.00    +0.000 N 
ATOM     10  C   UNL     1       3.916   5.680  18.189  0.00  0.00    +0.000 A 
ATOM     11  N   UNL     1       4.210   5.308  16.973  0.00  0.00    +0.000 NA
ATOM     12  C   UNL     1       5.518   4.968  16.830  0.00  0.00    +0.000 A 
ATOM     13  H   UNL     1       4.494   6.060  20.133  0.00  0.00    +0.000 HD
ENDBRANCH   1  10
BRANCH   1  14
ATOM     14  N   UNL     1       2.447   7.550  18.924  0.00  0.00    +0.000 NA
ATOM     15  C   UNL     1       1.758   8.310  17.859  0.00  0.00    +0.000 C 
ATOM     16  C   UNL     1       1.568   9.781  18.232  0.00  0.00    +0.000 C 
ATOM     17  C   UNL     1       0.775   9.943  19.531  0.00  0.00    +0.000 C 
ATOM     18  C   UNL     1       1.522   9.161  20.624  0.00  0.00    +0.000 C 
ATOM     19  C   UNL     1       1.781   7.700  20.233  0.00  0.00    +0.000 C 
BRANCH  17  20
ATOM     20  C   UNL     1      -0.695   9.474  19.427  0.00  0.00    +0.000 C 
BRANCH  20  21
ATOM     21  C   UNL     1      -1.554  10.202  18.418  0.00  0.00    +0.000 A 
ATOM     22  C   UNL     1      -1.620   9.747  17.092  0.00  0.00    +0.000 A 
ATOM     23  C   UNL     1      -2.481  10.353  16.175  0.00  0.00    +0.000 A 
ATOM     24  C   UNL     1      -3.283  11.421  16.570  0.00  0.00    +0.000 A 
ATOM     25  C   UNL     1      -3.211  11.894  17.880  0.00  0.00    +0.000 A 
ATOM     26  C   UNL     1      -2.351  11.289  18.799  0.00  0.00    +0.000 A 
ENDBRANCH  20  21
ENDBRANCH  17  20
ENDBRANCH   1  14
TORSDOF 4
ENDMDL
MODEL 5
REMARK VINA RESULT:      -7.8      1.457      2.141
REMARK  Name = 
REMARK  5 active torsions:
REMARK  status: ('A' for Active; 'I' for Inactive)
REMARK    1  A    between atoms: C_1  and  N_2
REMARK    2  A    between atoms: C_9  and  C_10
REMARK    3  A    between atoms: C_10  and  N_11
REMARK    4  A    between atoms: C_14  and  C_15
REMARK    5  A    between atoms: C_15  and  C_16
REMARK                            x       y       z     vdW  Elec       q    Type
REMARK                         _______ _______ _______ _____ _____    ______ ____
ROOT
ATOM      1  C   UNL     1       3.828   2.042  18.066  0.00  0.00    +0.000 C 
ENDROOT
BRANCH   1  10
ATOM      2  C   UNL     1       7.537   5.656  19.799  0.00  0.00    +0.000 C 
ATOM      3  N   UNL     1       7.169   5.612  18.407  0.00  0.00    +0.000 N 
ATOM      4  N   UNL     1       7.744   6.474  17.529  0.00  0.00    +0.000 NA
ATOM      5  C   UNL     1       7.163   6.171  16.361  0.00  0.00    +0.000 A 
ATOM      6  C   UNL     1       6.231   5.139  16.494  0.00  0.00    +0.000 A 
ATOM      7  C   UNL     1       5.349   4.449  15.599  0.00  0.00    +0.000 A 
ATOM      8  O   UNL     1       5.277   4.657  14.397  0.00  0.00    +0.000 OA
ATOM      9  N   UNL     1       4.590   3.502  16.255  0.00  0.00    +0.000 N 
ATOM     10  C   UNL     1       4.734   3.177  17.599  0.00  0.00    +0.000 A 
ATOM     11  N   UNL     1       5.537   3.794  18.424  0.00  0.00    +0.000 NA
ATOM     12  C   UNL     1       6.257   4.775  17.821  0.00  0.00    +0.000 A 
ATOM     13  H   UNL     1       3.980   2.917  15.697  0.00  0.00    +0.000 HD
ENDBRANCH   1  10
BRANCH   1  14
ATOM     14  N   UNL     1       2.752   2.549  18.967  0.00  0.00    +0.000 NA
ATOM     15  C   UNL     1       3.312   2.893  20.291  0.00  0.00    +0.000 C 
ATOM     16  C   UNL     1       2.270   3.534  21.208  0.00  0.00    +0.000 C 
ATOM     17  C   UNL     1       1.669   4.802  20.593  0.00  0.00    +0.000 C 
ATOM     18  C   UNL     1       1.079   4.412  19.228  0.00  0.00    +0.000 C 
ATOM     19  C   UNL     1       2.096   3.704  18.324  0.00  0.00    +0.000 C 
BRANCH  17  20
ATOM     20  C   UNL     1       2.681   5.962  20.442  0.00  0.00    +0.000 C 
BRANCH  20  21
ATOM     21  C   UNL     1       2.177   7.192  19.725  0.00  0.00    +0.000 A 
ATOM     22  C   UNL     1       1.435   8.159  20.420  0.00  0.00    +0.000 A 
ATOM     23  C   UNL     1       1.044   9.344  19.794  0.00  0.00    +0.000 A 
ATOM     24  C   UNL     1       1.387   9.576  18.464  0.00  0.00    +0.000 A 
ATOM     25  C   UNL     1       2.107   8.615  17.756  0.00  0.00    +0.000 A 
ATOM     26  C   UNL     1       2.499   7.429  18.382  0.00  0.00    +0.000 A 
ENDBRANCH  20  21
ENDBRANCH  17  20
ENDBRANCH   1  14
TORSDOF 4
ENDMDL
MODEL 6
REMARK VINA RESULT:      -7.7      1.808      2.497
REMARK  Name = 
REMARK  5 active torsions:
REMARK  status: ('A' for Active; 'I' for Inactive)
REMARK    1  A    between atoms: C_1  and  N_2
REMARK    2  A    between atoms: C_9  and  C_10
REMARK    3  A    between atoms: C_10  and  N_11
REMARK    4  A    between atoms: C_14  and  C_15
REMARK    5  A    between atoms: C_15  and  C_16
REMARK                            x       y       z     vdW  Elec       q    Type
REMARK                         _______ _______ _______ _____ _____    ______ ____
ROOT
ATOM      1  C   UNL     1       4.123   2.898  17.807  0.00  0.00    +0.000 C 
ENDROOT
BRANCH   1  10
ATOM      2  C   UNL     1       8.257   5.502  20.244  0.00  0.00    +0.000 C 
ATOM      3  N   UNL     1       7.687   6.032  19.032  0.00  0.00    +0.000 N 
ATOM      4  N   UNL     1       8.178   7.180  18.500  0.00  0.00    +0.000 NA
ATOM      5  C   UNL     1       7.414   7.380  17.418  0.00  0.00    +0.000 A 
ATOM      6  C   UNL     1       6.452   6.380  17.267  0.00  0.00    +0.000 A 
ATOM      7  C   UNL     1       5.408   6.112  16.322  0.00  0.00    +0.000 A 
ATOM      8  O   UNL     1       5.172   6.795  15.335  0.00  0.00    +0.000 OA
ATOM      9  N   UNL     1       4.697   4.976  16.648  0.00  0.00    +0.000 N 
ATOM     10  C   UNL     1       5.017   4.129  17.703  0.00  0.00    +0.000 A 
ATOM     11  N   UNL     1       5.969   4.357  18.569  0.00  0.00    +0.000 NA
ATOM     12  C   UNL     1       6.651   5.504  18.310  0.00  0.00    +0.000 A 
ATOM     13  H   UNL     1       3.978   4.668  16.005  0.00  0.00    +0.000 HD
ENDBRANCH   1  10
BRANCH   1  14
ATOM     14  N   UNL     1       3.011   3.121  18.776  0.00  0.00    +0.000 NA
ATOM     15  C   UNL     1       3.554   3.423  20.118  0.00  0.00    +0.000 C 
ATOM     16  C   UNL     1       2.452   3.782  21.117  0.00  0.00    +0.000 C 
ATOM     17  C   UNL     1       1.625   4.982  20.648  0.00  0.00    +0.000 C 
ATOM     18  C   UNL     1       1.059   4.634  19.262  0.00  0.00    +0.000 C 
ATOM     19  C   UNL     1       2.146   4.204  18.270  0.00  0.00    +0.000 C 
BRANCH  17  20
ATOM     20  C   UNL     1       2.421   6.308  20.599  0.00  0.00    +0.000 C 
BRANCH  20  21
ATOM     21  C   UNL     1       1.610   7.559  20.356  0.00  0.00    +0.000 A 
ATOM     22  C   UNL     1       0.659   7.977  21.300  0.00  0.00    +0.000 A 
ATOM     23  C   UNL     1      -0.029   9.180  21.133  0.00  0.00    +0.000 A 
ATOM     24  C   UNL     1       0.222   9.979  20.021  0.00  0.00    +0.000 A 
ATOM     25  C   UNL     1       1.150   9.566  19.066  0.00  0.00    +0.000 A 
ATOM     26  C   UNL     1       1.839   8.362  19.232  0.00  0.00    +0.000 A 
ENDBRANCH  20  21
ENDBRANCH  17  20
ENDBRANCH   1  14
TORSDOF 4
ENDMDL
MODEL 7
REMARK VINA RESULT:      -7.7      3.279      5.079
REMARK  Name = 
REMARK  5 active torsions:
REMARK  status: ('A' for Active; 'I' for Inactive)
REMARK    1  A    between atoms: C_1  and  N_2
REMARK    2  A    between atoms: C_9  and  C_10
REMARK    3  A    between atoms: C_10  and  N_11
REMARK    4  A    between atoms: C_14  and  C_15
REMARK    5  A    between atoms: C_15  and  C_16
REMARK                            x       y       z     vdW  Elec       q    Type
REMARK                         _______ _______ _______ _____ _____    ______ ____
ROOT
ATOM      1  C   UNL     1       2.236   6.625  20.183  0.00  0.00    +0.000 C 
ENDROOT
BRANCH   1  10
ATOM      2  C   UNL     1       7.219   6.177  17.996  0.00  0.00    +0.000 C 
ATOM      3  N   UNL     1       6.160   5.304  17.559  0.00  0.00    +0.000 N 
ATOM      4  N   UNL     1       6.402   4.374  16.601  0.00  0.00    +0.000 NA
ATOM      5  C   UNL     1       5.217   3.775  16.432  0.00  0.00    +0.000 A 
ATOM      6  C   UNL     1       4.235   4.317  17.265  0.00  0.00    +0.000 A 
ATOM      7  C   UNL     1       2.841   4.067  17.485  0.00  0.00    +0.000 A 
ATOM      8  O   UNL     1       2.195   3.194  16.923  0.00  0.00    +0.000 OA
ATOM      9  N   UNL     1       2.307   4.924  18.424  0.00  0.00    +0.000 N 
ATOM     10  C   UNL     1       3.048   5.849  19.151  0.00  0.00    +0.000 A 
ATOM     11  N   UNL     1       4.319   6.084  18.965  0.00  0.00    +0.000 NA
ATOM     12  C   UNL     1       4.864   5.296  18.002  0.00  0.00    +0.000 A 
ATOM     13  H   UNL     1       1.341   4.785  18.695  0.00  0.00    +0.000 HD
ENDBRANCH   1  10
BRANCH   1  14
ATOM     14  N   UNL     1       2.072   8.051  19.777  0.00  0.00    +0.000 NA
ATOM     15  C   UNL     1       2.092   8.170  18.304  0.00  0.00    +0.000 C 
ATOM     16  C   UNL     1       1.802   9.598  17.838  0.00  0.00    +0.000 C 
ATOM     17  C   UNL     1       0.447  10.101  18.345  0.00  0.00    +0.000 C 
ATOM     18  C   UNL     1       0.462   9.984  19.879  0.00  0.00    +0.000 C 
ATOM     19  C   UNL     1       0.821   8.573  20.360  0.00  0.00    +0.000 C 
BRANCH  17  20
ATOM     20  C   UNL     1      -0.763   9.345  17.748  0.00  0.00    +0.000 C 
BRANCH  20  21
ATOM     21  C   UNL     1      -1.970  10.189  17.409  0.00  0.00    +0.000 A 
ATOM     22  C   UNL     1      -2.522  10.143  16.120  0.00  0.00    +0.000 A 
ATOM     23  C   UNL     1      -3.692  10.844  15.821  0.00  0.00    +0.000 A 
ATOM     24  C   UNL     1      -4.321  11.604  16.805  0.00  0.00    +0.000 A 
ATOM     25  C   UNL     1      -3.771  11.674  18.084  0.00  0.00    +0.000 A 
ATOM     26  C   UNL     1      -2.601  10.972  18.385  0.00  0.00    +0.000 A 
ENDBRANCH  20  21
ENDBRANCH  17  20
ENDBRANCH   1  14
TORSDOF 4
ENDMDL
MODEL 8
REMARK VINA RESULT:      -7.5      4.584      7.659
REMARK  Name = 
REMARK  5 active torsions:
REMARK  status: ('A' for Active; 'I' for Inactive)
REMARK    1  A    between atoms: C_1  and  N_2
REMARK    2  A    between atoms: C_9  and  C_10
REMARK    3  A    between atoms: C_10  and  N_11
REMARK    4  A    between atoms: C_14  and  C_15
REMARK    5  A    between atoms: C_15  and  C_16
REMARK                            x       y       z     vdW  Elec       q    Type
REMARK                         _______ _______ _______ _____ _____    ______ ____
ROOT
ATOM      1  C   UNL     1       1.865   8.201  20.891  0.00  0.00    +0.000 C 
ENDROOT
BRANCH   1  10
ATOM      2  C   UNL     1      -1.711  10.317  17.347  0.00  0.00    +0.000 C 
ATOM      3  N   UNL     1      -1.607  10.861  18.678  0.00  0.00    +0.000 N 
ATOM      4  N   UNL     1      -2.397  11.901  19.046  0.00  0.00    +0.000 NA
ATOM      5  C   UNL     1      -2.024  12.153  20.306  0.00  0.00    +0.000 A 
ATOM      6  C   UNL     1      -1.010  11.291  20.732  0.00  0.00    +0.000 A 
ATOM      7  C   UNL     1      -0.262  11.127  21.944  0.00  0.00    +0.000 A 
ATOM      8  O   UNL     1      -0.432  11.786  22.960  0.00  0.00    +0.000 OA
ATOM      9  N   UNL     1       0.673  10.118  21.838  0.00  0.00    +0.000 N 
ATOM     10  C   UNL     1       0.807   9.288  20.731  0.00  0.00    +0.000 A 
ATOM     11  N   UNL     1       0.129   9.423  19.622  0.00  0.00    +0.000 NA
ATOM     12  C   UNL     1      -0.762  10.448  19.673  0.00  0.00    +0.000 A 
ATOM     13  H   UNL     1       1.209   9.883  22.664  0.00  0.00    +0.000 HD
ENDBRANCH   1  10
BRANCH   1  14
ATOM     14  N   UNL     1       1.584   7.041  19.996  0.00  0.00    +0.000 NA
ATOM     15  C   UNL     1       2.531   7.029  18.861  0.00  0.00    +0.000 C 
ATOM     16  C   UNL     1       2.363   5.787  17.984  0.00  0.00    +0.000 C 
ATOM     17  C   UNL     1       2.548   4.494  18.782  0.00  0.00    +0.000 C 
ATOM     18  C   UNL     1       1.540   4.524  19.943  0.00  0.00    +0.000 C 
ATOM     19  C   UNL     1       1.652   5.799  20.789  0.00  0.00    +0.000 C 
BRANCH  17  20
ATOM     20  C   UNL     1       3.988   4.288  19.311  0.00  0.00    +0.000 C 
BRANCH  20  21
ATOM     21  C   UNL     1       5.096   4.456  18.297  0.00  0.00    +0.000 A 
ATOM     22  C   UNL     1       6.286   5.107  18.655  0.00  0.00    +0.000 A 
ATOM     23  C   UNL     1       7.353   5.186  17.758  0.00  0.00    +0.000 A 
ATOM     24  C   UNL     1       7.243   4.618  16.491  0.00  0.00    +0.000 A 
ATOM     25  C   UNL     1       6.058   3.985  16.116  0.00  0.00    +0.000 A 
ATOM     26  C   UNL     1       4.990   3.905  17.013  0.00  0.00    +0.000 A 
ENDBRANCH  20  21
ENDBRANCH  17  20
ENDBRANCH   1  14
TORSDOF 4
ENDMDL
MODEL 9
REMARK VINA RESULT:      -7.5      3.181      5.548
REMARK  Name = 
REMARK  5 active torsions:
REMARK  status: ('A' for Active; 'I' for Inactive)
REMARK    1  A    between atoms: C_1  and  N_2
REMARK    2  A    between atoms: C_9  and  C_10
REMARK    3  A    between atoms: C_10  and  N_11
REMARK    4  A    between atoms: C_14  and  C_15
REMARK    5  A    between atoms: C_15  and  C_16
REMARK                            x       y       z     vdW  Elec       q    Type
REMARK                         _______ _______ _______ _____ _____    ______ ____
ROOT
ATOM      1  C   UNL     1       1.753   7.098  20.902  0.00  0.00    +0.000 C 
ENDROOT
BRANCH   1  10
ATOM      2  C   UNL     1       0.679   2.225  18.687  0.00  0.00    +0.000 C 
ATOM      3  N   UNL     1       1.978   2.823  18.516  0.00  0.00    +0.000 N 
ATOM      4  N   UNL     1       2.934   2.171  17.806  0.00  0.00    +0.000 NA
ATOM      5  C   UNL     1       3.991   2.990  17.871  0.00  0.00    +0.000 A 
ATOM      6  C   UNL     1       3.716   4.140  18.613  0.00  0.00    +0.000 A 
ATOM      7  C   UNL     1       4.460   5.305  18.993  0.00  0.00    +0.000 A 
ATOM      8  O   UNL     1       5.614   5.530  18.658  0.00  0.00    +0.000 OA
ATOM      9  N   UNL     1       3.714   6.159  19.778  0.00  0.00    +0.000 N 
ATOM     10  C   UNL     1       2.370   5.972  20.079  0.00  0.00    +0.000 A 
ATOM     11  N   UNL     1       1.677   4.919  19.736  0.00  0.00    +0.000 NA
ATOM     12  C   UNL     1       2.402   4.027  19.011  0.00  0.00    +0.000 A 
ATOM     13  H   UNL     1       4.134   7.041  20.045  0.00  0.00    +0.000 HD
ENDBRANCH   1  10
BRANCH   1  14
ATOM     14  N   UNL     1       1.752   8.382  20.142  0.00  0.00    +0.000 NA
ATOM     15  C   UNL     1       1.847   8.118  18.691  0.00  0.00    +0.000 C 
ATOM     16  C   UNL     1       1.724   9.398  17.863  0.00  0.00    +0.000 C 
ATOM     17  C   UNL     1       0.407  10.130  18.136  0.00  0.00    +0.000 C 
ATOM     18  C   UNL     1       0.343  10.408  19.647  0.00  0.00    +0.000 C 
ATOM     19  C   UNL     1       0.536   9.142  20.490  0.00  0.00    +0.000 C 
BRANCH  17  20
ATOM     20  C   UNL     1      -0.847   9.355  17.667  0.00  0.00    +0.000 C 
BRANCH  20  21
ATOM     21  C   UNL     1      -2.052  10.196  17.312  0.00  0.00    +0.000 A 
ATOM     22  C   UNL     1      -2.512  10.243  15.988  0.00  0.00    +0.000 A 
ATOM     23  C   UNL     1      -3.679  10.939  15.664  0.00  0.00    +0.000 A 
ATOM     24  C   UNL     1      -4.396  11.599  16.659  0.00  0.00    +0.000 A 
ATOM     25  C   UNL     1      -3.938  11.576  17.975  0.00  0.00    +0.000 A 
ATOM     26  C   UNL     1      -2.772  10.879  18.301  0.00  0.00    +0.000 A 
ENDBRANCH  20  21
ENDBRANCH  17  20
ENDBRANCH   1  14
TORSDOF 4
ENDMDL
