MODEL 1
REMARK VINA RESULT:      -9.0      0.000      0.000
REMARK  Name = 
REMARK  8 active torsions:
REMARK  status: ('A' for Active; 'I' for Inactive)
REMARK    1  A    between atoms: C_1  and  O_2
REMARK    2  A    between atoms: O_2  and  C_3
REMARK    3  A    between atoms: C_6  and  N_7
REMARK    4  A    between atoms: C_8  and  C_9
REMARK    5  A    between atoms: C_9  and  C_10
REMARK    6  A    between atoms: C_10  and  C_11
REMARK    7  A    between atoms: C_10  and  C_12
REMARK    8  A    between atoms: N_24  and  C_25
REMARK                            x       y       z     vdW  Elec       q    Type
REMARK                         _______ _______ _______ _____ _____    ______ ____
ROOT
ATOM      1  N   UNL     1       2.973   6.348  19.104  0.00  0.00    +0.000 N 
ATOM      2  C   UNL     1       2.285   6.062  20.259  0.00  0.00    +0.000 A 
ATOM      3  N   UNL     1       1.462   6.902  20.811  0.00  0.00    +0.000 NA
ATOM      4  C   UNL     1       1.216   8.142  20.244  0.00  0.00    +0.000 A 
ATOM      5  C   UNL     1       1.873   8.526  19.132  0.00  0.00    +0.000 A 
ATOM      6  C   UNL     1       1.593   9.842  18.518  0.00  0.00    +0.000 A 
ATOM      7  O   UNL     1       2.144  10.240  17.497  0.00  0.00    +0.000 OA
ATOM      8  C   UNL     1       0.598  10.708  19.161  0.00  0.00    +0.000 A 
ATOM      9  C   UNL     1       0.336  11.961  18.575  0.00  0.00    +0.000 A 
ATOM     10  C   UNL     1      -0.588  12.818  19.150  0.00  0.00    +0.000 A 
ATOM     11  C   UNL     1      -1.244  12.417  20.302  0.00  0.00    +0.000 A 
ATOM     12  C   UNL     1      -0.978  11.164  20.880  0.00  0.00    +0.000 A 
ATOM     13  C   UNL     1      -0.045  10.267  20.327  0.00  0.00    +0.000 A 
ATOM     14  N   UNL     1       0.264   8.994  20.857  0.00  0.00    +0.000 N 
ATOM     15  C   UNL     1      -0.404   8.518  22.076  0.00  0.00    +0.000 C 
ATOM     16  C   UNL     1       2.839   7.601  18.511  0.00  0.00    +0.000 A 
ATOM     17  O   UNL     1       3.441   7.929  17.488  0.00  0.00    +0.000 OA
ENDROOT
BRANCH   1  21
ATOM     18  C   UNL     1       5.307   3.957  16.527  0.00  0.00    +0.000 A 
ATOM     19  C   UNL     1       3.909   3.909  16.455  0.00  0.00    +0.000 A 
ATOM     20  C   UNL     1       3.124   4.633  17.359  0.00  0.00    +0.000 A 
ATOM     21  C   UNL     1       3.732   5.398  18.358  0.00  0.00    +0.000 A 
ATOM     22  C   UNL     1       5.132   5.382  18.475  0.00  0.00    +0.000 A 
ATOM     23  C   UNL     1       5.913   4.665  17.569  0.00  0.00    +0.000 A 
ATOM     24 CL   UNL     1       7.632   4.754  17.729  0.00  0.00    +0.000 Cl
BRANCH  18  26
ATOM     25  C   UNL     1       6.281   4.019  14.384  0.00  0.00    +0.000 C 
ATOM     26  O   UNL     1       6.119   3.327  15.619  0.00  0.00    +0.000 OA
ENDBRANCH  18  26
ENDBRANCH   1  21
BRANCH   2  27
ATOM     27  C   UNL     1       2.489   4.728  21.005  0.00  0.00    +0.000 C 
BRANCH  27  28
ATOM     28  C   UNL     1       1.287   3.764  21.003  0.00  0.00    +0.000 C 
ATOM     29  C   UNL     1       0.837   3.397  19.588  0.00  0.00    +0.000 C 
ATOM     30  C   UNL     1       1.612   2.482  21.781  0.00  0.00    +0.000 C 
ENDBRANCH  27  28
ENDBRANCH   2  27
TORSDOF 4
ENDMDL
MODEL 2
REMARK VINA RESULT:      -7.4      1.275      1.507
REMARK  Name = 
REMARK  8 active torsions:
REMARK  status: ('A' for Active; 'I' for Inactive)
REMARK    1  A    between atoms: C_1  and  O_2
REMARK    2  A    between atoms: O_2  and  C_3
REMARK    3  A    between atoms: C_6  and  N_7
REMARK    4  A    between atoms: C_8  and  C_9
REMARK    5  A    between atoms: C_9  and  C_10
REMARK    6  A    between atoms: C_10  and  C_11
REMARK    7  A    between atoms: C_10  and  C_12
REMARK    8  A    between atoms: N_24  and  C_25
REMARK                            x       y       z     vdW  Elec       q    Type
REMARK                         _______ _______ _______ _____ _____    ______ ____
ROOT
ATOM      1  N   UNL     1       2.619   7.073  18.869  0.00  0.00    +0.000 N 
ATOM      2  C   UNL     1       2.222   6.643  20.113  0.00  0.00    +0.000 A 
ATOM      3  N   UNL     1       1.470   7.358  20.893  0.00  0.00    +0.000 NA
ATOM      4  C   UNL     1       1.004   8.601  20.499  0.00  0.00    +0.000 A 
ATOM      5  C   UNL     1       1.371   9.122  19.313  0.00  0.00    +0.000 A 
ATOM      6  C   UNL     1       0.856  10.441  18.885  0.00  0.00    +0.000 A 
ATOM      7  O   UNL     1       1.140  10.959  17.810  0.00  0.00    +0.000 OA
ATOM      8  C   UNL     1      -0.046  11.159  19.794  0.00  0.00    +0.000 A 
ATOM      9  C   UNL     1      -0.532  12.416  19.384  0.00  0.00    +0.000 A 
ATOM     10  C   UNL     1      -1.379  13.136  20.210  0.00  0.00    +0.000 A 
ATOM     11  C   UNL     1      -1.736  12.595  21.435  0.00  0.00    +0.000 A 
ATOM     12  C   UNL     1      -1.248  11.339  21.835  0.00  0.00    +0.000 A 
ATOM     13  C   UNL     1      -0.383  10.580  21.025  0.00  0.00    +0.000 A 
ATOM     14  N   UNL     1       0.138   9.311  21.368  0.00  0.00    +0.000 N 
ATOM     15  C   UNL     1      -0.209   8.691  22.654  0.00  0.00    +0.000 C 
ATOM     16  C   UNL     1       2.256   8.342  18.427  0.00  0.00    +0.000 A 
ATOM     17  O   UNL     1       2.593   8.796  17.332  0.00  0.00    +0.000 OA
ENDROOT
BRANCH   1  21
ATOM     18  C   UNL     1       4.878   4.466  16.438  0.00  0.00    +0.000 A 
ATOM     19  C   UNL     1       5.214   5.824  16.513  0.00  0.00    +0.000 A 
ATOM     20  C   UNL     1       4.423   6.714  17.248  0.00  0.00    +0.000 A 
ATOM     21  C   UNL     1       3.276   6.255  17.902  0.00  0.00    +0.000 A 
ATOM     22  C   UNL     1       2.900   4.909  17.761  0.00  0.00    +0.000 A 
ATOM     23  C   UNL     1       3.693   4.022  17.033  0.00  0.00    +0.000 A 
ATOM     24 CL   UNL     1       3.208   2.365  16.966  0.00  0.00    +0.000 Cl
BRANCH  18  26
ATOM     25  C   UNL     1       6.245   4.001  14.577  0.00  0.00    +0.000 C 
ATOM     26  O   UNL     1       5.661   3.543  15.794  0.00  0.00    +0.000 OA
ENDBRANCH  18  26
ENDBRANCH   1  21
BRANCH   2  27
ATOM     27  C   UNL     1       2.693   5.290  20.682  0.00  0.00    +0.000 C 
BRANCH  27  28
ATOM     28  C   UNL     1       1.580   4.306  21.092  0.00  0.00    +0.000 C 
ATOM     29  C   UNL     1       0.769   3.813  19.892  0.00  0.00    +0.000 C 
ATOM     30  C   UNL     1       2.162   3.102  21.841  0.00  0.00    +0.000 C 
ENDBRANCH  27  28
ENDBRANCH   2  27
TORSDOF 4
ENDMDL
MODEL 3
REMARK VINA RESULT:      -7.2      2.713      7.800
REMARK  Name = 
REMARK  8 active torsions:
REMARK  status: ('A' for Active; 'I' for Inactive)
REMARK    1  A    between atoms: C_1  and  O_2
REMARK    2  A    between atoms: O_2  and  C_3
REMARK    3  A    between atoms: C_6  and  N_7
REMARK    4  A    between atoms: C_8  and  C_9
REMARK    5  A    between atoms: C_9  and  C_10
REMARK    6  A    between atoms: C_10  and  C_11
REMARK    7  A    between atoms: C_10  and  C_12
REMARK    8  A    between atoms: N_24  and  C_25
REMARK                            x       y       z     vdW  Elec       q    Type
REMARK                         _______ _______ _______ _____ _____    ______ ____
ROOT
ATOM      1  N   UNL     1       0.790   9.312  19.533  0.00  0.00    +0.000 N 
ATOM      2  C   UNL     1       0.539   8.403  20.533  0.00  0.00    +0.000 A 
ATOM      3  N   UNL     1       1.157   7.265  20.617  0.00  0.00    +0.000 NA
ATOM      4  C   UNL     1       2.132   6.909  19.700  0.00  0.00    +0.000 A 
ATOM      5  C   UNL     1       2.420   7.718  18.663  0.00  0.00    +0.000 A 
ATOM      6  C   UNL     1       3.476   7.345  17.696  0.00  0.00    +0.000 A 
ATOM      7  O   UNL     1       3.796   8.048  16.743  0.00  0.00    +0.000 OA
ATOM      8  C   UNL     1       4.179   6.073  17.897  0.00  0.00    +0.000 A 
ATOM      9  C   UNL     1       5.182   5.720  16.974  0.00  0.00    +0.000 A 
ATOM     10  C   UNL     1       5.868   4.525  17.116  0.00  0.00    +0.000 A 
ATOM     11  C   UNL     1       5.551   3.695  18.178  0.00  0.00    +0.000 A 
ATOM     12  C   UNL     1       4.549   4.055  19.096  0.00  0.00    +0.000 A 
ATOM     13  C   UNL     1       3.829   5.259  18.984  0.00  0.00    +0.000 A 
ATOM     14  N   UNL     1       2.815   5.679  19.875  0.00  0.00    +0.000 N 
ATOM     15  C   UNL     1       2.439   4.838  21.019  0.00  0.00    +0.000 C 
ATOM     16  C   UNL     1       1.703   9.000  18.528  0.00  0.00    +0.000 A 
ATOM     17  O   UNL     1       1.961   9.759  17.594  0.00  0.00    +0.000 OA
ENDROOT
BRANCH   1  21
ATOM     18  C   UNL     1      -0.909  13.150  19.965  0.00  0.00    +0.000 A 
ATOM     19  C   UNL     1      -1.591  12.157  19.252  0.00  0.00    +0.000 A 
ATOM     20  C   UNL     1      -1.002  10.907  19.030  0.00  0.00    +0.000 A 
ATOM     21  C   UNL     1       0.286  10.646  19.505  0.00  0.00    +0.000 A 
ATOM     22  C   UNL     1       0.997  11.670  20.151  0.00  0.00    +0.000 A 
ATOM     23  C   UNL     1       0.407  12.913  20.378  0.00  0.00    +0.000 A 
ATOM     24 CL   UNL     1       1.314  14.099  21.247  0.00  0.00    +0.000 Cl
BRANCH  18  26
ATOM     25  C   UNL     1      -2.427  14.324  21.329  0.00  0.00    +0.000 C 
ATOM     26  O   UNL     1      -1.471  14.362  20.273  0.00  0.00    +0.000 OA
ENDBRANCH  18  26
ENDBRANCH   1  21
BRANCH   2  27
ATOM     27  C   UNL     1      -0.542   8.665  21.601  0.00  0.00    +0.000 C 
BRANCH  27  28
ATOM     28  C   UNL     1      -0.052   9.307  22.913  0.00  0.00    +0.000 C 
ATOM     29  C   UNL     1       1.466   9.496  22.938  0.00  0.00    +0.000 C 
ATOM     30  C   UNL     1      -0.736  10.660  23.150  0.00  0.00    +0.000 C 
ENDBRANCH  27  28
ENDBRANCH   2  27
TORSDOF 4
ENDMDL
MODEL 4
REMARK VINA RESULT:      -7.2      2.741      7.778
REMARK  Name = 
REMARK  8 active torsions:
REMARK  status: ('A' for Active; 'I' for Inactive)
REMARK    1  A    between atoms: C_1  and  O_2
REMARK    2  A    between atoms: O_2  and  C_3
REMARK    3  A    between atoms: C_6  and  N_7
REMARK    4  A    between atoms: C_8  and  C_9
REMARK    5  A    between atoms: C_9  and  C_10
REMARK    6  A    between atoms: C_10  and  C_11
REMARK    7  A    between atoms: C_10  and  C_12
REMARK    8  A    between atoms: N_24  and  C_25
REMARK                            x       y       z     vdW  Elec       q    Type
REMARK                         _______ _______ _______ _____ _____    ______ ____
ROOT
ATOM      1  N   UNL     1       0.980   9.752  19.252  0.00  0.00    +0.000 N 
ATOM      2  C   UNL     1       0.590   8.941  20.291  0.00  0.00    +0.000 A 
ATOM      3  N   UNL     1       1.057   7.741  20.456  0.00  0.00    +0.000 NA
ATOM      4  C   UNL     1       2.005   7.215  19.593  0.00  0.00    +0.000 A 
ATOM      5  C   UNL     1       2.421   7.922  18.525  0.00  0.00    +0.000 A 
ATOM      6  C   UNL     1       3.447   7.367  17.616  0.00  0.00    +0.000 A 
ATOM      7  O   UNL     1       3.879   7.969  16.638  0.00  0.00    +0.000 OA
ATOM      8  C   UNL     1       3.979   6.031  17.908  0.00  0.00    +0.000 A 
ATOM      9  C   UNL     1       4.955   5.504  17.039  0.00  0.00    +0.000 A 
ATOM     10  C   UNL     1       5.481   4.243  17.268  0.00  0.00    +0.000 A 
ATOM     11  C   UNL     1       5.033   3.521  18.362  0.00  0.00    +0.000 A 
ATOM     12  C   UNL     1       4.060   4.054  19.225  0.00  0.00    +0.000 A 
ATOM     13  C   UNL     1       3.500   5.330  19.024  0.00  0.00    +0.000 A 
ATOM     14  N   UNL     1       2.523   5.923  19.856  0.00  0.00    +0.000 N 
ATOM     15  C   UNL     1       2.014   5.201  21.030  0.00  0.00    +0.000 C 
ATOM     16  C   UNL     1       1.873   9.273  18.297  0.00  0.00    +0.000 A 
ATOM     17  O   UNL     1       2.250   9.940  17.333  0.00  0.00    +0.000 OA
ENDROOT
BRANCH   1  21
ATOM     18  C   UNL     1      -0.258  13.784  19.409  0.00  0.00    +0.000 A 
ATOM     19  C   UNL     1      -1.003  12.848  18.680  0.00  0.00    +0.000 A 
ATOM     20  C   UNL     1      -0.558  11.528  18.551  0.00  0.00    +0.000 A 
ATOM     21  C   UNL     1       0.648  11.135  19.136  0.00  0.00    +0.000 A 
ATOM     22  C   UNL     1       1.431  12.094  19.800  0.00  0.00    +0.000 A 
ATOM     23  C   UNL     1       0.983  13.409  19.934  0.00  0.00    +0.000 A 
ATOM     24 CL   UNL     1       1.962  14.515  20.830  0.00  0.00    +0.000 Cl
BRANCH  18  26
ATOM     25  C   UNL     1      -0.306  16.003  18.623  0.00  0.00    +0.000 C 
ATOM     26  O   UNL     1      -0.688  15.067  19.627  0.00  0.00    +0.000 OA
ENDBRANCH  18  26
ENDBRANCH   1  21
BRANCH   2  27
ATOM     27  C   UNL     1      -0.478   9.395  21.305  0.00  0.00    +0.000 C 
BRANCH  27  28
ATOM     28  C   UNL     1       0.027  10.266  22.472  0.00  0.00    +0.000 C 
ATOM     29  C   UNL     1      -0.878  11.470  22.734  0.00  0.00    +0.000 C 
ATOM     30  C   UNL     1       0.157   9.439  23.757  0.00  0.00    +0.000 C 
ENDBRANCH  27  28
ENDBRANCH   2  27
TORSDOF 4
ENDMDL
MODEL 5
REMARK VINA RESULT:      -6.6      2.877      7.794
REMARK  Name = 
REMARK  8 active torsions:
REMARK  status: ('A' for Active; 'I' for Inactive)
REMARK    1  A    between atoms: C_1  and  O_2
REMARK    2  A    between atoms: O_2  and  C_3
REMARK    3  A    between atoms: C_6  and  N_7
REMARK    4  A    between atoms: C_8  and  C_9
REMARK    5  A    between atoms: C_9  and  C_10
REMARK    6  A    between atoms: C_10  and  C_11
REMARK    7  A    between atoms: C_10  and  C_12
REMARK    8  A    between atoms: N_24  and  C_25
REMARK                            x       y       z     vdW  Elec       q    Type
REMARK                         _______ _______ _______ _____ _____    ______ ____
ROOT
ATOM      1  N   UNL     1       0.835   9.169  19.671  0.00  0.00    +0.000 N 
ATOM      2  C   UNL     1       0.641   8.223  20.649  0.00  0.00    +0.000 A 
ATOM      3  N   UNL     1       1.281   7.094  20.669  0.00  0.00    +0.000 NA
ATOM      4  C   UNL     1       2.223   6.787  19.700  0.00  0.00    +0.000 A 
ATOM      5  C   UNL     1       2.454   7.636  18.681  0.00  0.00    +0.000 A 
ATOM      6  C   UNL     1       3.475   7.315  17.659  0.00  0.00    +0.000 A 
ATOM      7  O   UNL     1       3.743   8.054  16.719  0.00  0.00    +0.000 OA
ATOM      8  C   UNL     1       4.207   6.049  17.788  0.00  0.00    +0.000 A 
ATOM      9  C   UNL     1       5.177   5.746  16.812  0.00  0.00    +0.000 A 
ATOM     10  C   UNL     1       5.888   4.559  16.885  0.00  0.00    +0.000 A 
ATOM     11  C   UNL     1       5.629   3.689  17.930  0.00  0.00    +0.000 A 
ATOM     12  C   UNL     1       4.661   3.999  18.901  0.00  0.00    +0.000 A 
ATOM     13  C   UNL     1       3.916   5.193  18.859  0.00  0.00    +0.000 A 
ATOM     14  N   UNL     1       2.934   5.565  19.805  0.00  0.00    +0.000 N 
ATOM     15  C   UNL     1       2.620   4.679  20.935  0.00  0.00    +0.000 C 
ATOM     16  C   UNL     1       1.710   8.907  18.619  0.00  0.00    +0.000 A 
ATOM     17  O   UNL     1       1.915   9.703  17.701  0.00  0.00    +0.000 OA
ENDROOT
BRANCH   1  21
ATOM     18  C   UNL     1      -0.588  13.118  19.238  0.00  0.00    +0.000 A 
ATOM     19  C   UNL     1       0.689  12.886  19.765  0.00  0.00    +0.000 A 
ATOM     20  C   UNL     1       1.139  11.580  19.991  0.00  0.00    +0.000 A 
ATOM     21  C   UNL     1       0.307  10.494  19.709  0.00  0.00    +0.000 A 
ATOM     22  C   UNL     1      -1.000  10.733  19.255  0.00  0.00    +0.000 A 
ATOM     23  C   UNL     1      -1.445  12.035  19.023  0.00  0.00    +0.000 A 
ATOM     24 CL   UNL     1      -3.039  12.249  18.391  0.00  0.00    +0.000 Cl
BRANCH  18  26
ATOM     25  C   UNL     1      -0.869  15.343  19.958  0.00  0.00    +0.000 C 
ATOM     26  O   UNL     1      -1.045  14.373  18.928  0.00  0.00    +0.000 OA
ENDBRANCH  18  26
ENDBRANCH   1  21
BRANCH   2  27
ATOM     27  C   UNL     1      -0.399   8.429  21.769  0.00  0.00    +0.000 C 
BRANCH  27  28
ATOM     28  C   UNL     1       0.084   9.220  23.000  0.00  0.00    +0.000 C 
ATOM     29  C   UNL     1       1.589   9.489  22.966  0.00  0.00    +0.000 C 
ATOM     30  C   UNL     1      -0.668  10.551  23.125  0.00  0.00    +0.000 C 
ENDBRANCH  27  28
ENDBRANCH   2  27
TORSDOF 4
ENDMDL
MODEL 6
REMARK VINA RESULT:      -6.5      4.174      9.056
REMARK  Name = 
REMARK  8 active torsions:
REMARK  status: ('A' for Active; 'I' for Inactive)
REMARK    1  A    between atoms: C_1  and  O_2
REMARK    2  A    between atoms: O_2  and  C_3
REMARK    3  A    between atoms: C_6  and  N_7
REMARK    4  A    between atoms: C_8  and  C_9
REMARK    5  A    between atoms: C_9  and  C_10
REMARK    6  A    between atoms: C_10  and  C_11
REMARK    7  A    between atoms: C_10  and  C_12
REMARK    8  A    between atoms: N_24  and  C_25
REMARK                            x       y       z     vdW  Elec       q    Type
REMARK                         _______ _______ _______ _____ _____    ______ ____
ROOT
ATOM      1  N   UNL     1       0.766  13.279  20.032  0.00  0.00    +0.000 N 
ATOM      2  C   UNL     1       0.339  12.833  21.260  0.00  0.00    +0.000 A 
ATOM      3  N   UNL     1       0.369  11.580  21.599  0.00  0.00    +0.000 NA
ATOM      4  C   UNL     1       0.859  10.614  20.735  0.00  0.00    +0.000 A 
ATOM      5  C   UNL     1       1.265  10.952  19.496  0.00  0.00    +0.000 A 
ATOM      6  C   UNL     1       1.807   9.922  18.583  0.00  0.00    +0.000 A 
ATOM      7  O   UNL     1       2.209  10.170  17.450  0.00  0.00    +0.000 OA
ATOM      8  C   UNL     1       1.873   8.537  19.063  0.00  0.00    +0.000 A 
ATOM      9  C   UNL     1       2.387   7.559  18.190  0.00  0.00    +0.000 A 
ATOM     10  C   UNL     1       2.462   6.236  18.594  0.00  0.00    +0.000 A 
ATOM     11  C   UNL     1       2.026   5.901  19.866  0.00  0.00    +0.000 A 
ATOM     12  C   UNL     1       1.516   6.883  20.732  0.00  0.00    +0.000 A 
ATOM     13  C   UNL     1       1.422   8.237  20.356  0.00  0.00    +0.000 A 
ATOM     14  N   UNL     1       0.922   9.271  21.181  0.00  0.00    +0.000 N 
ATOM     15  C   UNL     1       0.449   8.971  22.539  0.00  0.00    +0.000 C 
ATOM     16  C   UNL     1       1.204  12.365  19.077  0.00  0.00    +0.000 A 
ATOM     17  O   UNL     1       1.582  12.695  17.953  0.00  0.00    +0.000 OA
ENDROOT
BRANCH   1  21
ATOM     18  C   UNL     1       1.263  17.166  18.465  0.00  0.00    +0.000 A 
ATOM     19  C   UNL     1       2.376  16.440  18.909  0.00  0.00    +0.000 A 
ATOM     20  C   UNL     1       2.215  15.185  19.508  0.00  0.00    +0.000 A 
ATOM     21  C   UNL     1       0.936  14.652  19.684  0.00  0.00    +0.000 A 
ATOM     22  C   UNL     1      -0.181  15.416  19.308  0.00  0.00    +0.000 A 
ATOM     23  C   UNL     1      -0.020  16.663  18.705  0.00  0.00    +0.000 A 
ATOM     24 CL   UNL     1      -1.438  17.512  18.199  0.00  0.00    +0.000 Cl
BRANCH  18  26
ATOM     25  C   UNL     1       1.459  18.256  16.387  0.00  0.00    +0.000 C 
ATOM     26  O   UNL     1       1.372  18.363  17.805  0.00  0.00    +0.000 OA
ENDBRANCH  18  26
ENDBRANCH   1  21
BRANCH   2  27
ATOM     27  C   UNL     1      -0.254  13.801  22.303  0.00  0.00    +0.000 C 
BRANCH  27  28
ATOM     28  C   UNL     1      -1.685  13.484  22.780  0.00  0.00    +0.000 C 
ATOM     29  C   UNL     1      -2.151  14.428  23.889  0.00  0.00    +0.000 C 
ATOM     30  C   UNL     1      -2.677  13.544  21.611  0.00  0.00    +0.000 C 
ENDBRANCH  27  28
ENDBRANCH   2  27
TORSDOF 4
ENDMDL
MODEL 7
REMARK VINA RESULT:      -6.3      4.757     10.222
REMARK  Name = 
REMARK  8 active torsions:
REMARK  status: ('A' for Active; 'I' for Inactive)
REMARK    1  A    between atoms: C_1  and  O_2
REMARK    2  A    between atoms: O_2  and  C_3
REMARK    3  A    between atoms: C_6  and  N_7
REMARK    4  A    between atoms: C_8  and  C_9
REMARK    5  A    between atoms: C_9  and  C_10
REMARK    6  A    between atoms: C_10  and  C_11
REMARK    7  A    between atoms: C_10  and  C_12
REMARK    8  A    between atoms: N_24  and  C_25
REMARK                            x       y       z     vdW  Elec       q    Type
REMARK                         _______ _______ _______ _____ _____    ______ ____
ROOT
ATOM      1  N   UNL     1      -0.857  12.237  21.691  0.00  0.00    +0.000 N 
ATOM      2  C   UNL     1      -0.358  12.757  20.521  0.00  0.00    +0.000 A 
ATOM      3  N   UNL     1       0.381  12.067  19.707  0.00  0.00    +0.000 NA
ATOM      4  C   UNL     1       0.692  10.743  19.968  0.00  0.00    +0.000 A 
ATOM      5  C   UNL     1       0.279  10.158  21.108  0.00  0.00    +0.000 A 
ATOM      6  C   UNL     1       0.596   8.738  21.376  0.00  0.00    +0.000 A 
ATOM      7  O   UNL     1       0.233   8.145  22.386  0.00  0.00    +0.000 OA
ATOM      8  C   UNL     1       1.377   8.003  20.374  0.00  0.00    +0.000 A 
ATOM      9  C   UNL     1       1.679   6.652  20.633  0.00  0.00    +0.000 A 
ATOM     10  C   UNL     1       2.421   5.919  19.721  0.00  0.00    +0.000 A 
ATOM     11  C   UNL     1       2.853   6.538  18.560  0.00  0.00    +0.000 A 
ATOM     12  C   UNL     1       2.546   7.886  18.308  0.00  0.00    +0.000 A 
ATOM     13  C   UNL     1       1.797   8.664  19.211  0.00  0.00    +0.000 A 
ATOM     14  N   UNL     1       1.453  10.021  19.014  0.00  0.00    +0.000 N 
ATOM     15  C   UNL     1       1.884  10.726  17.799  0.00  0.00    +0.000 C 
ATOM     16  C   UNL     1      -0.530  10.936  22.066  0.00  0.00    +0.000 A 
ATOM     17  O   UNL     1      -0.927  10.415  23.108  0.00  0.00    +0.000 OA
ENDROOT
BRANCH   1  21
ATOM     18  C   UNL     1      -3.718  14.560  23.748  0.00  0.00    +0.000 A 
ATOM     19  C   UNL     1      -2.368  14.620  24.117  0.00  0.00    +0.000 A 
ATOM     20  C   UNL     1      -1.423  13.793  23.499  0.00  0.00    +0.000 A 
ATOM     21  C   UNL     1      -1.824  12.883  22.518  0.00  0.00    +0.000 A 
ATOM     22  C   UNL     1      -3.189  12.771  22.205  0.00  0.00    +0.000 A 
ATOM     23  C   UNL     1      -4.129  13.600  22.817  0.00  0.00    +0.000 A 
ATOM     24 CL   UNL     1      -5.780  13.459  22.327  0.00  0.00    +0.000 Cl
BRANCH  18  26
ATOM     25  C   UNL     1      -4.148  16.554  24.924  0.00  0.00    +0.000 C 
ATOM     26  O   UNL     1      -4.668  15.400  24.268  0.00  0.00    +0.000 OA
ENDBRANCH  18  26
ENDBRANCH   1  21
BRANCH   2  27
ATOM     27  C   UNL     1      -0.607  14.226  20.127  0.00  0.00    +0.000 C 
BRANCH  27  28
ATOM     28  C   UNL     1       0.593  15.180  20.282  0.00  0.00    +0.000 C 
ATOM     29  C   UNL     1       1.010  15.812  18.953  0.00  0.00    +0.000 C 
ATOM     30  C   UNL     1       0.286  16.288  21.297  0.00  0.00    +0.000 C 
ENDBRANCH  27  28
ENDBRANCH   2  27
TORSDOF 4
ENDMDL
MODEL 8
REMARK VINA RESULT:      -6.2      7.282      9.972
REMARK  Name = 
REMARK  8 active torsions:
REMARK  status: ('A' for Active; 'I' for Inactive)
REMARK    1  A    between atoms: C_1  and  O_2
REMARK    2  A    between atoms: O_2  and  C_3
REMARK    3  A    between atoms: C_6  and  N_7
REMARK    4  A    between atoms: C_8  and  C_9
REMARK    5  A    between atoms: C_9  and  C_10
REMARK    6  A    between atoms: C_10  and  C_11
REMARK    7  A    between atoms: C_10  and  C_12
REMARK    8  A    between atoms: N_24  and  C_25
REMARK                            x       y       z     vdW  Elec       q    Type
REMARK                         _______ _______ _______ _____ _____    ______ ____
ROOT
ATOM      1  N   UNL     1      -1.750  13.417  20.068  0.00  0.00    +0.000 N 
ATOM      2  C   UNL     1      -1.198  12.343  19.411  0.00  0.00    +0.000 A 
ATOM      3  N   UNL     1       0.004  12.363  18.923  0.00  0.00    +0.000 NA
ATOM      4  C   UNL     1       0.816  13.477  19.061  0.00  0.00    +0.000 A 
ATOM      5  C   UNL     1       0.349  14.591  19.658  0.00  0.00    +0.000 A 
ATOM      6  C   UNL     1       1.224  15.772  19.822  0.00  0.00    +0.000 A 
ATOM      7  O   UNL     1       0.862  16.807  20.372  0.00  0.00    +0.000 OA
ATOM      8  C   UNL     1       2.595  15.694  19.306  0.00  0.00    +0.000 A 
ATOM      9  C   UNL     1       3.424  16.822  19.462  0.00  0.00    +0.000 A 
ATOM     10  C   UNL     1       4.725  16.800  18.983  0.00  0.00    +0.000 A 
ATOM     11  C   UNL     1       5.186  15.654  18.358  0.00  0.00    +0.000 A 
ATOM     12  C   UNL     1       4.353  14.532  18.207  0.00  0.00    +0.000 A 
ATOM     13  C   UNL     1       3.026  14.517  18.678  0.00  0.00    +0.000 A 
ATOM     14  N   UNL     1       2.141  13.421  18.561  0.00  0.00    +0.000 N 
ATOM     15  C   UNL     1       2.580  12.181  17.908  0.00  0.00    +0.000 C 
ATOM     16  C   UNL     1      -1.029  14.602  20.185  0.00  0.00    +0.000 A 
ATOM     17  O   UNL     1      -1.470  15.606  20.745  0.00  0.00    +0.000 OA
ENDROOT
BRANCH   1  21
ATOM     18  C   UNL     1      -5.376  12.749  22.122  0.00  0.00    +0.000 A 
ATOM     19  C   UNL     1      -5.392  13.126  20.774  0.00  0.00    +0.000 A 
ATOM     20  C   UNL     1      -4.201  13.432  20.105  0.00  0.00    +0.000 A 
ATOM     21  C   UNL     1      -2.983  13.380  20.786  0.00  0.00    +0.000 A 
ATOM     22  C   UNL     1      -2.978  13.077  22.158  0.00  0.00    +0.000 A 
ATOM     23  C   UNL     1      -4.165  12.766  22.822  0.00  0.00    +0.000 A 
ATOM     24 CL   UNL     1      -4.073  12.328  24.490  0.00  0.00    +0.000 Cl
BRANCH  18  26
ATOM     25  C   UNL     1      -7.333  13.444  23.232  0.00  0.00    +0.000 C 
ATOM     26  O   UNL     1      -6.505  12.367  22.800  0.00  0.00    +0.000 OA
ENDBRANCH  18  26
ENDBRANCH   1  21
BRANCH   2  27
ATOM     27  C   UNL     1      -2.005  11.052  19.166  0.00  0.00    +0.000 C 
BRANCH  27  28
ATOM     28  C   UNL     1      -2.632  10.904  17.766  0.00  0.00    +0.000 C 
ATOM     29  C   UNL     1      -1.923   9.846  16.919  0.00  0.00    +0.000 C 
ATOM     30  C   UNL     1      -4.123  10.559  17.867  0.00  0.00    +0.000 C 
ENDBRANCH  27  28
ENDBRANCH   2  27
TORSDOF 4
ENDMDL
MODEL 9
REMARK VINA RESULT:      -6.2      2.574      4.108
REMARK  Name = 
REMARK  8 active torsions:
REMARK  status: ('A' for Active; 'I' for Inactive)
REMARK    1  A    between atoms: C_1  and  O_2
REMARK    2  A    between atoms: O_2  and  C_3
REMARK    3  A    between atoms: C_6  and  N_7
REMARK    4  A    between atoms: C_8  and  C_9
REMARK    5  A    between atoms: C_9  and  C_10
REMARK    6  A    between atoms: C_10  and  C_11
REMARK    7  A    between atoms: C_10  and  C_12
REMARK    8  A    between atoms: N_24  and  C_25
REMARK                            x       y       z     vdW  Elec       q    Type
REMARK                         _______ _______ _______ _____ _____    ______ ____
ROOT
ATOM      1  N   UNL     1       2.654   6.848  18.851  0.00  0.00    +0.000 N 
ATOM      2  C   UNL     1       2.962   7.842  17.953  0.00  0.00    +0.000 A 
ATOM      3  N   UNL     1       2.546   9.064  18.091  0.00  0.00    +0.000 NA
ATOM      4  C   UNL     1       1.776   9.441  19.179  0.00  0.00    +0.000 A 
ATOM      5  C   UNL     1       1.393   8.528  20.092  0.00  0.00    +0.000 A 
ATOM      6  C   UNL     1       0.588   8.936  21.263  0.00  0.00    +0.000 A 
ATOM      7  O   UNL     1       0.224   8.155  22.136  0.00  0.00    +0.000 OA
ATOM      8  C   UNL     1       0.214  10.350  21.386  0.00  0.00    +0.000 A 
ATOM      9  C   UNL     1      -0.555  10.735  22.502  0.00  0.00    +0.000 A 
ATOM     10  C   UNL     1      -0.940  12.057  22.658  0.00  0.00    +0.000 A 
ATOM     11  C   UNL     1      -0.552  12.982  21.704  0.00  0.00    +0.000 A 
ATOM     12  C   UNL     1       0.217  12.590  20.594  0.00  0.00    +0.000 A 
ATOM     13  C   UNL     1       0.624  11.257  20.399  0.00  0.00    +0.000 A 
ATOM     14  N   UNL     1       1.400  10.801  19.309  0.00  0.00    +0.000 N 
ATOM     15  C   UNL     1       1.839  11.741  18.268  0.00  0.00    +0.000 C 
ATOM     16  C   UNL     1       1.823   7.126  19.933  0.00  0.00    +0.000 A 
ATOM     17  O   UNL     1       1.494   6.278  20.763  0.00  0.00    +0.000 OA
ENDROOT
BRANCH   1  21
ATOM     18  C   UNL     1       4.084   2.905  19.317  0.00  0.00    +0.000 A 
ATOM     19  C   UNL     1       4.843   3.986  19.781  0.00  0.00    +0.000 A 
ATOM     20  C   UNL     1       4.420   5.301  19.558  0.00  0.00    +0.000 A 
ATOM     21  C   UNL     1       3.241   5.547  18.851  0.00  0.00    +0.000 A 
ATOM     22  C   UNL     1       2.523   4.463  18.319  0.00  0.00    +0.000 A 
ATOM     23  C   UNL     1       2.942   3.152  18.548  0.00  0.00    +0.000 A 
ATOM     24 CL   UNL     1       1.967   1.867  17.929  0.00  0.00    +0.000 Cl
BRANCH  18  26
ATOM     25  C   UNL     1       5.066   1.386  20.824  0.00  0.00    +0.000 C 
ATOM     26  O   UNL     1       4.415   1.600  19.575  0.00  0.00    +0.000 OA
ENDBRANCH  18  26
ENDBRANCH   1  21
BRANCH   2  27
ATOM     27  C   UNL     1       3.789   7.550  16.684  0.00  0.00    +0.000 C 
BRANCH  27  28
ATOM     28  C   UNL     1       5.048   6.684  16.885  0.00  0.00    +0.000 C 
ATOM     29  C   UNL     1       5.355   5.813  15.666  0.00  0.00    +0.000 C 
ATOM     30  C   UNL     1       6.267   7.557  17.206  0.00  0.00    +0.000 C 
ENDBRANCH  27  28
ENDBRANCH   2  27
TORSDOF 4
ENDMDL
