MODEL 1
REMARK VINA RESULT:      -7.7      0.000      0.000
REMARK  Name = 
REMARK  4 active torsions:
REMARK  status: ('A' for Active; 'I' for Inactive)
REMARK    1  A    between atoms: C_8  and  C_9
REMARK    2  A    between atoms: C_14  and  O_15
REMARK    3  A    between atoms: O_15  and  C_16
REMARK    4  A    between atoms: C_16  and  C_17
REMARK                            x       y       z     vdW  Elec       q    Type
REMARK                         _______ _______ _______ _____ _____    ______ ____
ROOT
ATOM      1  C   UNL     1       2.270   6.747  19.465  0.00  0.00    +0.000 C 
ATOM      2  O   UNL     1       1.856   5.906  20.269  0.00  0.00    +0.000 OA
ATOM      3  N   UNL     1       1.950   8.097  19.594  0.00  0.00    +0.000 N 
ATOM      4  C   UNL     1       1.369   8.616  20.830  0.00  0.00    +0.000 C 
ATOM      5  C   UNL     1      -0.033   9.179  20.595  0.00  0.00    +0.000 C 
ATOM      6  C   UNL     1      -0.063  10.151  19.402  0.00  0.00    +0.000 C 
ATOM      7  C   UNL     1       0.548   9.461  18.174  0.00  0.00    +0.000 C 
ATOM      8  C   UNL     1       1.980   9.040  18.484  0.00  0.00    +0.000 C 
ENDROOT
BRANCH   1  16
ATOM      9  O   UNL     1       8.085   4.147  16.783  0.00  0.00    +0.000 OA
ATOM     10  C   UNL     1       6.998   4.696  16.769  0.00  0.00    +0.000 C 
ATOM     11  N   UNL     1       5.914   4.340  17.519  0.00  0.00    +0.000 N 
ATOM     12  C   UNL     1       4.899   5.366  17.478  0.00  0.00    +0.000 C 
ATOM     13  C   UNL     1       5.311   6.127  16.227  0.00  0.00    +0.000 C 
ATOM     14  O   UNL     1       6.693   5.801  16.021  0.00  0.00    +0.000 OA
ATOM     15  C   UNL     1       4.775   6.194  18.783  0.00  0.00    +0.000 C 
ATOM     16  C   UNL     1       3.291   6.413  18.361  0.00  0.00    +0.000 C 
ATOM     17  C   UNL     1       3.411   4.995  17.708  0.00  0.00    +0.000 C 
ATOM     18  H   UNL     1       6.055   3.630  18.223  0.00  0.00    +0.000 HD
ENDBRANCH   1  16
BRANCH   6  19
ATOM     19  O   UNL     1       0.662  11.335  19.774  0.00  0.00    +0.000 OA
BRANCH  19  20
ATOM     20  C   UNL     1      -0.105  12.540  19.660  0.00  0.00    +0.000 C 
BRANCH  20  21
ATOM     21  C   UNL     1      -1.012  12.723  20.855  0.00  0.00    +0.000 A 
ATOM     22  C   UNL     1      -0.468  13.041  22.112  0.00  0.00    +0.000 A 
ATOM     23  C   UNL     1      -1.291  13.185  23.232  0.00  0.00    +0.000 A 
ATOM     24  C   UNL     1      -2.658  13.010  23.097  0.00  0.00    +0.000 A 
ATOM     25  F   UNL     1      -3.446  13.146  24.173  0.00  0.00    +0.000 F 
ATOM     26  C   UNL     1      -3.229  12.674  21.876  0.00  0.00    +0.000 A 
ATOM     27  C   UNL     1      -2.406  12.527  20.759  0.00  0.00    +0.000 A 
ATOM     28 CL   UNL     1      -3.172  12.089  19.271  0.00  0.00    +0.000 Cl
ENDBRANCH  20  21
ENDBRANCH  19  20
ENDBRANCH   6  19
TORSDOF 4
ENDMDL
MODEL 2
REMARK VINA RESULT:      -7.6      2.689      3.487
REMARK  Name = 
REMARK  4 active torsions:
REMARK  status: ('A' for Active; 'I' for Inactive)
REMARK    1  A    between atoms: C_8  and  C_9
REMARK    2  A    between atoms: C_14  and  O_15
REMARK    3  A    between atoms: O_15  and  C_16
REMARK    4  A    between atoms: C_16  and  C_17
REMARK                            x       y       z     vdW  Elec       q    Type
REMARK                         _______ _______ _______ _____ _____    ______ ____
ROOT
ATOM      1  C   UNL     1       2.223   6.521  19.318  0.00  0.00    +0.000 C 
ATOM      2  O   UNL     1       1.713   5.667  20.050  0.00  0.00    +0.000 OA
ATOM      3  N   UNL     1       2.028   7.882  19.542  0.00  0.00    +0.000 N 
ATOM      4  C   UNL     1       1.467   8.362  20.804  0.00  0.00    +0.000 C 
ATOM      5  C   UNL     1       0.130   9.071  20.586  0.00  0.00    +0.000 C 
ATOM      6  C   UNL     1       0.220  10.126  19.469  0.00  0.00    +0.000 C 
ATOM      7  C   UNL     1       0.795   9.472  18.203  0.00  0.00    +0.000 C 
ATOM      8  C   UNL     1       2.173   8.896  18.507  0.00  0.00    +0.000 C 
ENDROOT
BRANCH   1  16
ATOM      9  O   UNL     1       8.159   4.179  16.661  0.00  0.00    +0.000 OA
ATOM     10  C   UNL     1       7.029   4.632  16.639  0.00  0.00    +0.000 C 
ATOM     11  N   UNL     1       6.002   4.257  17.459  0.00  0.00    +0.000 N 
ATOM     12  C   UNL     1       4.902   5.187  17.364  0.00  0.00    +0.000 C 
ATOM     13  C   UNL     1       5.209   5.862  16.036  0.00  0.00    +0.000 C 
ATOM     14  O   UNL     1       6.607   5.634  15.809  0.00  0.00    +0.000 OA
ATOM     15  C   UNL     1       4.745   6.118  18.595  0.00  0.00    +0.000 C 
ATOM     16  C   UNL     1       3.236   6.173  18.211  0.00  0.00    +0.000 C 
ATOM     17  C   UNL     1       3.459   4.716  17.683  0.00  0.00    +0.000 C 
ATOM     18  H   UNL     1       6.225   3.629  18.217  0.00  0.00    +0.000 HD
ENDBRANCH   1  16
BRANCH   6  19
ATOM     19  O   UNL     1       1.043  11.206  19.941  0.00  0.00    +0.000 OA
BRANCH  19  20
ATOM     20  C   UNL     1       0.392  12.482  19.912  0.00  0.00    +0.000 C 
BRANCH  20  21
ATOM     21  C   UNL     1       1.263  13.523  19.247  0.00  0.00    +0.000 A 
ATOM     22  C   UNL     1       2.537  13.172  18.764  0.00  0.00    +0.000 A 
ATOM     23  C   UNL     1       3.366  14.129  18.173  0.00  0.00    +0.000 A 
ATOM     24  C   UNL     1       2.924  15.437  18.066  0.00  0.00    +0.000 A 
ATOM     25  F   UNL     1       3.722  16.355  17.500  0.00  0.00    +0.000 F 
ATOM     26  C   UNL     1       1.681  15.825  18.551  0.00  0.00    +0.000 A 
ATOM     27  C   UNL     1       0.856  14.870  19.144  0.00  0.00    +0.000 A 
ATOM     28 CL   UNL     1      -0.671  15.415  19.747  0.00  0.00    +0.000 Cl
ENDBRANCH  20  21
ENDBRANCH  19  20
ENDBRANCH   6  19
TORSDOF 4
ENDMDL
MODEL 3
REMARK VINA RESULT:      -7.5      4.585      9.991
REMARK  Name = 
REMARK  4 active torsions:
REMARK  status: ('A' for Active; 'I' for Inactive)
REMARK    1  A    between atoms: C_8  and  C_9
REMARK    2  A    between atoms: C_14  and  O_15
REMARK    3  A    between atoms: O_15  and  C_16
REMARK    4  A    between atoms: C_16  and  C_17
REMARK                            x       y       z     vdW  Elec       q    Type
REMARK                         _______ _______ _______ _____ _____    ______ ____
ROOT
ATOM      1  C   UNL     1       1.360   9.017  18.702  0.00  0.00    +0.000 C 
ATOM      2  O   UNL     1       1.235   9.526  17.583  0.00  0.00    +0.000 OA
ATOM      3  N   UNL     1       2.313   8.032  18.950  0.00  0.00    +0.000 N 
ATOM      4  C   UNL     1       3.391   7.773  17.997  0.00  0.00    +0.000 C 
ATOM      5  C   UNL     1       3.308   6.354  17.434  0.00  0.00    +0.000 C 
ATOM      6  C   UNL     1       3.159   5.306  18.550  0.00  0.00    +0.000 C 
ATOM      7  C   UNL     1       1.975   5.692  19.450  0.00  0.00    +0.000 C 
ATOM      8  C   UNL     1       2.215   7.075  20.044  0.00  0.00    +0.000 C 
ENDROOT
BRANCH   1  16
ATOM      9  O   UNL     1      -1.123  13.708  23.130  0.00  0.00    +0.000 OA
ATOM     10  C   UNL     1      -0.949  12.596  22.663  0.00  0.00    +0.000 C 
ATOM     11  N   UNL     1      -0.937  12.281  21.333  0.00  0.00    +0.000 N 
ATOM     12  C   UNL     1      -0.418  10.950  21.125  0.00  0.00    +0.000 C 
ATOM     13  C   UNL     1      -0.596  10.351  22.511  0.00  0.00    +0.000 C 
ATOM     14  O   UNL     1      -0.691  11.473  23.401  0.00  0.00    +0.000 OA
ATOM     15  C   UNL     1       1.013  10.909  20.530  0.00  0.00    +0.000 C 
ATOM     16  C   UNL     1       0.600   9.528  19.941  0.00  0.00    +0.000 C 
ATOM     17  C   UNL     1      -0.837  10.143  19.868  0.00  0.00    +0.000 C 
ATOM     18  H   UNL     1      -0.967  13.049  20.679  0.00  0.00    +0.000 HD
ENDBRANCH   1  16
BRANCH   6  19
ATOM     19  O   UNL     1       4.396   5.252  19.279  0.00  0.00    +0.000 OA
BRANCH  19  20
ATOM     20  C   UNL     1       5.257   4.180  18.875  0.00  0.00    +0.000 C 
BRANCH  20  21
ATOM     21  C   UNL     1       5.824   4.426  17.496  0.00  0.00    +0.000 A 
ATOM     22  C   UNL     1       5.353   3.685  16.397  0.00  0.00    +0.000 A 
ATOM     23  C   UNL     1       5.887   3.881  15.121  0.00  0.00    +0.000 A 
ATOM     24  C   UNL     1       6.894   4.815  14.942  0.00  0.00    +0.000 A 
ATOM     25  F   UNL     1       7.407   4.999  13.717  0.00  0.00    +0.000 F 
ATOM     26  C   UNL     1       7.400   5.549  16.008  0.00  0.00    +0.000 A 
ATOM     27  C   UNL     1       6.868   5.350  17.282  0.00  0.00    +0.000 A 
ATOM     28 CL   UNL     1       7.552   6.278  18.572  0.00  0.00    +0.000 Cl
ENDBRANCH  20  21
ENDBRANCH  19  20
ENDBRANCH   6  19
TORSDOF 4
ENDMDL
MODEL 4
REMARK VINA RESULT:      -7.4      4.522      9.792
REMARK  Name = 
REMARK  4 active torsions:
REMARK  status: ('A' for Active; 'I' for Inactive)
REMARK    1  A    between atoms: C_8  and  C_9
REMARK    2  A    between atoms: C_14  and  O_15
REMARK    3  A    between atoms: O_15  and  C_16
REMARK    4  A    between atoms: C_16  and  C_17
REMARK                            x       y       z     vdW  Elec       q    Type
REMARK                         _______ _______ _______ _____ _____    ______ ____
ROOT
ATOM      1  C   UNL     1       0.614   9.492  18.856  0.00  0.00    +0.000 C 
ATOM      2  O   UNL     1       0.260   9.706  17.693  0.00  0.00    +0.000 OA
ATOM      3  N   UNL     1       1.650   8.608  19.151  0.00  0.00    +0.000 N 
ATOM      4  C   UNL     1       2.549   8.129  18.103  0.00  0.00    +0.000 C 
ATOM      5  C   UNL     1       2.444   6.614  17.927  0.00  0.00    +0.000 C 
ATOM      6  C   UNL     1       2.559   5.876  19.272  0.00  0.00    +0.000 C 
ATOM      7  C   UNL     1       1.539   6.463  20.259  0.00  0.00    +0.000 C 
ATOM      8  C   UNL     1       1.806   7.953  20.442  0.00  0.00    +0.000 C 
ENDROOT
BRANCH   1  16
ATOM      9  O   UNL     1      -0.180  14.963  23.005  0.00  0.00    +0.000 OA
ATOM     10  C   UNL     1      -0.383  13.834  22.597  0.00  0.00    +0.000 C 
ATOM     11  N   UNL     1      -0.476  13.464  21.284  0.00  0.00    +0.000 N 
ATOM     12  C   UNL     1      -0.426  12.027  21.150  0.00  0.00    +0.000 C 
ATOM     13  C   UNL     1      -0.793  11.593  22.560  0.00  0.00    +0.000 C 
ATOM     14  O   UNL     1      -0.512  12.728  23.393  0.00  0.00    +0.000 OA
ATOM     15  C   UNL     1       0.912  11.485  20.584  0.00  0.00    +0.000 C 
ATOM     16  C   UNL     1       0.065  10.289  20.055  0.00  0.00    +0.000 C 
ATOM     17  C   UNL     1      -1.087  11.340  19.927  0.00  0.00    +0.000 C 
ATOM     18  H   UNL     1      -0.250  14.164  20.593  0.00  0.00    +0.000 HD
ENDBRANCH   1  16
BRANCH   6  19
ATOM     19  O   UNL     1       3.909   6.016  19.744  0.00  0.00    +0.000 OA
BRANCH  19  20
ATOM     20  C   UNL     1       4.708   4.839  19.563  0.00  0.00    +0.000 C 
BRANCH  20  21
ATOM     21  C   UNL     1       5.437   4.874  18.240  0.00  0.00    +0.000 A 
ATOM     22  C   UNL     1       6.518   5.756  18.053  0.00  0.00    +0.000 A 
ATOM     23  C   UNL     1       7.183   5.820  16.826  0.00  0.00    +0.000 A 
ATOM     24  C   UNL     1       6.770   5.005  15.785  0.00  0.00    +0.000 A 
ATOM     25  F   UNL     1       7.409   5.070  14.608  0.00  0.00    +0.000 F 
ATOM     26  C   UNL     1       5.693   4.138  15.926  0.00  0.00    +0.000 A 
ATOM     27  C   UNL     1       5.027   4.077  17.150  0.00  0.00    +0.000 A 
ATOM     28 CL   UNL     1       3.682   2.995  17.260  0.00  0.00    +0.000 Cl
ENDBRANCH  20  21
ENDBRANCH  19  20
ENDBRANCH   6  19
TORSDOF 4
ENDMDL
MODEL 5
REMARK VINA RESULT:      -7.3      3.230      4.252
REMARK  Name = 
REMARK  4 active torsions:
REMARK  status: ('A' for Active; 'I' for Inactive)
REMARK    1  A    between atoms: C_8  and  C_9
REMARK    2  A    between atoms: C_14  and  O_15
REMARK    3  A    between atoms: O_15  and  C_16
REMARK    4  A    between atoms: C_16  and  C_17
REMARK                            x       y       z     vdW  Elec       q    Type
REMARK                         _______ _______ _______ _____ _____    ______ ____
ROOT
ATOM      1  C   UNL     1       2.876   7.619  18.497  0.00  0.00    +0.000 C 
ATOM      2  O   UNL     1       3.647   8.068  17.643  0.00  0.00    +0.000 OA
ATOM      3  N   UNL     1       1.731   8.313  18.881  0.00  0.00    +0.000 N 
ATOM      4  C   UNL     1       1.237   9.441  18.093  0.00  0.00    +0.000 C 
ATOM      5  C   UNL     1       1.266  10.740  18.898  0.00  0.00    +0.000 C 
ATOM      6  C   UNL     1       0.605  10.569  20.278  0.00  0.00    +0.000 C 
ATOM      7  C   UNL     1       1.243   9.372  20.999  0.00  0.00    +0.000 C 
ATOM      8  C   UNL     1       1.060   8.113  20.158  0.00  0.00    +0.000 C 
ENDROOT
BRANCH   1  16
ATOM      9  O   UNL     1       3.901   0.784  18.405  0.00  0.00    +0.000 OA
ATOM     10  C   UNL     1       3.713   1.877  18.908  0.00  0.00    +0.000 C 
ATOM     11  N   UNL     1       4.286   3.051  18.505  0.00  0.00    +0.000 N 
ATOM     12  C   UNL     1       3.629   4.181  19.117  0.00  0.00    +0.000 C 
ATOM     13  C   UNL     1       2.940   3.510  20.295  0.00  0.00    +0.000 C 
ATOM     14  O   UNL     1       2.854   2.121  19.944  0.00  0.00    +0.000 OA
ATOM     15  C   UNL     1       2.723   4.991  18.154  0.00  0.00    +0.000 C 
ATOM     16  C   UNL     1       3.019   6.203  19.088  0.00  0.00    +0.000 C 
ATOM     17  C   UNL     1       4.402   5.510  19.322  0.00  0.00    +0.000 C 
ATOM     18  H   UNL     1       4.827   3.029  17.653  0.00  0.00    +0.000 HD
ENDBRANCH   1  16
BRANCH   6  19
ATOM     19  O   UNL     1      -0.806  10.389  20.077  0.00  0.00    +0.000 OA
BRANCH  19  20
ATOM     20  C   UNL     1      -1.473  11.559  19.586  0.00  0.00    +0.000 C 
BRANCH  20  21
ATOM     21  C   UNL     1      -2.316  11.237  18.373  0.00  0.00    +0.000 A 
ATOM     22  C   UNL     1      -1.742  10.578  17.270  0.00  0.00    +0.000 A 
ATOM     23  C   UNL     1      -2.501  10.300  16.131  0.00  0.00    +0.000 A 
ATOM     24  C   UNL     1      -3.833  10.680  16.091  0.00  0.00    +0.000 A 
ATOM     25  F   UNL     1      -4.558  10.413  14.995  0.00  0.00    +0.000 F 
ATOM     26  C   UNL     1      -4.427  11.351  17.152  0.00  0.00    +0.000 A 
ATOM     27  C   UNL     1      -3.668  11.632  18.288  0.00  0.00    +0.000 A 
ATOM     28 CL   UNL     1      -4.456  12.488  19.568  0.00  0.00    +0.000 Cl
ENDBRANCH  20  21
ENDBRANCH  19  20
ENDBRANCH   6  19
TORSDOF 4
ENDMDL
MODEL 6
REMARK VINA RESULT:      -7.3      2.866      3.830
REMARK  Name = 
REMARK  4 active torsions:
REMARK  status: ('A' for Active; 'I' for Inactive)
REMARK    1  A    between atoms: C_8  and  C_9
REMARK    2  A    between atoms: C_14  and  O_15
REMARK    3  A    between atoms: O_15  and  C_16
REMARK    4  A    between atoms: C_16  and  C_17
REMARK                            x       y       z     vdW  Elec       q    Type
REMARK                         _______ _______ _______ _____ _____    ______ ____
ROOT
ATOM      1  C   UNL     1       2.361   7.950  18.623  0.00  0.00    +0.000 C 
ATOM      2  O   UNL     1       3.040   8.347  17.671  0.00  0.00    +0.000 OA
ATOM      3  N   UNL     1       1.356   8.738  19.180  0.00  0.00    +0.000 N 
ATOM      4  C   UNL     1       0.865   9.928  18.487  0.00  0.00    +0.000 C 
ATOM      5  C   UNL     1       1.136  11.196  19.296  0.00  0.00    +0.000 C 
ATOM      6  C   UNL     1       0.669  11.051  20.755  0.00  0.00    +0.000 C 
ATOM      7  C   UNL     1       1.285   9.780  21.359  0.00  0.00    +0.000 C 
ATOM      8  C   UNL     1       0.861   8.568  20.538  0.00  0.00    +0.000 C 
ENDROOT
BRANCH   1  16
ATOM      9  O   UNL     1       3.578   1.149  18.401  0.00  0.00    +0.000 OA
ATOM     10  C   UNL     1       3.284   2.214  18.914  0.00  0.00    +0.000 C 
ATOM     11  N   UNL     1       3.880   3.416  18.656  0.00  0.00    +0.000 N 
ATOM     12  C   UNL     1       3.104   4.503  19.206  0.00  0.00    +0.000 C 
ATOM     13  C   UNL     1       2.259   3.764  20.231  0.00  0.00    +0.000 C 
ATOM     14  O   UNL     1       2.268   2.391  19.813  0.00  0.00    +0.000 OA
ATOM     15  C   UNL     1       2.337   5.338  18.148  0.00  0.00    +0.000 C 
ATOM     16  C   UNL     1       2.450   6.511  19.167  0.00  0.00    +0.000 C 
ATOM     17  C   UNL     1       3.799   5.837  19.585  0.00  0.00    +0.000 C 
ATOM     18  H   UNL     1       4.547   3.446  17.899  0.00  0.00    +0.000 HD
ENDBRANCH   1  16
BRANCH   6  19
ATOM     19  O   UNL     1      -0.768  11.010  20.761  0.00  0.00    +0.000 OA
BRANCH  19  20
ATOM     20  C   UNL     1      -1.382  12.267  20.448  0.00  0.00    +0.000 C 
BRANCH  20  21
ATOM     21  C   UNL     1      -2.594  12.077  19.566  0.00  0.00    +0.000 A 
ATOM     22  C   UNL     1      -2.446  11.553  18.268  0.00  0.00    +0.000 A 
ATOM     23  C   UNL     1      -3.553  11.398  17.430  0.00  0.00    +0.000 A 
ATOM     24  C   UNL     1      -4.808  11.767  17.885  0.00  0.00    +0.000 A 
ATOM     25  F   UNL     1      -5.868  11.620  17.078  0.00  0.00    +0.000 F 
ATOM     26  C   UNL     1      -4.989  12.308  19.152  0.00  0.00    +0.000 A 
ATOM     27  C   UNL     1      -3.883  12.466  19.988  0.00  0.00    +0.000 A 
ATOM     28 CL   UNL     1      -4.167  13.163  21.545  0.00  0.00    +0.000 Cl
ENDBRANCH  20  21
ENDBRANCH  19  20
ENDBRANCH   6  19
TORSDOF 4
ENDMDL
MODEL 7
REMARK VINA RESULT:      -7.3      1.315      1.579
REMARK  Name = 
REMARK  4 active torsions:
REMARK  status: ('A' for Active; 'I' for Inactive)
REMARK    1  A    between atoms: C_8  and  C_9
REMARK    2  A    between atoms: C_14  and  O_15
REMARK    3  A    between atoms: O_15  and  C_16
REMARK    4  A    between atoms: C_16  and  C_17
REMARK                            x       y       z     vdW  Elec       q    Type
REMARK                         _______ _______ _______ _____ _____    ______ ____
ROOT
ATOM      1  C   UNL     1       2.264   6.650  19.414  0.00  0.00    +0.000 C 
ATOM      2  O   UNL     1       1.825   5.796  20.190  0.00  0.00    +0.000 OA
ATOM      3  N   UNL     1       1.975   8.003  19.583  0.00  0.00    +0.000 N 
ATOM      4  C   UNL     1       1.397   8.497  20.831  0.00  0.00    +0.000 C 
ATOM      5  C   UNL     1       0.011   9.100  20.605  0.00  0.00    +0.000 C 
ATOM      6  C   UNL     1       0.011  10.108  19.442  0.00  0.00    +0.000 C 
ATOM      7  C   UNL     1       0.615   9.442  18.196  0.00  0.00    +0.000 C 
ATOM      8  C   UNL     1       2.034   8.978  18.503  0.00  0.00    +0.000 C 
ENDROOT
BRANCH   1  16
ATOM      9  O   UNL     1       8.119   4.153  16.720  0.00  0.00    +0.000 OA
ATOM     10  C   UNL     1       7.020   4.677  16.708  0.00  0.00    +0.000 C 
ATOM     11  N   UNL     1       5.949   4.304  17.470  0.00  0.00    +0.000 N 
ATOM     12  C   UNL     1       4.910   5.307  17.424  0.00  0.00    +0.000 C 
ATOM     13  C   UNL     1       5.296   6.062  16.162  0.00  0.00    +0.000 C 
ATOM     14  O   UNL     1       6.684   5.765  15.950  0.00  0.00    +0.000 OA
ATOM     15  C   UNL     1       4.776   6.147  18.721  0.00  0.00    +0.000 C 
ATOM     16  C   UNL     1       3.285   6.327  18.307  0.00  0.00    +0.000 C 
ATOM     17  C   UNL     1       3.433   4.905  17.670  0.00  0.00    +0.000 C 
ATOM     18  H   UNL     1       6.111   3.607  18.182  0.00  0.00    +0.000 HD
ENDBRANCH   1  16
BRANCH   6  19
ATOM     19  O   UNL     1       0.761  11.263  19.854  0.00  0.00    +0.000 OA
BRANCH  19  20
ATOM     20  C   UNL     1       0.044  12.496  19.714  0.00  0.00    +0.000 C 
BRANCH  20  21
ATOM     21  C   UNL     1      -0.354  13.051  21.062  0.00  0.00    +0.000 A 
ATOM     22  C   UNL     1      -1.279  12.359  21.865  0.00  0.00    +0.000 A 
ATOM     23  C   UNL     1      -1.678  12.874  23.101  0.00  0.00    +0.000 A 
ATOM     24  C   UNL     1      -1.156  14.081  23.535  0.00  0.00    +0.000 A 
ATOM     25  F   UNL     1      -1.542  14.574  24.720  0.00  0.00    +0.000 F 
ATOM     26  C   UNL     1      -0.257  14.803  22.760  0.00  0.00    +0.000 A 
ATOM     27  C   UNL     1       0.139  14.290  21.524  0.00  0.00    +0.000 A 
ATOM     28 CL   UNL     1       1.244  15.243  20.595  0.00  0.00    +0.000 Cl
ENDBRANCH  20  21
ENDBRANCH  19  20
ENDBRANCH   6  19
TORSDOF 4
ENDMDL
MODEL 8
REMARK VINA RESULT:      -7.3      2.947      3.837
REMARK  Name = 
REMARK  4 active torsions:
REMARK  status: ('A' for Active; 'I' for Inactive)
REMARK    1  A    between atoms: C_8  and  C_9
REMARK    2  A    between atoms: C_14  and  O_15
REMARK    3  A    between atoms: O_15  and  C_16
REMARK    4  A    between atoms: C_16  and  C_17
REMARK                            x       y       z     vdW  Elec       q    Type
REMARK                         _______ _______ _______ _____ _____    ______ ____
ROOT
ATOM      1  C   UNL     1       2.585   7.826  18.469  0.00  0.00    +0.000 C 
ATOM      2  O   UNL     1       3.401   8.211  17.626  0.00  0.00    +0.000 OA
ATOM      3  N   UNL     1       1.504   8.617  18.850  0.00  0.00    +0.000 N 
ATOM      4  C   UNL     1       1.121   9.792  18.069  0.00  0.00    +0.000 C 
ATOM      5  C   UNL     1       1.260  11.076  18.887  0.00  0.00    +0.000 C 
ATOM      6  C   UNL     1       0.574  10.953  20.259  0.00  0.00    +0.000 C 
ATOM      7  C   UNL     1       1.094   9.697  20.973  0.00  0.00    +0.000 C 
ATOM      8  C   UNL     1       0.805   8.467  20.119  0.00  0.00    +0.000 C 
ENDROOT
BRANCH   1  16
ATOM      9  O   UNL     1       3.660   0.998  18.482  0.00  0.00    +0.000 OA
ATOM     10  C   UNL     1       3.348   2.079  18.948  0.00  0.00    +0.000 C 
ATOM     11  N   UNL     1       3.991   3.263  18.720  0.00  0.00    +0.000 N 
ATOM     12  C   UNL     1       3.196   4.377  19.179  0.00  0.00    +0.000 C 
ATOM     13  C   UNL     1       2.249   3.678  20.142  0.00  0.00    +0.000 C 
ATOM     14  O   UNL     1       2.262   2.297  19.753  0.00  0.00    +0.000 OA
ATOM     15  C   UNL     1       2.542   5.206  18.043  0.00  0.00    +0.000 C 
ATOM     16  C   UNL     1       2.594   6.397  19.046  0.00  0.00    +0.000 C 
ATOM     17  C   UNL     1       3.886   5.703  19.592  0.00  0.00    +0.000 C 
ATOM     18  H   UNL     1       4.721   3.262  18.022  0.00  0.00    +0.000 HD
ENDBRANCH   1  16
BRANCH   6  19
ATOM     19  O   UNL     1      -0.846  10.903  20.044  0.00  0.00    +0.000 OA
BRANCH  19  20
ATOM     20  C   UNL     1      -1.358  12.022  19.308  0.00  0.00    +0.000 C 
BRANCH  20  21
ATOM     21  C   UNL     1      -2.816  11.826  18.964  0.00  0.00    +0.000 A 
ATOM     22  C   UNL     1      -3.814  12.415  19.761  0.00  0.00    +0.000 A 
ATOM     23  C   UNL     1      -5.167  12.220  19.473  0.00  0.00    +0.000 A 
ATOM     24  C   UNL     1      -5.525  11.435  18.389  0.00  0.00    +0.000 A 
ATOM     25  F   UNL     1      -6.824  11.247  18.116  0.00  0.00    +0.000 F 
ATOM     26  C   UNL     1      -4.567  10.820  17.592  0.00  0.00    +0.000 A 
ATOM     27  C   UNL     1      -3.217  11.013  17.883  0.00  0.00    +0.000 A 
ATOM     28 CL   UNL     1      -2.071  10.206  16.868  0.00  0.00    +0.000 Cl
ENDBRANCH  20  21
ENDBRANCH  19  20
ENDBRANCH   6  19
TORSDOF 4
ENDMDL
MODEL 9
REMARK VINA RESULT:      -7.2      2.495      3.239
REMARK  Name = 
REMARK  4 active torsions:
REMARK  status: ('A' for Active; 'I' for Inactive)
REMARK    1  A    between atoms: C_8  and  C_9
REMARK    2  A    between atoms: C_14  and  O_15
REMARK    3  A    between atoms: O_15  and  C_16
REMARK    4  A    between atoms: C_16  and  C_17
REMARK                            x       y       z     vdW  Elec       q    Type
REMARK                         _______ _______ _______ _____ _____    ______ ____
ROOT
ATOM      1  C   UNL     1       2.280   7.860  18.895  0.00  0.00    +0.000 C 
ATOM      2  O   UNL     1       2.861   8.341  17.917  0.00  0.00    +0.000 OA
ATOM      3  N   UNL     1       1.304   8.576  19.585  0.00  0.00    +0.000 N 
ATOM      4  C   UNL     1       0.719   9.789  19.016  0.00  0.00    +0.000 C 
ATOM      5  C   UNL     1       1.021  11.013  19.881  0.00  0.00    +0.000 C 
ATOM      6  C   UNL     1       0.687  10.760  21.361  0.00  0.00    +0.000 C 
ATOM      7  C   UNL     1       1.391   9.477  21.826  0.00  0.00    +0.000 C 
ATOM      8  C   UNL     1       0.934   8.304  20.967  0.00  0.00    +0.000 C 
ENDROOT
BRANCH   1  16
ATOM      9  O   UNL     1       3.663   1.132  18.123  0.00  0.00    +0.000 OA
ATOM     10  C   UNL     1       3.387   2.152  18.729  0.00  0.00    +0.000 C 
ATOM     11  N   UNL     1       3.923   3.388  18.498  0.00  0.00    +0.000 N 
ATOM     12  C   UNL     1       3.170   4.412  19.183  0.00  0.00    +0.000 C 
ATOM     13  C   UNL     1       2.443   3.582  20.230  0.00  0.00    +0.000 C 
ATOM     14  O   UNL     1       2.453   2.239  19.724  0.00  0.00    +0.000 OA
ATOM     15  C   UNL     1       2.287   5.284  18.255  0.00  0.00    +0.000 C 
ATOM     16  C   UNL     1       2.458   6.395  19.335  0.00  0.00    +0.000 C 
ATOM     17  C   UNL     1       3.858   5.742  19.585  0.00  0.00    +0.000 C 
ATOM     18  H   UNL     1       4.517   3.487  17.687  0.00  0.00    +0.000 HD
ENDBRANCH   1  16
BRANCH   6  19
ATOM     19  O   UNL     1      -0.742  10.668  21.486  0.00  0.00    +0.000 OA
BRANCH  19  20
ATOM     20  C   UNL     1      -1.433  11.865  21.105  0.00  0.00    +0.000 C 
BRANCH  20  21
ATOM     21  C   UNL     1      -1.883  12.644  22.319  0.00  0.00    +0.000 A 
ATOM     22  C   UNL     1      -3.106  12.334  22.942  0.00  0.00    +0.000 A 
ATOM     23  C   UNL     1      -3.550  13.064  24.047  0.00  0.00    +0.000 A 
ATOM     24  C   UNL     1      -2.774  14.105  24.530  0.00  0.00    +0.000 A 
ATOM     25  F   UNL     1      -3.204  14.806  25.590  0.00  0.00    +0.000 F 
ATOM     26  C   UNL     1      -1.572  14.454  23.928  0.00  0.00    +0.000 A 
ATOM     27  C   UNL     1      -1.131  13.727  22.822  0.00  0.00    +0.000 A 
ATOM     28 CL   UNL     1       0.362  14.220  22.101  0.00  0.00    +0.000 Cl
ENDBRANCH  20  21
ENDBRANCH  19  20
ENDBRANCH   6  19
TORSDOF 4
ENDMDL
