MODEL 1
REMARK VINA RESULT:      -7.9      0.000      0.000
REMARK  Name = 
REMARK  7 active torsions:
REMARK  status: ('A' for Active; 'I' for Inactive)
REMARK    1  A    between atoms: C_6  and  N_7
REMARK    2  A    between atoms: N_10  and  C_11
REMARK    3  A    between atoms: C_11  and  C_12
REMARK    4  A    between atoms: C_12  and  C_13
REMARK    5  A    between atoms: C_13  and  C_14
REMARK    6  A    between atoms: C_14  and  N_15
REMARK    7  A    between atoms: C_19  and  C_20
REMARK                            x       y       z     vdW  Elec       q    Type
REMARK                         _______ _______ _______ _____ _____    ______ ____
ROOT
ATOM      1  C   UNL     1       8.028   7.729  17.858  0.00  0.00    +0.000 C 
ENDROOT
BRANCH   1   2
ATOM      2  C   UNL     1       7.373   7.100  16.620  0.00  0.00    +0.000 C 
BRANCH   2   6
ATOM      3  N   UNL     1       4.931   4.678  17.691  0.00  0.00    +0.000 N 
ATOM      4  C   UNL     1       5.989   5.156  18.598  0.00  0.00    +0.000 C 
ATOM      5  C   UNL     1       7.379   5.026  17.930  0.00  0.00    +0.000 C 
ATOM      6  N   UNL     1       7.489   5.632  16.581  0.00  0.00    +0.000 NA
ATOM      7  C   UNL     1       6.418   5.039  15.740  0.00  0.00    +0.000 C 
ATOM      8  C   UNL     1       4.994   5.211  16.314  0.00  0.00    +0.000 C 
BRANCH   3  14
ATOM      9 CL   UNL     1       0.492   3.884  20.421  0.00  0.00    +0.000 Cl
ATOM     10  C   UNL     1       1.789   3.435  19.361  0.00  0.00    +0.000 A 
ATOM     11  C   UNL     1       1.796   2.113  18.918  0.00  0.00    +0.000 A 
ATOM     12  C   UNL     1       2.809   1.673  18.084  0.00  0.00    +0.000 A 
ATOM     13  C   UNL     1       3.823   2.554  17.707  0.00  0.00    +0.000 A 
ATOM     14  C   UNL     1       3.856   3.909  18.115  0.00  0.00    +0.000 A 
ATOM     15  C   UNL     1       2.794   4.341  18.955  0.00  0.00    +0.000 A 
ATOM     16 CL   UNL     1       2.627   6.010  19.432  0.00  0.00    +0.000 Cl
ENDBRANCH   3  14
ENDBRANCH   2   6
ENDBRANCH   1   2
BRANCH   1  17
ATOM     17  C   UNL     1       8.028   9.262  17.855  0.00  0.00    +0.000 C 
BRANCH  17  18
ATOM     18  C   UNL     1       9.122   9.792  18.769  0.00  0.00    +0.000 C 
BRANCH  18  19
ATOM     19  N   UNL     1       9.846  10.895  18.143  0.00  0.00    +0.000 N 
ATOM     20  C   UNL     1       9.961  11.983  19.036  0.00  0.00    +0.000 A 
ATOM     21  C   UNL     1      10.607  13.134  18.608  0.00  0.00    +0.000 A 
ATOM     22  C   UNL     1      10.749  14.204  19.494  0.00  0.00    +0.000 A 
ATOM     23  C   UNL     1      10.234  14.134  20.797  0.00  0.00    +0.000 A 
ATOM     24  C   UNL     1       9.601  12.933  21.115  0.00  0.00    +0.000 A 
ATOM     25  N   UNL     1       9.472  11.880  20.283  0.00  0.00    +0.000 NA
ATOM     26  H   UNL     1       9.371  11.223  17.305  0.00  0.00    +0.000 HD
BRANCH  23  27
ATOM     27  C   UNL     1      10.327  15.240  21.764  0.00  0.00    +0.000 A 
ATOM     28  C   UNL     1       9.447  15.333  22.858  0.00  0.00    +0.000 A 
ATOM     29  C   UNL     1       9.555  16.368  23.793  0.00  0.00    +0.000 A 
ATOM     30  C   UNL     1      10.551  17.327  23.660  0.00  0.00    +0.000 A 
ATOM     31  C   UNL     1      11.436  17.262  22.589  0.00  0.00    +0.000 A 
ATOM     32  C   UNL     1      11.318  16.235  21.650  0.00  0.00    +0.000 A 
ENDBRANCH  23  27
ENDBRANCH  18  19
ENDBRANCH  17  18
ENDBRANCH   1  17
TORSDOF 7
ENDMDL
MODEL 2
REMARK VINA RESULT:      -7.6      2.361      3.170
REMARK  Name = 
REMARK  7 active torsions:
REMARK  status: ('A' for Active; 'I' for Inactive)
REMARK    1  A    between atoms: C_6  and  N_7
REMARK    2  A    between atoms: N_10  and  C_11
REMARK    3  A    between atoms: C_11  and  C_12
REMARK    4  A    between atoms: C_12  and  C_13
REMARK    5  A    between atoms: C_13  and  C_14
REMARK    6  A    between atoms: C_14  and  N_15
REMARK    7  A    between atoms: C_19  and  C_20
REMARK                            x       y       z     vdW  Elec       q    Type
REMARK                         _______ _______ _______ _____ _____    ______ ____
ROOT
ATOM      1  C   UNL     1       8.208   8.366  18.198  0.00  0.00    +0.000 C 
ENDROOT
BRANCH   1   2
ATOM      2  C   UNL     1       6.963   8.116  17.335  0.00  0.00    +0.000 C 
BRANCH   2   6
ATOM      3  N   UNL     1       4.418   5.841  18.485  0.00  0.00    +0.000 N 
ATOM      4  C   UNL     1       5.726   5.935  19.157  0.00  0.00    +0.000 C 
ATOM      5  C   UNL     1       6.877   5.797  18.130  0.00  0.00    +0.000 C 
ATOM      6  N   UNL     1       6.787   6.703  16.960  0.00  0.00    +0.000 NA
ATOM      7  C   UNL     1       5.461   6.484  16.330  0.00  0.00    +0.000 C 
ATOM      8  C   UNL     1       4.265   6.689  17.285  0.00  0.00    +0.000 C 
BRANCH   3  14
ATOM      9 CL   UNL     1       1.159   1.704  18.715  0.00  0.00    +0.000 Cl
ATOM     10  C   UNL     1       1.763   3.259  19.188  0.00  0.00    +0.000 A 
ATOM     11  C   UNL     1       1.048   3.924  20.184  0.00  0.00    +0.000 A 
ATOM     12  C   UNL     1       1.457   5.178  20.602  0.00  0.00    +0.000 A 
ATOM     13  C   UNL     1       2.573   5.771  20.012  0.00  0.00    +0.000 A 
ATOM     14  C   UNL     1       3.343   5.136  19.009  0.00  0.00    +0.000 A 
ATOM     15  C   UNL     1       2.914   3.841  18.611  0.00  0.00    +0.000 A 
ATOM     16 CL   UNL     1       3.834   2.879  17.484  0.00  0.00    +0.000 Cl
ENDBRANCH   3  14
ENDBRANCH   2   6
ENDBRANCH   1   2
BRANCH   1  17
ATOM     17  C   UNL     1       8.648   9.833  18.251  0.00  0.00    +0.000 C 
BRANCH  17  18
ATOM     18  C   UNL     1       9.562  10.068  19.444  0.00  0.00    +0.000 C 
BRANCH  18  19
ATOM     19  N   UNL     1       9.849  11.489  19.619  0.00  0.00    +0.000 N 
ATOM     20  C   UNL     1       9.309  11.957  20.838  0.00  0.00    +0.000 A 
ATOM     21  C   UNL     1       9.467  13.294  21.170  0.00  0.00    +0.000 A 
ATOM     22  C   UNL     1       8.960  13.760  22.385  0.00  0.00    +0.000 A 
ATOM     23  C   UNL     1       8.282  12.897  23.259  0.00  0.00    +0.000 A 
ATOM     24  C   UNL     1       8.177  11.577  22.821  0.00  0.00    +0.000 A 
ATOM     25  N   UNL     1       8.679  11.103  21.662  0.00  0.00    +0.000 NA
ATOM     26  H   UNL     1       9.453  12.044  18.864  0.00  0.00    +0.000 HD
BRANCH  23  27
ATOM     27  C   UNL     1       7.700  13.336  24.538  0.00  0.00    +0.000 A 
ATOM     28  C   UNL     1       8.501  13.533  25.679  0.00  0.00    +0.000 A 
ATOM     29  C   UNL     1       7.951  13.979  26.886  0.00  0.00    +0.000 A 
ATOM     30  C   UNL     1       6.591  14.247  26.976  0.00  0.00    +0.000 A 
ATOM     31  C   UNL     1       5.774  14.062  25.865  0.00  0.00    +0.000 A 
ATOM     32  C   UNL     1       6.323  13.604  24.666  0.00  0.00    +0.000 A 
ENDBRANCH  23  27
ENDBRANCH  18  19
ENDBRANCH  17  18
ENDBRANCH   1  17
TORSDOF 7
ENDMDL
MODEL 3
REMARK VINA RESULT:      -7.6      6.206      7.991
REMARK  Name = 
REMARK  7 active torsions:
REMARK  status: ('A' for Active; 'I' for Inactive)
REMARK    1  A    between atoms: C_6  and  N_7
REMARK    2  A    between atoms: N_10  and  C_11
REMARK    3  A    between atoms: C_11  and  C_12
REMARK    4  A    between atoms: C_12  and  C_13
REMARK    5  A    between atoms: C_13  and  C_14
REMARK    6  A    between atoms: C_14  and  N_15
REMARK    7  A    between atoms: C_19  and  C_20
REMARK                            x       y       z     vdW  Elec       q    Type
REMARK                         _______ _______ _______ _____ _____    ______ ____
ROOT
ATOM      1  C   UNL     1       1.134   3.872  20.171  0.00  0.00    +0.000 C 
ENDROOT
BRANCH   1   2
ATOM      2  C   UNL     1       1.546   2.393  20.187  0.00  0.00    +0.000 C 
BRANCH   2   6
ATOM      3  N   UNL     1       4.018   3.672  17.901  0.00  0.00    +0.000 N 
ATOM      4  C   UNL     1       2.610   4.100  17.829  0.00  0.00    +0.000 C 
ATOM      5  C   UNL     1       1.669   2.871  17.785  0.00  0.00    +0.000 C 
ATOM      6  N   UNL     1       1.891   1.869  18.855  0.00  0.00    +0.000 NA
ATOM      7  C   UNL     1       3.319   1.468  18.798  0.00  0.00    +0.000 C 
ATOM      8  C   UNL     1       4.313   2.645  18.923  0.00  0.00    +0.000 C 
BRANCH   3  14
ATOM      9 CL   UNL     1       7.849   7.237  17.262  0.00  0.00    +0.000 Cl
ATOM     10  C   UNL     1       6.834   5.915  16.782  0.00  0.00    +0.000 A 
ATOM     11  C   UNL     1       7.014   5.435  15.486  0.00  0.00    +0.000 A 
ATOM     12  C   UNL     1       6.228   4.393  15.023  0.00  0.00    +0.000 A 
ATOM     13  C   UNL     1       5.252   3.845  15.854  0.00  0.00    +0.000 A 
ATOM     14  C   UNL     1       5.037   4.283  17.183  0.00  0.00    +0.000 A 
ATOM     15  C   UNL     1       5.869   5.340  17.641  0.00  0.00    +0.000 A 
ATOM     16 CL   UNL     1       5.813   5.899  19.291  0.00  0.00    +0.000 Cl
ENDBRANCH   3  14
ENDBRANCH   2   6
ENDBRANCH   1   2
BRANCH   1  17
ATOM     17  C   UNL     1       2.029   4.780  21.023  0.00  0.00    +0.000 C 
BRANCH  17  18
ATOM     18  C   UNL     1       1.657   6.239  20.810  0.00  0.00    +0.000 C 
BRANCH  18  19
ATOM     19  N   UNL     1       2.132   6.724  19.517  0.00  0.00    +0.000 N 
ATOM     20  C   UNL     1       1.844   8.098  19.366  0.00  0.00    +0.000 A 
ATOM     21  C   UNL     1       2.207   8.732  18.187  0.00  0.00    +0.000 A 
ATOM     22  C   UNL     1       1.951  10.096  18.040  0.00  0.00    +0.000 A 
ATOM     23  C   UNL     1       1.318  10.824  19.059  0.00  0.00    +0.000 A 
ATOM     24  C   UNL     1       0.993  10.084  20.196  0.00  0.00    +0.000 A 
ATOM     25  N   UNL     1       1.251   8.772  20.367  0.00  0.00    +0.000 NA
ATOM     26  H   UNL     1       1.694   6.222  18.749  0.00  0.00    +0.000 HD
BRANCH  23  27
ATOM     27  C   UNL     1       0.994  12.256  18.949  0.00  0.00    +0.000 A 
ATOM     28  C   UNL     1       2.004  13.229  18.835  0.00  0.00    +0.000 A 
ATOM     29  C   UNL     1       1.694  14.587  18.701  0.00  0.00    +0.000 A 
ATOM     30  C   UNL     1       0.369  15.000  18.667  0.00  0.00    +0.000 A 
ATOM     31  C   UNL     1      -0.652  14.061  18.776  0.00  0.00    +0.000 A 
ATOM     32  C   UNL     1      -0.340  12.708  18.924  0.00  0.00    +0.000 A 
ENDBRANCH  23  27
ENDBRANCH  18  19
ENDBRANCH  17  18
ENDBRANCH   1  17
TORSDOF 7
ENDMDL
MODEL 4
REMARK VINA RESULT:      -7.6      0.870      1.256
REMARK  Name = 
REMARK  7 active torsions:
REMARK  status: ('A' for Active; 'I' for Inactive)
REMARK    1  A    between atoms: C_6  and  N_7
REMARK    2  A    between atoms: N_10  and  C_11
REMARK    3  A    between atoms: C_11  and  C_12
REMARK    4  A    between atoms: C_12  and  C_13
REMARK    5  A    between atoms: C_13  and  C_14
REMARK    6  A    between atoms: C_14  and  N_15
REMARK    7  A    between atoms: C_19  and  C_20
REMARK                            x       y       z     vdW  Elec       q    Type
REMARK                         _______ _______ _______ _____ _____    ______ ____
ROOT
ATOM      1  C   UNL     1       8.329   8.545  17.448  0.00  0.00    +0.000 C 
ENDROOT
BRANCH   1   2
ATOM      2  C   UNL     1       6.960   7.864  17.587  0.00  0.00    +0.000 C 
BRANCH   2   6
ATOM      3  N   UNL     1       4.802   5.027  18.105  0.00  0.00    +0.000 N 
ATOM      4  C   UNL     1       6.200   5.023  18.567  0.00  0.00    +0.000 C 
ATOM      5  C   UNL     1       7.155   5.425  17.416  0.00  0.00    +0.000 C 
ATOM      6  N   UNL     1       6.804   6.684  16.718  0.00  0.00    +0.000 NA
ATOM      7  C   UNL     1       5.402   6.556  16.248  0.00  0.00    +0.000 C 
ATOM      8  C   UNL     1       4.386   6.238  17.367  0.00  0.00    +0.000 C 
BRANCH   3  14
ATOM      9 CL   UNL     1       1.005   3.014  21.160  0.00  0.00    +0.000 Cl
ATOM     10  C   UNL     1       2.116   3.019  19.828  0.00  0.00    +0.000 A 
ATOM     11  C   UNL     1       2.139   1.871  19.036  0.00  0.00    +0.000 A 
ATOM     12  C   UNL     1       3.012   1.792  17.965  0.00  0.00    +0.000 A 
ATOM     13  C   UNL     1       3.873   2.856  17.698  0.00  0.00    +0.000 A 
ATOM     14  C   UNL     1       3.881   4.050  18.459  0.00  0.00    +0.000 A 
ATOM     15  C   UNL     1       2.962   4.114  19.540  0.00  0.00    +0.000 A 
ATOM     16 CL   UNL     1       2.763   5.566  20.486  0.00  0.00    +0.000 Cl
ENDBRANCH   3  14
ENDBRANCH   2   6
ENDBRANCH   1   2
BRANCH   1  17
ATOM     17  C   UNL     1       8.684   9.480  18.610  0.00  0.00    +0.000 C 
BRANCH  17  18
ATOM     18  C   UNL     1       8.670  10.929  18.146  0.00  0.00    +0.000 C 
BRANCH  18  19
ATOM     19  N   UNL     1      10.024  11.467  18.051  0.00  0.00    +0.000 N 
ATOM     20  C   UNL     1      10.203  12.524  18.971  0.00  0.00    +0.000 A 
ATOM     21  C   UNL     1      11.428  13.173  19.013  0.00  0.00    +0.000 A 
ATOM     22  C   UNL     1      11.623  14.201  19.938  0.00  0.00    +0.000 A 
ATOM     23  C   UNL     1      10.594  14.591  20.808  0.00  0.00    +0.000 A 
ATOM     24  C   UNL     1       9.406  13.874  20.673  0.00  0.00    +0.000 A 
ATOM     25  N   UNL     1       9.204  12.864  19.802  0.00  0.00    +0.000 NA
ATOM     26  H   UNL     1      10.216  11.824  17.118  0.00  0.00    +0.000 HD
BRANCH  23  27
ATOM     27  C   UNL     1      10.731  15.686  21.782  0.00  0.00    +0.000 A 
ATOM     28  C   UNL     1      11.582  16.780  21.540  0.00  0.00    +0.000 A 
ATOM     29  C   UNL     1      11.689  17.835  22.453  0.00  0.00    +0.000 A 
ATOM     30  C   UNL     1      10.940  17.825  23.622  0.00  0.00    +0.000 A 
ATOM     31  C   UNL     1      10.088  16.757  23.889  0.00  0.00    +0.000 A 
ATOM     32  C   UNL     1       9.994  15.699  22.983  0.00  0.00    +0.000 A 
ENDBRANCH  23  27
ENDBRANCH  18  19
ENDBRANCH  17  18
ENDBRANCH   1  17
TORSDOF 7
ENDMDL
MODEL 5
REMARK VINA RESULT:      -7.6      3.034      6.000
REMARK  Name = 
REMARK  7 active torsions:
REMARK  status: ('A' for Active; 'I' for Inactive)
REMARK    1  A    between atoms: C_6  and  N_7
REMARK    2  A    between atoms: N_10  and  C_11
REMARK    3  A    between atoms: C_11  and  C_12
REMARK    4  A    between atoms: C_12  and  C_13
REMARK    5  A    between atoms: C_13  and  C_14
REMARK    6  A    between atoms: C_14  and  N_15
REMARK    7  A    between atoms: C_19  and  C_20
REMARK                            x       y       z     vdW  Elec       q    Type
REMARK                         _______ _______ _______ _____ _____    ______ ____
ROOT
ATOM      1  C   UNL     1       4.691   3.683  17.810  0.00  0.00    +0.000 C 
ENDROOT
BRANCH   1   2
ATOM      2  C   UNL     1       3.404   2.892  18.084  0.00  0.00    +0.000 C 
BRANCH   2   6
ATOM      3  N   UNL     1       2.410   6.276  18.819  0.00  0.00    +0.000 N 
ATOM      4  C   UNL     1       3.679   5.721  19.322  0.00  0.00    +0.000 C 
ATOM      5  C   UNL     1       3.436   4.371  20.041  0.00  0.00    +0.000 C 
ATOM      6  N   UNL     1       2.663   3.374  19.262  0.00  0.00    +0.000 NA
ATOM      7  C   UNL     1       1.388   4.017  18.858  0.00  0.00    +0.000 C 
ATOM      8  C   UNL     1       1.565   5.329  18.062  0.00  0.00    +0.000 C 
BRANCH   3  14
ATOM      9 CL   UNL     1       0.229  10.458  21.175  0.00  0.00    +0.000 Cl
ATOM     10  C   UNL     1       1.087   9.632  19.914  0.00  0.00    +0.000 A 
ATOM     11  C   UNL     1       1.449  10.398  18.806  0.00  0.00    +0.000 A 
ATOM     12  C   UNL     1       2.119   9.806  17.750  0.00  0.00    +0.000 A 
ATOM     13  C   UNL     1       2.413   8.443  17.798  0.00  0.00    +0.000 A 
ATOM     14  C   UNL     1       2.083   7.622  18.903  0.00  0.00    +0.000 A 
ATOM     15  C   UNL     1       1.413   8.258  19.982  0.00  0.00    +0.000 A 
ATOM     16 CL   UNL     1       1.058   7.411  21.464  0.00  0.00    +0.000 Cl
ENDBRANCH   3  14
ENDBRANCH   2   6
ENDBRANCH   1   2
BRANCH   1  17
ATOM     17  C   UNL     1       4.855   4.126  16.352  0.00  0.00    +0.000 C 
BRANCH  17  18
ATOM     18  C   UNL     1       6.123   4.951  16.189  0.00  0.00    +0.000 C 
BRANCH  18  19
ATOM     19  N   UNL     1       6.931   4.925  17.404  0.00  0.00    +0.000 N 
ATOM     20  C   UNL     1       7.407   6.219  17.711  0.00  0.00    +0.000 A 
ATOM     21  C   UNL     1       8.212   6.388  18.829  0.00  0.00    +0.000 A 
ATOM     22  C   UNL     1       8.664   7.668  19.155  0.00  0.00    +0.000 A 
ATOM     23  C   UNL     1       8.329   8.774  18.360  0.00  0.00    +0.000 A 
ATOM     24  C   UNL     1       7.521   8.486  17.261  0.00  0.00    +0.000 A 
ATOM     25  N   UNL     1       7.055   7.262  16.941  0.00  0.00    +0.000 NA
ATOM     26  H   UNL     1       7.734   4.309  17.303  0.00  0.00    +0.000 HD
BRANCH  23  27
ATOM     27  C   UNL     1       8.800  10.141  18.637  0.00  0.00    +0.000 A 
ATOM     28  C   UNL     1       8.653  11.173  17.692  0.00  0.00    +0.000 A 
ATOM     29  C   UNL     1       9.075  12.478  17.967  0.00  0.00    +0.000 A 
ATOM     30  C   UNL     1       9.644  12.783  19.197  0.00  0.00    +0.000 A 
ATOM     31  C   UNL     1       9.801  11.784  20.153  0.00  0.00    +0.000 A 
ATOM     32  C   UNL     1       9.392  10.480  19.870  0.00  0.00    +0.000 A 
ENDBRANCH  23  27
ENDBRANCH  18  19
ENDBRANCH  17  18
ENDBRANCH   1  17
TORSDOF 7
ENDMDL
MODEL 6
REMARK VINA RESULT:      -7.6      2.036      2.738
REMARK  Name = 
REMARK  7 active torsions:
REMARK  status: ('A' for Active; 'I' for Inactive)
REMARK    1  A    between atoms: C_6  and  N_7
REMARK    2  A    between atoms: N_10  and  C_11
REMARK    3  A    between atoms: C_11  and  C_12
REMARK    4  A    between atoms: C_12  and  C_13
REMARK    5  A    between atoms: C_13  and  C_14
REMARK    6  A    between atoms: C_14  and  N_15
REMARK    7  A    between atoms: C_19  and  C_20
REMARK                            x       y       z     vdW  Elec       q    Type
REMARK                         _______ _______ _______ _____ _____    ______ ____
ROOT
ATOM      1  C   UNL     1       7.514   8.715  17.631  0.00  0.00    +0.000 C 
ENDROOT
BRANCH   1   2
ATOM      2  C   UNL     1       7.931   7.340  18.172  0.00  0.00    +0.000 C 
BRANCH   2   6
ATOM      3  N   UNL     1       4.878   5.542  18.822  0.00  0.00    +0.000 N 
ATOM      4  C   UNL     1       6.171   5.080  19.356  0.00  0.00    +0.000 C 
ATOM      5  C   UNL     1       7.226   4.991  18.226  0.00  0.00    +0.000 C 
ATOM      6  N   UNL     1       7.371   6.215  17.403  0.00  0.00    +0.000 NA
ATOM      7  C   UNL     1       6.027   6.555  16.872  0.00  0.00    +0.000 C 
ATOM      8  C   UNL     1       4.945   6.741  17.960  0.00  0.00    +0.000 C 
BRANCH   3  14
ATOM      9 CL   UNL     1       0.966   2.022  18.507  0.00  0.00    +0.000 Cl
ATOM     10  C   UNL     1       1.778   3.421  19.134  0.00  0.00    +0.000 A 
ATOM     11  C   UNL     1       1.099   4.142  20.117  0.00  0.00    +0.000 A 
ATOM     12  C   UNL     1       1.674   5.281  20.654  0.00  0.00    +0.000 A 
ATOM     13  C   UNL     1       2.920   5.705  20.194  0.00  0.00    +0.000 A 
ATOM     14  C   UNL     1       3.659   5.004  19.211  0.00  0.00    +0.000 A 
ATOM     15  C   UNL     1       3.056   3.827  18.690  0.00  0.00    +0.000 A 
ATOM     16 CL   UNL     1       3.897   2.788  17.571  0.00  0.00    +0.000 Cl
ENDBRANCH   3  14
ENDBRANCH   2   6
ENDBRANCH   1   2
BRANCH   1  17
ATOM     17  C   UNL     1       8.617   9.777  17.704  0.00  0.00    +0.000 C 
BRANCH  17  18
ATOM     18  C   UNL     1       9.124   9.914  19.132  0.00  0.00    +0.000 C 
BRANCH  18  19
ATOM     19  N   UNL     1       9.855  11.165  19.316  0.00  0.00    +0.000 N 
ATOM     20  C   UNL     1       9.490  11.777  20.535  0.00  0.00    +0.000 A 
ATOM     21  C   UNL     1      10.071  12.990  20.875  0.00  0.00    +0.000 A 
ATOM     22  C   UNL     1       9.737  13.589  22.091  0.00  0.00    +0.000 A 
ATOM     23  C   UNL     1       8.812  12.988  22.959  0.00  0.00    +0.000 A 
ATOM     24  C   UNL     1       8.288  11.776  22.513  0.00  0.00    +0.000 A 
ATOM     25  N   UNL     1       8.613  11.170  21.354  0.00  0.00    +0.000 NA
ATOM     26  H   UNL     1       9.663  11.821  18.563  0.00  0.00    +0.000 HD
BRANCH  23  27
ATOM     27  C   UNL     1       8.398  13.587  24.239  0.00  0.00    +0.000 A 
ATOM     28  C   UNL     1       7.642  12.860  25.178  0.00  0.00    +0.000 A 
ATOM     29  C   UNL     1       7.274  13.420  26.406  0.00  0.00    +0.000 A 
ATOM     30  C   UNL     1       7.663  14.714  26.727  0.00  0.00    +0.000 A 
ATOM     31  C   UNL     1       8.412  15.457  25.820  0.00  0.00    +0.000 A 
ATOM     32  C   UNL     1       8.765  14.901  24.589  0.00  0.00    +0.000 A 
ENDBRANCH  23  27
ENDBRANCH  18  19
ENDBRANCH  17  18
ENDBRANCH   1  17
TORSDOF 7
ENDMDL
MODEL 7
REMARK VINA RESULT:      -7.5      2.792     11.504
REMARK  Name = 
REMARK  7 active torsions:
REMARK  status: ('A' for Active; 'I' for Inactive)
REMARK    1  A    between atoms: C_6  and  N_7
REMARK    2  A    between atoms: N_10  and  C_11
REMARK    3  A    between atoms: C_11  and  C_12
REMARK    4  A    between atoms: C_12  and  C_13
REMARK    5  A    between atoms: C_13  and  C_14
REMARK    6  A    between atoms: C_14  and  N_15
REMARK    7  A    between atoms: C_19  and  C_20
REMARK                            x       y       z     vdW  Elec       q    Type
REMARK                         _______ _______ _______ _____ _____    ______ ____
ROOT
ATOM      1  C   UNL     1       9.328  10.264  18.125  0.00  0.00    +0.000 C 
ENDROOT
BRANCH   1   2
ATOM      2  C   UNL     1       9.210  11.794  18.184  0.00  0.00    +0.000 C 
BRANCH   2   6
ATOM      3  N   UNL     1       8.972  13.442  21.378  0.00  0.00    +0.000 N 
ATOM      4  C   UNL     1       8.850  14.191  20.115  0.00  0.00    +0.000 C 
ATOM      5  C   UNL     1      10.042  13.876  19.178  0.00  0.00    +0.000 C 
ATOM      6  N   UNL     1      10.296  12.434  18.946  0.00  0.00    +0.000 NA
ATOM      7  C   UNL     1      10.458  11.792  20.275  0.00  0.00    +0.000 C 
ATOM      8  C   UNL     1       9.262  12.000  21.229  0.00  0.00    +0.000 C 
BRANCH   3  14
ATOM      9 CL   UNL     1       6.002  14.052  25.691  0.00  0.00    +0.000 Cl
ATOM     10  C   UNL     1       7.365  14.357  24.663  0.00  0.00    +0.000 A 
ATOM     11  C   UNL     1       8.268  15.324  25.103  0.00  0.00    +0.000 A 
ATOM     12  C   UNL     1       9.372  15.637  24.329  0.00  0.00    +0.000 A 
ATOM     13  C   UNL     1       9.562  14.992  23.107  0.00  0.00    +0.000 A 
ATOM     14  C   UNL     1       8.686  13.993  22.620  0.00  0.00    +0.000 A 
ATOM     15  C   UNL     1       7.571  13.676  23.442  0.00  0.00    +0.000 A 
ATOM     16 CL   UNL     1       6.478  12.378  23.040  0.00  0.00    +0.000 Cl
ENDBRANCH   3  14
ENDBRANCH   2   6
ENDBRANCH   1   2
BRANCH   1  17
ATOM     17  C   UNL     1       7.994   9.527  18.284  0.00  0.00    +0.000 C 
BRANCH  17  18
ATOM     18  C   UNL     1       8.188   8.032  18.081  0.00  0.00    +0.000 C 
BRANCH  18  19
ATOM     19  N   UNL     1       7.548   7.576  16.851  0.00  0.00    +0.000 N 
ATOM     20  C   UNL     1       6.506   6.668  17.141  0.00  0.00    +0.000 A 
ATOM     21  C   UNL     1       5.791   6.113  16.090  0.00  0.00    +0.000 A 
ATOM     22  C   UNL     1       4.741   5.235  16.368  0.00  0.00    +0.000 A 
ATOM     23  C   UNL     1       4.417   4.897  17.691  0.00  0.00    +0.000 A 
ATOM     24  C   UNL     1       5.205   5.509  18.665  0.00  0.00    +0.000 A 
ATOM     25  N   UNL     1       6.208   6.377  18.418  0.00  0.00    +0.000 NA
ATOM     26  H   UNL     1       8.212   7.111  16.237  0.00  0.00    +0.000 HD
BRANCH  23  27
ATOM     27  C   UNL     1       3.343   3.955  18.044  0.00  0.00    +0.000 A 
ATOM     28  C   UNL     1       1.997   4.363  18.096  0.00  0.00    +0.000 A 
ATOM     29  C   UNL     1       0.974   3.460  18.403  0.00  0.00    +0.000 A 
ATOM     30  C   UNL     1       1.272   2.127  18.655  0.00  0.00    +0.000 A 
ATOM     31  C   UNL     1       2.593   1.693  18.611  0.00  0.00    +0.000 A 
ATOM     32  C   UNL     1       3.614   2.599  18.318  0.00  0.00    +0.000 A 
ENDBRANCH  23  27
ENDBRANCH  18  19
ENDBRANCH  17  18
ENDBRANCH   1  17
TORSDOF 7
ENDMDL
MODEL 8
REMARK VINA RESULT:      -7.4      1.969      2.696
REMARK  Name = 
REMARK  7 active torsions:
REMARK  status: ('A' for Active; 'I' for Inactive)
REMARK    1  A    between atoms: C_6  and  N_7
REMARK    2  A    between atoms: N_10  and  C_11
REMARK    3  A    between atoms: C_11  and  C_12
REMARK    4  A    between atoms: C_12  and  C_13
REMARK    5  A    between atoms: C_13  and  C_14
REMARK    6  A    between atoms: C_14  and  N_15
REMARK    7  A    between atoms: C_19  and  C_20
REMARK                            x       y       z     vdW  Elec       q    Type
REMARK                         _______ _______ _______ _____ _____    ______ ____
ROOT
ATOM      1  C   UNL     1       7.182   7.688  17.549  0.00  0.00    +0.000 C 
ENDROOT
BRANCH   1   2
ATOM      2  C   UNL     1       7.363   6.515  16.575  0.00  0.00    +0.000 C 
BRANCH   2   6
ATOM      3  N   UNL     1       4.585   5.051  18.341  0.00  0.00    +0.000 N 
ATOM      4  C   UNL     1       5.620   5.828  19.045  0.00  0.00    +0.000 C 
ATOM      5  C   UNL     1       7.032   5.306  18.684  0.00  0.00    +0.000 C 
ATOM      6  N   UNL     1       7.311   5.197  17.232  0.00  0.00    +0.000 NA
ATOM      7  C   UNL     1       6.245   4.352  16.637  0.00  0.00    +0.000 C 
ATOM      8  C   UNL     1       4.812   4.868  16.892  0.00  0.00    +0.000 C 
BRANCH   3  14
ATOM      9 CL   UNL     1       0.476   1.802  18.934  0.00  0.00    +0.000 Cl
ATOM     10  C   UNL     1       1.440   3.200  19.286  0.00  0.00    +0.000 A 
ATOM     11  C   UNL     1       0.939   4.070  20.254  0.00  0.00    +0.000 A 
ATOM     12  C   UNL     1       1.642   5.217  20.577  0.00  0.00    +0.000 A 
ATOM     13  C   UNL     1       2.839   5.500  19.919  0.00  0.00    +0.000 A 
ATOM     14  C   UNL     1       3.400   4.646  18.940  0.00  0.00    +0.000 A 
ATOM     15  C   UNL     1       2.669   3.465  18.640  0.00  0.00    +0.000 A 
ATOM     16 CL   UNL     1       3.295   2.253  17.554  0.00  0.00    +0.000 Cl
ENDBRANCH   3  14
ENDBRANCH   2   6
ENDBRANCH   1   2
BRANCH   1  17
ATOM     17  C   UNL     1       8.459   8.077  18.302  0.00  0.00    +0.000 C 
BRANCH  17  18
ATOM     18  C   UNL     1       8.543   9.589  18.453  0.00  0.00    +0.000 C 
BRANCH  18  19
ATOM     19  N   UNL     1       9.430   9.962  19.551  0.00  0.00    +0.000 N 
ATOM     20  C   UNL     1       9.905  11.281  19.378  0.00  0.00    +0.000 A 
ATOM     21  C   UNL     1      10.779  11.806  20.319  0.00  0.00    +0.000 A 
ATOM     22  C   UNL     1      11.232  13.118  20.170  0.00  0.00    +0.000 A 
ATOM     23  C   UNL     1      10.828  13.900  19.076  0.00  0.00    +0.000 A 
ATOM     24  C   UNL     1       9.955  13.268  18.192  0.00  0.00    +0.000 A 
ATOM     25  N   UNL     1       9.488  12.010  18.329  0.00  0.00    +0.000 NA
ATOM     26  H   UNL     1      10.234   9.341  19.607  0.00  0.00    +0.000 HD
BRANCH  23  27
ATOM     27  C   UNL     1      11.297  15.277  18.851  0.00  0.00    +0.000 A 
ATOM     28  C   UNL     1      11.558  16.148  19.925  0.00  0.00    +0.000 A 
ATOM     29  C   UNL     1      12.031  17.447  19.710  0.00  0.00    +0.000 A 
ATOM     30  C   UNL     1      12.263  17.900  18.418  0.00  0.00    +0.000 A 
ATOM     31  C   UNL     1      12.015  17.062  17.335  0.00  0.00    +0.000 A 
ATOM     32  C   UNL     1      11.530  15.771  17.552  0.00  0.00    +0.000 A 
ENDBRANCH  23  27
ENDBRANCH  18  19
ENDBRANCH  17  18
ENDBRANCH   1  17
TORSDOF 7
ENDMDL
MODEL 9
REMARK VINA RESULT:      -7.3      1.267      1.513
REMARK  Name = 
REMARK  7 active torsions:
REMARK  status: ('A' for Active; 'I' for Inactive)
REMARK    1  A    between atoms: C_6  and  N_7
REMARK    2  A    between atoms: N_10  and  C_11
REMARK    3  A    between atoms: C_11  and  C_12
REMARK    4  A    between atoms: C_12  and  C_13
REMARK    5  A    between atoms: C_13  and  C_14
REMARK    6  A    between atoms: C_14  and  N_15
REMARK    7  A    between atoms: C_19  and  C_20
REMARK                            x       y       z     vdW  Elec       q    Type
REMARK                         _______ _______ _______ _____ _____    ______ ____
ROOT
ATOM      1  C   UNL     1       8.018   7.899  17.964  0.00  0.00    +0.000 C 
ENDROOT
BRANCH   1   2
ATOM      2  C   UNL     1       7.336   7.166  16.800  0.00  0.00    +0.000 C 
BRANCH   2   6
ATOM      3  N   UNL     1       5.068   4.609  17.935  0.00  0.00    +0.000 N 
ATOM      4  C   UNL     1       6.076   5.196  18.834  0.00  0.00    +0.000 C 
ATOM      5  C   UNL     1       7.480   5.146  18.184  0.00  0.00    +0.000 C 
ATOM      6  N   UNL     1       7.560   5.710  16.815  0.00  0.00    +0.000 NA
ATOM      7  C   UNL     1       6.547   5.011  15.987  0.00  0.00    +0.000 C 
ATOM      8  C   UNL     1       5.107   5.096  16.541  0.00  0.00    +0.000 C 
BRANCH   3  14
ATOM      9 CL   UNL     1       0.848   3.489  20.891  0.00  0.00    +0.000 Cl
ATOM     10  C   UNL     1       2.084   3.153  19.721  0.00  0.00    +0.000 A 
ATOM     11  C   UNL     1       2.102   1.863  19.193  0.00  0.00    +0.000 A 
ATOM     12  C   UNL     1       3.070   1.513  18.267  0.00  0.00    +0.000 A 
ATOM     13  C   UNL     1       4.028   2.451  17.884  0.00  0.00    +0.000 A 
ATOM     14  C   UNL     1       4.048   3.777  18.377  0.00  0.00    +0.000 A 
ATOM     15  C   UNL     1       3.032   4.118  19.311  0.00  0.00    +0.000 A 
ATOM     16 CL   UNL     1       2.846   5.746  19.907  0.00  0.00    +0.000 Cl
ENDBRANCH   3  14
ENDBRANCH   2   6
ENDBRANCH   1   2
BRANCH   1  17
ATOM     17  C   UNL     1       8.247   9.394  17.714  0.00  0.00    +0.000 C 
BRANCH  17  18
ATOM     18  C   UNL     1       8.439  10.127  19.033  0.00  0.00    +0.000 C 
BRANCH  18  19
ATOM     19  N   UNL     1       9.854  10.360  19.308  0.00  0.00    +0.000 N 
ATOM     20  C   UNL     1      10.090  11.728  19.566  0.00  0.00    +0.000 A 
ATOM     21  C   UNL     1      11.387  12.144  19.833  0.00  0.00    +0.000 A 
ATOM     22  C   UNL     1      11.626  13.490  20.116  0.00  0.00    +0.000 A 
ATOM     23  C   UNL     1      10.577  14.423  20.116  0.00  0.00    +0.000 A 
ATOM     24  C   UNL     1       9.319  13.894  19.829  0.00  0.00    +0.000 A 
ATOM     25  N   UNL     1       9.063  12.595  19.576  0.00  0.00    +0.000 NA
ATOM     26  H   UNL     1      10.436  10.081  18.522  0.00  0.00    +0.000 HD
BRANCH  23  27
ATOM     27  C   UNL     1      10.773  15.859  20.377  0.00  0.00    +0.000 A 
ATOM     28  C   UNL     1      12.059  16.429  20.414  0.00  0.00    +0.000 A 
ATOM     29  C   UNL     1      12.242  17.798  20.632  0.00  0.00    +0.000 A 
ATOM     30  C   UNL     1      11.143  18.630  20.808  0.00  0.00    +0.000 A 
ATOM     31  C   UNL     1       9.859  18.095  20.776  0.00  0.00    +0.000 A 
ATOM     32  C   UNL     1       9.680  16.726  20.571  0.00  0.00    +0.000 A 
ENDBRANCH  23  27
ENDBRANCH  18  19
ENDBRANCH  17  18
ENDBRANCH   1  17
TORSDOF 7
ENDMDL
