MODEL 1
REMARK VINA RESULT:      -6.8      0.000      0.000
REMARK  Name = 
REMARK  14 active torsions:
REMARK  status: ('A' for Active; 'I' for Inactive)
REMARK    1  A    between atoms: C_1  and  C_2
REMARK    2  A    between atoms: C_2  and  O_3
REMARK    3  A    between atoms: O_3  and  C_4
REMARK    4  A    between atoms: C_7  and  C_8
REMARK    5  A    between atoms: C_8  and  C_9
REMARK    6  A    between atoms: C_9  and  C_10
REMARK    7  A    between atoms: C_10  and  C_11
REMARK    8  A    between atoms: C_10  and  C_12
REMARK    9  A    between atoms: C_12  and  C_13
REMARK   10  A    between atoms: C_13  and  N_14
REMARK   11  A    between atoms: N_14  and  C_15
REMARK   12  A    between atoms: C_15  and  C_16
REMARK   13  A    between atoms: C_16  and  C_17
REMARK   14  A    between atoms: C_17  and  C_18
REMARK                            x       y       z     vdW  Elec       q    Type
REMARK                         _______ _______ _______ _____ _____    ______ ____
ROOT
ATOM      1  C   UNL     1       5.079   5.366  18.084  0.00  0.00    +0.000 C 
ENDROOT
BRANCH   1   2
ATOM      2  C   UNL     1       6.509   5.527  17.517  0.00  0.00    +0.000 C 
ATOM      3  C   UNL     1       7.696   4.926  18.351  0.00  0.00    +0.000 C 
ATOM      4  C   UNL     1       7.996   6.332  18.890  0.00  0.00    +0.000 C 
ATOM      5  C   UNL     1       7.227   6.911  17.694  0.00  0.00    +0.000 C 
BRANCH   2   9
ATOM      6  C   UNL     1       6.274   3.960  13.309  0.00  0.00    +0.000 A 
ATOM      7  C   UNL     1       5.342   3.594  14.278  0.00  0.00    +0.000 A 
ATOM      8  C   UNL     1       5.434   4.084  15.575  0.00  0.00    +0.000 A 
ATOM      9  C   UNL     1       6.433   4.984  15.972  0.00  0.00    +0.000 A 
ATOM     10  C   UNL     1       7.370   5.343  14.974  0.00  0.00    +0.000 A 
ATOM     11  C   UNL     1       7.299   4.830  13.668  0.00  0.00    +0.000 A 
BRANCH   6  12
ATOM     12  O   UNL     1       6.259   3.514  12.011  0.00  0.00    +0.000 OA
BRANCH  12  14
ATOM     13  C   UNL     1       4.044   3.205  11.091  0.00  0.00    +0.000 C 
ATOM     14  C   UNL     1       5.244   2.546  11.732  0.00  0.00    +0.000 C 
ENDBRANCH  12  14
ENDBRANCH   6  12
ENDBRANCH   2   9
ENDBRANCH   1   2
BRANCH   1  15
ATOM     15  C   UNL     1       4.166   6.590  18.301  0.00  0.00    +0.000 C 
ATOM     16  C   UNL     1       3.648   7.240  17.013  0.00  0.00    +0.000 C 
BRANCH  15  17
ATOM     17  C   UNL     1       2.899   6.155  19.099  0.00  0.00    +0.000 C 
BRANCH  17  18
ATOM     18  C   UNL     1       3.162   5.041  20.112  0.00  0.00    +0.000 C 
BRANCH  18  19
ATOM     19  N   UNL     1       1.972   4.770  20.920  0.00  0.00    +0.000 NA
ATOM     20  H   UNL     1       1.186   5.304  20.544  0.00  0.00    +0.000 HD
BRANCH  19  21
ATOM     21  C   UNL     1       1.662   3.341  20.838  0.00  0.00    +0.000 C 
BRANCH  21  22
ATOM     22  C   UNL     1       0.851   3.050  19.584  0.00  0.00    +0.000 C 
BRANCH  22  23
ATOM     23  C   UNL     1       1.482   1.893  18.816  0.00  0.00    +0.000 C 
BRANCH  23  24
ATOM     24  C   UNL     1       2.519   2.371  17.828  0.00  0.00    +0.000 C 
ATOM     25  N   UNL     1       3.766   1.857  18.003  0.00  0.00    +0.000 N 
ATOM     26  O   UNL     1       2.278   3.177  16.944  0.00  0.00    +0.000 OA
ATOM     27  H   UNL     1       4.005   1.193  18.726  0.00  0.00    +0.000 HD
ATOM     28  H   UNL     1       4.486   2.158  17.362  0.00  0.00    +0.000 HD
ENDBRANCH  23  24
ENDBRANCH  22  23
ENDBRANCH  21  22
ENDBRANCH  19  21
ENDBRANCH  18  19
ENDBRANCH  17  18
ENDBRANCH  15  17
ENDBRANCH   1  15
TORSDOF 12
ENDMDL
MODEL 2
REMARK VINA RESULT:      -6.8      1.518      1.764
REMARK  Name = 
REMARK  14 active torsions:
REMARK  status: ('A' for Active; 'I' for Inactive)
REMARK    1  A    between atoms: C_1  and  C_2
REMARK    2  A    between atoms: C_2  and  O_3
REMARK    3  A    between atoms: O_3  and  C_4
REMARK    4  A    between atoms: C_7  and  C_8
REMARK    5  A    between atoms: C_8  and  C_9
REMARK    6  A    between atoms: C_9  and  C_10
REMARK    7  A    between atoms: C_10  and  C_11
REMARK    8  A    between atoms: C_10  and  C_12
REMARK    9  A    between atoms: C_12  and  C_13
REMARK   10  A    between atoms: C_13  and  N_14
REMARK   11  A    between atoms: N_14  and  C_15
REMARK   12  A    between atoms: C_15  and  C_16
REMARK   13  A    between atoms: C_16  and  C_17
REMARK   14  A    between atoms: C_17  and  C_18
REMARK                            x       y       z     vdW  Elec       q    Type
REMARK                         _______ _______ _______ _____ _____    ______ ____
ROOT
ATOM      1  C   UNL     1       4.911   6.663  17.022  0.00  0.00    +0.000 C 
ENDROOT
BRANCH   1   2
ATOM      2  C   UNL     1       6.329   6.049  16.944  0.00  0.00    +0.000 C 
ATOM      3  C   UNL     1       6.811   5.170  18.152  0.00  0.00    +0.000 C 
ATOM      4  C   UNL     1       7.607   6.373  18.679  0.00  0.00    +0.000 C 
ATOM      5  C   UNL     1       7.557   6.973  17.266  0.00  0.00    +0.000 C 
BRANCH   2   9
ATOM      6  C   UNL     1       6.489   3.900  12.999  0.00  0.00    +0.000 A 
ATOM      7  C   UNL     1       5.412   3.749  13.870  0.00  0.00    +0.000 A 
ATOM      8  C   UNL     1       5.383   4.417  15.088  0.00  0.00    +0.000 A 
ATOM      9  C   UNL     1       6.401   5.292  15.493  0.00  0.00    +0.000 A 
ATOM     10  C   UNL     1       7.486   5.431  14.595  0.00  0.00    +0.000 A 
ATOM     11  C   UNL     1       7.535   4.737  13.373  0.00  0.00    +0.000 A 
BRANCH   6  12
ATOM     12  O   UNL     1       6.599   3.269  11.785  0.00  0.00    +0.000 OA
BRANCH  12  14
ATOM     13  C   UNL     1       6.258   0.982  11.074  0.00  0.00    +0.000 C 
ATOM     14  C   UNL     1       5.610   2.262  11.552  0.00  0.00    +0.000 C 
ENDBRANCH  12  14
ENDBRANCH   6  12
ENDBRANCH   2   9
ENDBRANCH   1   2
BRANCH   1  15
ATOM     15  C   UNL     1       3.894   6.186  18.078  0.00  0.00    +0.000 C 
ATOM     16  C   UNL     1       2.782   7.191  18.397  0.00  0.00    +0.000 C 
BRANCH  15  17
ATOM     17  C   UNL     1       3.175   4.903  17.560  0.00  0.00    +0.000 C 
BRANCH  17  18
ATOM     18  C   UNL     1       1.683   4.857  17.891  0.00  0.00    +0.000 C 
BRANCH  18  19
ATOM     19  N   UNL     1       1.175   3.484  17.853  0.00  0.00    +0.000 NA
ATOM     20  H   UNL     1       1.924   2.862  17.540  0.00  0.00    +0.000 HD
BRANCH  19  21
ATOM     21  C   UNL     1       0.762   3.097  19.203  0.00  0.00    +0.000 C 
BRANCH  21  22
ATOM     22  C   UNL     1       1.650   1.978  19.724  0.00  0.00    +0.000 C 
BRANCH  22  23
ATOM     23  C   UNL     1       2.864   2.568  20.436  0.00  0.00    +0.000 C 
BRANCH  23  24
ATOM     24  C   UNL     1       4.149   2.263  19.706  0.00  0.00    +0.000 C 
ATOM     25  N   UNL     1       4.044   1.346  18.706  0.00  0.00    +0.000 N 
ATOM     26  O   UNL     1       5.219   2.775  19.992  0.00  0.00    +0.000 OA
ATOM     27  H   UNL     1       3.176   0.897  18.444  0.00  0.00    +0.000 HD
ATOM     28  H   UNL     1       4.884   1.115  18.198  0.00  0.00    +0.000 HD
ENDBRANCH  23  24
ENDBRANCH  22  23
ENDBRANCH  21  22
ENDBRANCH  19  21
ENDBRANCH  18  19
ENDBRANCH  17  18
ENDBRANCH  15  17
ENDBRANCH   1  15
TORSDOF 12
ENDMDL
MODEL 3
REMARK VINA RESULT:      -6.7      2.577      5.006
REMARK  Name = 
REMARK  14 active torsions:
REMARK  status: ('A' for Active; 'I' for Inactive)
REMARK    1  A    between atoms: C_1  and  C_2
REMARK    2  A    between atoms: C_2  and  O_3
REMARK    3  A    between atoms: O_3  and  C_4
REMARK    4  A    between atoms: C_7  and  C_8
REMARK    5  A    between atoms: C_8  and  C_9
REMARK    6  A    between atoms: C_9  and  C_10
REMARK    7  A    between atoms: C_10  and  C_11
REMARK    8  A    between atoms: C_10  and  C_12
REMARK    9  A    between atoms: C_12  and  C_13
REMARK   10  A    between atoms: C_13  and  N_14
REMARK   11  A    between atoms: N_14  and  C_15
REMARK   12  A    between atoms: C_15  and  C_16
REMARK   13  A    between atoms: C_16  and  C_17
REMARK   14  A    between atoms: C_17  and  C_18
REMARK                            x       y       z     vdW  Elec       q    Type
REMARK                         _______ _______ _______ _____ _____    ______ ____
ROOT
ATOM      1  C   UNL     1       4.671   4.365  17.184  0.00  0.00    +0.000 C 
ENDROOT
BRANCH   1   2
ATOM      2  C   UNL     1       5.773   4.862  16.219  0.00  0.00    +0.000 C 
ATOM      3  C   UNL     1       5.328   5.372  14.803  0.00  0.00    +0.000 C 
ATOM      4  C   UNL     1       5.738   4.015  14.211  0.00  0.00    +0.000 C 
ATOM      5  C   UNL     1       6.622   3.790  15.447  0.00  0.00    +0.000 C 
BRANCH   2   9
ATOM      6  C   UNL     1       8.200   7.884  18.497  0.00  0.00    +0.000 A 
ATOM      7  C   UNL     1       7.386   8.256  17.428  0.00  0.00    +0.000 A 
ATOM      8  C   UNL     1       6.648   7.307  16.733  0.00  0.00    +0.000 A 
ATOM      9  C   UNL     1       6.652   5.947  17.076  0.00  0.00    +0.000 A 
ATOM     10  C   UNL     1       7.485   5.590  18.163  0.00  0.00    +0.000 A 
ATOM     11  C   UNL     1       8.256   6.540  18.854  0.00  0.00    +0.000 A 
BRANCH   6  12
ATOM     12  O   UNL     1       8.967   8.756  19.228  0.00  0.00    +0.000 OA
BRANCH  12  14
ATOM     13  C   UNL     1       9.761  11.004  19.638  0.00  0.00    +0.000 C 
ATOM     14  C   UNL     1       9.022  10.082  18.694  0.00  0.00    +0.000 C 
ENDBRANCH  12  14
ENDBRANCH   6  12
ENDBRANCH   2   9
ENDBRANCH   1   2
BRANCH   1  15
ATOM     15  C   UNL     1       3.532   5.300  17.641  0.00  0.00    +0.000 C 
ATOM     16  C   UNL     1       2.131   4.681  17.580  0.00  0.00    +0.000 C 
BRANCH  15  17
ATOM     17  C   UNL     1       3.759   5.699  19.131  0.00  0.00    +0.000 C 
BRANCH  17  18
ATOM     18  C   UNL     1       2.471   6.045  19.879  0.00  0.00    +0.000 C 
BRANCH  18  19
ATOM     19  N   UNL     1       2.259   5.142  21.011  0.00  0.00    +0.000 NA
ATOM     20  H   UNL     1       2.079   5.698  21.850  0.00  0.00    +0.000 HD
BRANCH  19  21
ATOM     21  C   UNL     1       1.091   4.304  20.733  0.00  0.00    +0.000 C 
BRANCH  21  22
ATOM     22  C   UNL     1       1.430   2.838  20.956  0.00  0.00    +0.000 C 
BRANCH  22  23
ATOM     23  C   UNL     1       2.931   2.682  21.186  0.00  0.00    +0.000 C 
BRANCH  23  24
ATOM     24  C   UNL     1       3.634   2.138  19.966  0.00  0.00    +0.000 C 
ATOM     25  N   UNL     1       4.993   2.148  20.028  0.00  0.00    +0.000 N 
ATOM     26  O   UNL     1       3.043   1.735  18.977  0.00  0.00    +0.000 OA
ATOM     27  H   UNL     1       5.517   2.478  20.827  0.00  0.00    +0.000 HD
ATOM     28  H   UNL     1       5.496   1.794  19.228  0.00  0.00    +0.000 HD
ENDBRANCH  23  24
ENDBRANCH  22  23
ENDBRANCH  21  22
ENDBRANCH  19  21
ENDBRANCH  18  19
ENDBRANCH  17  18
ENDBRANCH  15  17
ENDBRANCH   1  15
TORSDOF 12
ENDMDL
MODEL 4
REMARK VINA RESULT:      -6.7      5.047      8.483
REMARK  Name = 
REMARK  14 active torsions:
REMARK  status: ('A' for Active; 'I' for Inactive)
REMARK    1  A    between atoms: C_1  and  C_2
REMARK    2  A    between atoms: C_2  and  O_3
REMARK    3  A    between atoms: O_3  and  C_4
REMARK    4  A    between atoms: C_7  and  C_8
REMARK    5  A    between atoms: C_8  and  C_9
REMARK    6  A    between atoms: C_9  and  C_10
REMARK    7  A    between atoms: C_10  and  C_11
REMARK    8  A    between atoms: C_10  and  C_12
REMARK    9  A    between atoms: C_12  and  C_13
REMARK   10  A    between atoms: C_13  and  N_14
REMARK   11  A    between atoms: N_14  and  C_15
REMARK   12  A    between atoms: C_15  and  C_16
REMARK   13  A    between atoms: C_16  and  C_17
REMARK   14  A    between atoms: C_17  and  C_18
REMARK                            x       y       z     vdW  Elec       q    Type
REMARK                         _______ _______ _______ _____ _____    ______ ____
ROOT
ATOM      1  C   UNL     1       7.229   5.727  16.674  0.00  0.00    +0.000 C 
ENDROOT
BRANCH   1   2
ATOM      2  C   UNL     1       5.942   5.035  16.167  0.00  0.00    +0.000 C 
ATOM      3  C   UNL     1       6.095   3.649  15.446  0.00  0.00    +0.000 C 
ATOM      4  C   UNL     1       5.971   4.365  14.094  0.00  0.00    +0.000 C 
ATOM      5  C   UNL     1       5.306   5.541  14.824  0.00  0.00    +0.000 C 
BRANCH   2   9
ATOM      6  C   UNL     1       3.135   5.069  19.679  0.00  0.00    +0.000 A 
ATOM      7  C   UNL     1       3.042   6.015  18.660  0.00  0.00    +0.000 A 
ATOM      8  C   UNL     1       3.922   5.991  17.585  0.00  0.00    +0.000 A 
ATOM      9  C   UNL     1       4.919   5.015  17.447  0.00  0.00    +0.000 A 
ATOM     10  C   UNL     1       4.997   4.065  18.493  0.00  0.00    +0.000 A 
ATOM     11  C   UNL     1       4.129   4.098  19.597  0.00  0.00    +0.000 A 
BRANCH   6  12
ATOM     12  O   UNL     1       2.313   5.029  20.777  0.00  0.00    +0.000 OA
BRANCH  12  14
ATOM     13  C   UNL     1       0.827   3.208  20.204  0.00  0.00    +0.000 C 
ATOM     14  C   UNL     1       1.892   3.714  21.151  0.00  0.00    +0.000 C 
ENDBRANCH  12  14
ENDBRANCH   6  12
ENDBRANCH   2   9
ENDBRANCH   1   2
BRANCH   1  15
ATOM     15  C   UNL     1       7.205   6.640  17.917  0.00  0.00    +0.000 C 
ATOM     16  C   UNL     1       8.096   6.172  19.073  0.00  0.00    +0.000 C 
BRANCH  15  17
ATOM     17  C   UNL     1       7.721   8.058  17.527  0.00  0.00    +0.000 C 
BRANCH  17  18
ATOM     18  C   UNL     1       8.520   8.749  18.632  0.00  0.00    +0.000 C 
BRANCH  18  19
ATOM     19  N   UNL     1       9.017  10.053  18.188  0.00  0.00    +0.000 NA
ATOM     20  H   UNL     1       8.234  10.599  17.823  0.00  0.00    +0.000 HD
BRANCH  19  21
ATOM     21  C   UNL     1       9.594  10.752  19.338  0.00  0.00    +0.000 C 
BRANCH  21  22
ATOM     22  C   UNL     1      10.820  11.544  18.910  0.00  0.00    +0.000 C 
BRANCH  22  23
ATOM     23  C   UNL     1      10.397  12.916  18.395  0.00  0.00    +0.000 C 
BRANCH  23  24
ATOM     24  C   UNL     1      11.301  13.406  17.288  0.00  0.00    +0.000 C 
ATOM     25  N   UNL     1      12.221  12.505  16.851  0.00  0.00    +0.000 N 
ATOM     26  O   UNL     1      11.238  14.532  16.823  0.00  0.00    +0.000 OA
ATOM     27  H   UNL     1      12.307  11.565  17.216  0.00  0.00    +0.000 HD
ATOM     28  H   UNL     1      12.844  12.799  16.114  0.00  0.00    +0.000 HD
ENDBRANCH  23  24
ENDBRANCH  22  23
ENDBRANCH  21  22
ENDBRANCH  19  21
ENDBRANCH  18  19
ENDBRANCH  17  18
ENDBRANCH  15  17
ENDBRANCH   1  15
TORSDOF 12
ENDMDL
MODEL 5
REMARK VINA RESULT:      -6.5      1.336      2.265
REMARK  Name = 
REMARK  14 active torsions:
REMARK  status: ('A' for Active; 'I' for Inactive)
REMARK    1  A    between atoms: C_1  and  C_2
REMARK    2  A    between atoms: C_2  and  O_3
REMARK    3  A    between atoms: O_3  and  C_4
REMARK    4  A    between atoms: C_7  and  C_8
REMARK    5  A    between atoms: C_8  and  C_9
REMARK    6  A    between atoms: C_9  and  C_10
REMARK    7  A    between atoms: C_10  and  C_11
REMARK    8  A    between atoms: C_10  and  C_12
REMARK    9  A    between atoms: C_12  and  C_13
REMARK   10  A    between atoms: C_13  and  N_14
REMARK   11  A    between atoms: N_14  and  C_15
REMARK   12  A    between atoms: C_15  and  C_16
REMARK   13  A    between atoms: C_16  and  C_17
REMARK   14  A    between atoms: C_17  and  C_18
REMARK                            x       y       z     vdW  Elec       q    Type
REMARK                         _______ _______ _______ _____ _____    ______ ____
ROOT
ATOM      1  C   UNL     1       5.243   4.944  18.170  0.00  0.00    +0.000 C 
ENDROOT
BRANCH   1   2
ATOM      2  C   UNL     1       6.623   5.318  17.581  0.00  0.00    +0.000 C 
ATOM      3  C   UNL     1       7.901   4.882  18.382  0.00  0.00    +0.000 C 
ATOM      4  C   UNL     1       8.007   6.308  18.941  0.00  0.00    +0.000 C 
ATOM      5  C   UNL     1       7.138   6.789  17.769  0.00  0.00    +0.000 C 
BRANCH   2   9
ATOM      6  C   UNL     1       6.551   3.963  13.294  0.00  0.00    +0.000 A 
ATOM      7  C   UNL     1       7.334   5.039  13.707  0.00  0.00    +0.000 A 
ATOM      8  C   UNL     1       7.340   5.447  15.036  0.00  0.00    +0.000 A 
ATOM      9  C   UNL     1       6.595   4.794  16.028  0.00  0.00    +0.000 A 
ATOM     10  C   UNL     1       5.806   3.704  15.588  0.00  0.00    +0.000 A 
ATOM     11  C   UNL     1       5.774   3.304  14.242  0.00  0.00    +0.000 A 
BRANCH   6  12
ATOM     12  O   UNL     1       6.482   3.505  12.002  0.00  0.00    +0.000 OA
BRANCH  12  14
ATOM     13  C   UNL     1       4.175   3.283  11.308  0.00  0.00    +0.000 C 
ATOM     14  C   UNL     1       5.428   2.568  11.765  0.00  0.00    +0.000 C 
ENDBRANCH  12  14
ENDBRANCH   6  12
ENDBRANCH   2   9
ENDBRANCH   1   2
BRANCH   1  15
ATOM     15  C   UNL     1       4.098   5.975  18.234  0.00  0.00    +0.000 C 
ATOM     16  C   UNL     1       4.213   7.123  17.225  0.00  0.00    +0.000 C 
BRANCH  15  17
ATOM     17  C   UNL     1       2.745   5.266  17.922  0.00  0.00    +0.000 C 
BRANCH  17  18
ATOM     18  C   UNL     1       2.892   4.010  17.064  0.00  0.00    +0.000 C 
BRANCH  18  19
ATOM     19  N   UNL     1       1.929   2.981  17.462  0.00  0.00    +0.000 NA
ATOM     20  H   UNL     1       1.912   2.249  16.749  0.00  0.00    +0.000 HD
BRANCH  19  21
ATOM     21  C   UNL     1       2.359   2.402  18.735  0.00  0.00    +0.000 C 
BRANCH  21  22
ATOM     22  C   UNL     1       1.155   2.151  19.632  0.00  0.00    +0.000 C 
BRANCH  22  23
ATOM     23  C   UNL     1       0.894   3.377  20.503  0.00  0.00    +0.000 C 
BRANCH  23  24
ATOM     24  C   UNL     1       2.063   3.683  21.409  0.00  0.00    +0.000 C 
ATOM     25  N   UNL     1       2.512   4.967  21.360  0.00  0.00    +0.000 N 
ATOM     26  O   UNL     1       2.593   2.847  22.122  0.00  0.00    +0.000 OA
ATOM     27  H   UNL     1       2.102   5.685  20.778  0.00  0.00    +0.000 HD
ATOM     28  H   UNL     1       3.294   5.207  21.951  0.00  0.00    +0.000 HD
ENDBRANCH  23  24
ENDBRANCH  22  23
ENDBRANCH  21  22
ENDBRANCH  19  21
ENDBRANCH  18  19
ENDBRANCH  17  18
ENDBRANCH  15  17
ENDBRANCH   1  15
TORSDOF 12
ENDMDL
MODEL 6
REMARK VINA RESULT:      -6.5      4.823      8.143
REMARK  Name = 
REMARK  14 active torsions:
REMARK  status: ('A' for Active; 'I' for Inactive)
REMARK    1  A    between atoms: C_1  and  C_2
REMARK    2  A    between atoms: C_2  and  O_3
REMARK    3  A    between atoms: O_3  and  C_4
REMARK    4  A    between atoms: C_7  and  C_8
REMARK    5  A    between atoms: C_8  and  C_9
REMARK    6  A    between atoms: C_9  and  C_10
REMARK    7  A    between atoms: C_10  and  C_11
REMARK    8  A    between atoms: C_10  and  C_12
REMARK    9  A    between atoms: C_12  and  C_13
REMARK   10  A    between atoms: C_13  and  N_14
REMARK   11  A    between atoms: N_14  and  C_15
REMARK   12  A    between atoms: C_15  and  C_16
REMARK   13  A    between atoms: C_16  and  C_17
REMARK   14  A    between atoms: C_17  and  C_18
REMARK                            x       y       z     vdW  Elec       q    Type
REMARK                         _______ _______ _______ _____ _____    ______ ____
ROOT
ATOM      1  C   UNL     1       5.800   6.758  16.894  0.00  0.00    +0.000 C 
ENDROOT
BRANCH   1   2
ATOM      2  C   UNL     1       5.617   5.318  16.360  0.00  0.00    +0.000 C 
ATOM      3  C   UNL     1       6.879   4.386  16.327  0.00  0.00    +0.000 C 
ATOM      4  C   UNL     1       7.027   4.681  14.827  0.00  0.00    +0.000 C 
ATOM      5  C   UNL     1       5.551   5.105  14.806  0.00  0.00    +0.000 C 
BRANCH   2   9
ATOM      6  C   UNL     1       2.146   3.682  18.704  0.00  0.00    +0.000 A 
ATOM      7  C   UNL     1       2.377   5.052  18.601  0.00  0.00    +0.000 A 
ATOM      8  C   UNL     1       3.458   5.539  17.876  0.00  0.00    +0.000 A 
ATOM      9  C   UNL     1       4.348   4.698  17.193  0.00  0.00    +0.000 A 
ATOM     10  C   UNL     1       4.097   3.311  17.310  0.00  0.00    +0.000 A 
ATOM     11  C   UNL     1       3.022   2.810  18.064  0.00  0.00    +0.000 A 
BRANCH   6  12
ATOM     12  O   UNL     1       1.110   3.120  19.407  0.00  0.00    +0.000 OA
BRANCH  12  14
ATOM     13  C   UNL     1       2.085   3.501  21.588  0.00  0.00    +0.000 C 
ATOM     14  C   UNL     1       1.500   2.488  20.629  0.00  0.00    +0.000 C 
ENDBRANCH  12  14
ENDBRANCH   6  12
ENDBRANCH   2   9
ENDBRANCH   1   2
BRANCH   1  15
ATOM     15  C   UNL     1       6.815   7.070  18.012  0.00  0.00    +0.000 C 
ATOM     16  C   UNL     1       7.401   5.837  18.708  0.00  0.00    +0.000 C 
BRANCH  15  17
ATOM     17  C   UNL     1       8.030   7.837  17.407  0.00  0.00    +0.000 C 
BRANCH  17  18
ATOM     18  C   UNL     1       8.233   9.233  17.995  0.00  0.00    +0.000 C 
BRANCH  18  19
ATOM     19  N   UNL     1       9.017   9.177  19.231  0.00  0.00    +0.000 NA
ATOM     20  H   UNL     1       9.871   8.645  19.058  0.00  0.00    +0.000 HD
BRANCH  19  21
ATOM     21  C   UNL     1       9.373  10.542  19.624  0.00  0.00    +0.000 C 
BRANCH  21  22
ATOM     22  C   UNL     1       9.282  11.475  18.426  0.00  0.00    +0.000 C 
BRANCH  22  23
ATOM     23  C   UNL     1      10.243  12.646  18.607  0.00  0.00    +0.000 C 
BRANCH  23  24
ATOM     24  C   UNL     1      11.684  12.198  18.606  0.00  0.00    +0.000 C 
ATOM     25  N   UNL     1      12.218  11.965  17.377  0.00  0.00    +0.000 N 
ATOM     26  O   UNL     1      12.333  12.029  19.626  0.00  0.00    +0.000 OA
ATOM     27  H   UNL     1      11.710  12.088  16.511  0.00  0.00    +0.000 HD
ATOM     28  H   UNL     1      13.179  11.660  17.338  0.00  0.00    +0.000 HD
ENDBRANCH  23  24
ENDBRANCH  22  23
ENDBRANCH  21  22
ENDBRANCH  19  21
ENDBRANCH  18  19
ENDBRANCH  17  18
ENDBRANCH  15  17
ENDBRANCH   1  15
TORSDOF 12
ENDMDL
MODEL 7
REMARK VINA RESULT:      -6.5      0.950      1.627
REMARK  Name = 
REMARK  14 active torsions:
REMARK  status: ('A' for Active; 'I' for Inactive)
REMARK    1  A    between atoms: C_1  and  C_2
REMARK    2  A    between atoms: C_2  and  O_3
REMARK    3  A    between atoms: O_3  and  C_4
REMARK    4  A    between atoms: C_7  and  C_8
REMARK    5  A    between atoms: C_8  and  C_9
REMARK    6  A    between atoms: C_9  and  C_10
REMARK    7  A    between atoms: C_10  and  C_11
REMARK    8  A    between atoms: C_10  and  C_12
REMARK    9  A    between atoms: C_12  and  C_13
REMARK   10  A    between atoms: C_13  and  N_14
REMARK   11  A    between atoms: N_14  and  C_15
REMARK   12  A    between atoms: C_15  and  C_16
REMARK   13  A    between atoms: C_16  and  C_17
REMARK   14  A    between atoms: C_17  and  C_18
REMARK                            x       y       z     vdW  Elec       q    Type
REMARK                         _______ _______ _______ _____ _____    ______ ____
ROOT
ATOM      1  C   UNL     1       4.915   6.170  17.358  0.00  0.00    +0.000 C 
ENDROOT
BRANCH   1   2
ATOM      2  C   UNL     1       6.409   5.973  17.009  0.00  0.00    +0.000 C 
ATOM      3  C   UNL     1       7.325   5.289  18.085  0.00  0.00    +0.000 C 
ATOM      4  C   UNL     1       7.838   6.677  18.496  0.00  0.00    +0.000 C 
ATOM      5  C   UNL     1       7.370   7.208  17.133  0.00  0.00    +0.000 C 
BRANCH   2   9
ATOM      6  C   UNL     1       6.500   4.012  12.965  0.00  0.00    +0.000 A 
ATOM      7  C   UNL     1       7.582   4.748  13.444  0.00  0.00    +0.000 A 
ATOM      8  C   UNL     1       7.533   5.351  14.695  0.00  0.00    +0.000 A 
ATOM      9  C   UNL     1       6.426   5.233  15.547  0.00  0.00    +0.000 A 
ATOM     10  C   UNL     1       5.338   4.483  15.041  0.00  0.00    +0.000 A 
ATOM     11  C   UNL     1       5.369   3.893  13.766  0.00  0.00    +0.000 A 
BRANCH   6  12
ATOM     12  O   UNL     1       6.464   3.395  11.739  0.00  0.00    +0.000 OA
BRANCH  12  14
ATOM     13  C   UNL     1       6.305   1.067  11.100  0.00  0.00    +0.000 C 
ATOM     14  C   UNL     1       5.586   2.268  11.673  0.00  0.00    +0.000 C 
ENDBRANCH  12  14
ENDBRANCH   6  12
ENDBRANCH   2   9
ENDBRANCH   1   2
BRANCH   1  15
ATOM     15  C   UNL     1       4.173   5.178  18.277  0.00  0.00    +0.000 C 
ATOM     16  C   UNL     1       4.985   3.939  18.669  0.00  0.00    +0.000 C 
BRANCH  15  17
ATOM     17  C   UNL     1       3.805   5.889  19.614  0.00  0.00    +0.000 C 
BRANCH  17  18
ATOM     18  C   UNL     1       2.303   6.105  19.804  0.00  0.00    +0.000 C 
BRANCH  18  19
ATOM     19  N   UNL     1       1.871   5.671  21.134  0.00  0.00    +0.000 NA
ATOM     20  H   UNL     1       0.877   5.882  21.245  0.00  0.00    +0.000 HD
BRANCH  19  21
ATOM     21  C   UNL     1       2.068   4.224  21.244  0.00  0.00    +0.000 C 
BRANCH  21  22
ATOM     22  C   UNL     1       0.927   3.484  20.562  0.00  0.00    +0.000 C 
BRANCH  22  23
ATOM     23  C   UNL     1       1.465   2.248  19.848  0.00  0.00    +0.000 C 
BRANCH  23  24
ATOM     24  C   UNL     1       1.659   2.492  18.370  0.00  0.00    +0.000 C 
ATOM     25  N   UNL     1       2.508   1.629  17.748  0.00  0.00    +0.000 N 
ATOM     26  O   UNL     1       1.120   3.404  17.766  0.00  0.00    +0.000 OA
ATOM     27  H   UNL     1       2.977   0.865  18.216  0.00  0.00    +0.000 HD
ATOM     28  H   UNL     1       2.664   1.764  16.760  0.00  0.00    +0.000 HD
ENDBRANCH  23  24
ENDBRANCH  22  23
ENDBRANCH  21  22
ENDBRANCH  19  21
ENDBRANCH  18  19
ENDBRANCH  17  18
ENDBRANCH  15  17
ENDBRANCH   1  15
TORSDOF 12
ENDMDL
MODEL 8
REMARK VINA RESULT:      -6.5      3.394      7.566
REMARK  Name = 
REMARK  14 active torsions:
REMARK  status: ('A' for Active; 'I' for Inactive)
REMARK    1  A    between atoms: C_1  and  C_2
REMARK    2  A    between atoms: C_2  and  O_3
REMARK    3  A    between atoms: O_3  and  C_4
REMARK    4  A    between atoms: C_7  and  C_8
REMARK    5  A    between atoms: C_8  and  C_9
REMARK    6  A    between atoms: C_9  and  C_10
REMARK    7  A    between atoms: C_10  and  C_11
REMARK    8  A    between atoms: C_10  and  C_12
REMARK    9  A    between atoms: C_12  and  C_13
REMARK   10  A    between atoms: C_13  and  N_14
REMARK   11  A    between atoms: N_14  and  C_15
REMARK   12  A    between atoms: C_15  and  C_16
REMARK   13  A    between atoms: C_16  and  C_17
REMARK   14  A    between atoms: C_17  and  C_18
REMARK                            x       y       z     vdW  Elec       q    Type
REMARK                         _______ _______ _______ _____ _____    ______ ____
ROOT
ATOM      1  C   UNL     1       4.095   5.408  19.323  0.00  0.00    +0.000 C 
ENDROOT
BRANCH   1   2
ATOM      2  C   UNL     1       2.550   5.363  19.374  0.00  0.00    +0.000 C 
ATOM      3  C   UNL     1       1.882   4.371  20.392  0.00  0.00    +0.000 C 
ATOM      4  C   UNL     1       1.647   3.384  19.238  0.00  0.00    +0.000 C 
ATOM      5  C   UNL     1       1.793   4.558  18.259  0.00  0.00    +0.000 C 
BRANCH   2   9
ATOM      6  C   UNL     1       1.171   9.610  19.898  0.00  0.00    +0.000 A 
ATOM      7  C   UNL     1       1.204   8.716  20.966  0.00  0.00    +0.000 A 
ATOM      8  C   UNL     1       1.628   7.405  20.784  0.00  0.00    +0.000 A 
ATOM      9  C   UNL     1       2.069   6.920  19.544  0.00  0.00    +0.000 A 
ATOM     10  C   UNL     1       2.027   7.844  18.473  0.00  0.00    +0.000 A 
ATOM     11  C   UNL     1       1.574   9.163  18.644  0.00  0.00    +0.000 A 
BRANCH   6  12
ATOM     12  O   UNL     1       0.757  10.915  19.992  0.00  0.00    +0.000 OA
BRANCH  12  14
ATOM     13  C   UNL     1       0.626  13.146  19.065  0.00  0.00    +0.000 C 
ATOM     14  C   UNL     1       1.166  11.743  18.900  0.00  0.00    +0.000 C 
ENDBRANCH  12  14
ENDBRANCH   6  12
ENDBRANCH   2   9
ENDBRANCH   1   2
BRANCH   1  15
ATOM     15  C   UNL     1       4.852   5.264  17.987  0.00  0.00    +0.000 C 
ATOM     16  C   UNL     1       4.600   6.394  16.983  0.00  0.00    +0.000 C 
BRANCH  15  17
ATOM     17  C   UNL     1       6.387   5.270  18.260  0.00  0.00    +0.000 C 
BRANCH  17  18
ATOM     18  C   UNL     1       7.226   5.692  17.054  0.00  0.00    +0.000 C 
BRANCH  18  19
ATOM     19  N   UNL     1       7.452   4.566  16.147  0.00  0.00    +0.000 NA
ATOM     20  H   UNL     1       6.857   3.786  16.432  0.00  0.00    +0.000 HD
BRANCH  19  21
ATOM     21  C   UNL     1       7.089   4.975  14.789  0.00  0.00    +0.000 C 
BRANCH  21  22
ATOM     22  C   UNL     1       6.154   3.951  14.163  0.00  0.00    +0.000 C 
BRANCH  22  23
ATOM     23  C   UNL     1       6.461   3.810  12.676  0.00  0.00    +0.000 C 
BRANCH  23  24
ATOM     24  C   UNL     1       5.459   2.925  11.975  0.00  0.00    +0.000 C 
ATOM     25  N   UNL     1       5.922   1.697  11.616  0.00  0.00    +0.000 N 
ATOM     26  O   UNL     1       4.319   3.277  11.721  0.00  0.00    +0.000 OA
ATOM     27  H   UNL     1       6.860   1.372  11.804  0.00  0.00    +0.000 HD
ATOM     28  H   UNL     1       5.279   1.080  11.142  0.00  0.00    +0.000 HD
ENDBRANCH  23  24
ENDBRANCH  22  23
ENDBRANCH  21  22
ENDBRANCH  19  21
ENDBRANCH  18  19
ENDBRANCH  17  18
ENDBRANCH  15  17
ENDBRANCH   1  15
TORSDOF 12
ENDMDL
MODEL 9
REMARK VINA RESULT:      -6.5      1.564      2.368
REMARK  Name = 
REMARK  14 active torsions:
REMARK  status: ('A' for Active; 'I' for Inactive)
REMARK    1  A    between atoms: C_1  and  C_2
REMARK    2  A    between atoms: C_2  and  O_3
REMARK    3  A    between atoms: O_3  and  C_4
REMARK    4  A    between atoms: C_7  and  C_8
REMARK    5  A    between atoms: C_8  and  C_9
REMARK    6  A    between atoms: C_9  and  C_10
REMARK    7  A    between atoms: C_10  and  C_11
REMARK    8  A    between atoms: C_10  and  C_12
REMARK    9  A    between atoms: C_12  and  C_13
REMARK   10  A    between atoms: C_13  and  N_14
REMARK   11  A    between atoms: N_14  and  C_15
REMARK   12  A    between atoms: C_15  and  C_16
REMARK   13  A    between atoms: C_16  and  C_17
REMARK   14  A    between atoms: C_17  and  C_18
REMARK                            x       y       z     vdW  Elec       q    Type
REMARK                         _______ _______ _______ _____ _____    ______ ____
ROOT
ATOM      1  C   UNL     1       4.986   6.459  17.309  0.00  0.00    +0.000 C 
ENDROOT
BRANCH   1   2
ATOM      2  C   UNL     1       6.389   5.820  17.181  0.00  0.00    +0.000 C 
ATOM      3  C   UNL     1       6.864   4.867  18.333  0.00  0.00    +0.000 C 
ATOM      4  C   UNL     1       7.692   6.022  18.915  0.00  0.00    +0.000 C 
ATOM      5  C   UNL     1       7.640   6.698  17.538  0.00  0.00    +0.000 C 
BRANCH   2   9
ATOM      6  C   UNL     1       6.535   4.030  13.059  0.00  0.00    +0.000 A 
ATOM      7  C   UNL     1       7.556   4.849  13.537  0.00  0.00    +0.000 A 
ATOM      8  C   UNL     1       7.491   5.398  14.811  0.00  0.00    +0.000 A 
ATOM      9  C   UNL     1       6.428   5.141  15.690  0.00  0.00    +0.000 A 
ATOM     10  C   UNL     1       5.401   4.308  15.186  0.00  0.00    +0.000 A 
ATOM     11  C   UNL     1       5.447   3.771  13.888  0.00  0.00    +0.000 A 
BRANCH   6  12
ATOM     12  O   UNL     1       6.518   3.458  11.812  0.00  0.00    +0.000 OA
BRANCH  12  14
ATOM     13  C   UNL     1       6.274   1.161  11.094  0.00  0.00    +0.000 C 
ATOM     14  C   UNL     1       5.589   2.380  11.670  0.00  0.00    +0.000 C 
ENDBRANCH  12  14
ENDBRANCH   6  12
ENDBRANCH   2   9
ENDBRANCH   1   2
BRANCH   1  15
ATOM     15  C   UNL     1       3.953   5.919  18.319  0.00  0.00    +0.000 C 
ATOM     16  C   UNL     1       2.802   6.881  18.634  0.00  0.00    +0.000 C 
BRANCH  15  17
ATOM     17  C   UNL     1       3.290   4.632  17.743  0.00  0.00    +0.000 C 
BRANCH  17  18
ATOM     18  C   UNL     1       1.762   4.684  17.718  0.00  0.00    +0.000 C 
BRANCH  18  19
ATOM     19  N   UNL     1       1.188   3.338  17.675  0.00  0.00    +0.000 NA
ATOM     20  H   UNL     1       1.848   2.711  17.211  0.00  0.00    +0.000 HD
BRANCH  19  21
ATOM     21  C   UNL     1       0.970   2.876  19.047  0.00  0.00    +0.000 C 
BRANCH  21  22
ATOM     22  C   UNL     1       2.038   1.864  19.437  0.00  0.00    +0.000 C 
BRANCH  22  23
ATOM     23  C   UNL     1       2.919   2.440  20.541  0.00  0.00    +0.000 C 
BRANCH  23  24
ATOM     24  C   UNL     1       2.126   3.279  21.514  0.00  0.00    +0.000 C 
ATOM     25  N   UNL     1       1.331   2.580  22.368  0.00  0.00    +0.000 N 
ATOM     26  O   UNL     1       2.166   4.499  21.533  0.00  0.00    +0.000 OA
ATOM     27  H   UNL     1       1.268   1.570  22.379  0.00  0.00    +0.000 HD
ATOM     28  H   UNL     1       0.784   3.109  23.031  0.00  0.00    +0.000 HD
ENDBRANCH  23  24
ENDBRANCH  22  23
ENDBRANCH  21  22
ENDBRANCH  19  21
ENDBRANCH  18  19
ENDBRANCH  17  18
ENDBRANCH  15  17
ENDBRANCH   1  15
TORSDOF 12
ENDMDL
