MODEL 1
REMARK VINA RESULT:      -7.2      0.000      0.000
REMARK  Name = 
REMARK  12 active torsions:
REMARK  status: ('A' for Active; 'I' for Inactive)
REMARK    1  A    between atoms: C_1  and  O_2
REMARK    2  A    between atoms: O_2  and  C_3
REMARK    3  A    between atoms: C_8  and  S_9
REMARK    4  A    between atoms: S_9  and  C_10
REMARK    5  A    between atoms: C_12  and  C_13
REMARK    6  A    between atoms: N_17  and  C_18
REMARK    7  A    between atoms: C_18  and  O_19
REMARK    8  A    between atoms: O_19  and  C_20
REMARK    9  A    between atoms: C_20  and  C_21
REMARK   10  A    between atoms: C_21  and  O_22
REMARK   11  A    between atoms: O_22  and  C_23
REMARK   12  A    between atoms: C_23  and  C_24
REMARK                            x       y       z     vdW  Elec       q    Type
REMARK                         _______ _______ _______ _____ _____    ______ ____
ROOT
ATOM      1  C   UNL     1       6.504   5.005  17.531  0.00  0.00    +0.000 A 
ATOM      2  N   UNL     1       6.261   4.307  16.439  0.00  0.00    +0.000 NA
ATOM      3  C   UNL     1       6.974   4.993  15.455  0.00  0.00    +0.000 A 
ATOM      4  N   UNL     1       7.634   6.071  15.916  0.00  0.00    +0.000 NA
ATOM      5  N   UNL     1       7.283   6.084  17.219  0.00  0.00    +0.000 N 
ENDROOT
BRANCH   3   6
ATOM      6  C   UNL     1       6.962   4.639  14.021  0.00  0.00    +0.000 C 
ATOM      7  N   UNL     1       6.246   3.513  13.705  0.00  0.00    +0.000 N 
ATOM      8  O   UNL     1       7.507   5.290  13.130  0.00  0.00    +0.000 OA
ATOM      9  H   UNL     1       5.734   3.021  14.422  0.00  0.00    +0.000 HD
ATOM     10  H   UNL     1       6.123   3.295  12.728  0.00  0.00    +0.000 HD
ENDBRANCH   3   6
BRANCH   1  11
ATOM     11  S   UNL     1       5.778   4.832  19.091  0.00  0.00    +0.000 S 
BRANCH  11  17
ATOM     12  C   UNL     1       3.068   5.013  18.159  0.00  0.00    +0.000 A 
ATOM     13  C   UNL     1       1.823   4.395  17.934  0.00  0.00    +0.000 A 
ATOM     14  C   UNL     1       1.610   3.055  18.256  0.00  0.00    +0.000 A 
ATOM     15  C   UNL     1       2.636   2.315  18.823  0.00  0.00    +0.000 A 
ATOM     16  C   UNL     1       3.861   2.929  19.097  0.00  0.00    +0.000 A 
ATOM     17  C   UNL     1       4.096   4.288  18.793  0.00  0.00    +0.000 A 
BRANCH  12  19
ATOM     18  C   UNL     1       2.471   7.305  18.293  0.00  0.00    +0.000 C 
ATOM     19  O   UNL     1       3.331   6.301  17.761  0.00  0.00    +0.000 OA
ENDBRANCH  12  19
ENDBRANCH  11  17
ENDBRANCH   1  11
BRANCH   5  20
ATOM     20  C   UNL     1       7.688   7.216  18.032  0.00  0.00    +0.000 C 
BRANCH  20  21
ATOM     21  O   UNL     1       7.948   8.368  17.230  0.00  0.00    +0.000 OA
BRANCH  21  22
ATOM     22  C   UNL     1       7.912   9.583  17.986  0.00  0.00    +0.000 C 
BRANCH  22  23
ATOM     23  C   UNL     1       9.156   9.635  18.869  0.00  0.00    +0.000 C 
BRANCH  23  24
ATOM     24  O   UNL     1       9.932  10.817  18.600  0.00  0.00    +0.000 OA
BRANCH  24  25
ATOM     25  C   UNL     1      10.507  11.392  19.687  0.00  0.00    +0.000 C 
ATOM     26  C   UNL     1       9.561  11.396  20.849  0.00  0.00    +0.000 C 
ATOM     27  O   UNL     1      11.641  11.847  19.729  0.00  0.00    +0.000 OA
ENDBRANCH  24  25
ENDBRANCH  23  24
ENDBRANCH  22  23
ENDBRANCH  21  22
ENDBRANCH  20  21
ENDBRANCH   5  20
TORSDOF 10
ENDMDL
MODEL 2
REMARK VINA RESULT:      -7.1      4.008      6.981
REMARK  Name = 
REMARK  12 active torsions:
REMARK  status: ('A' for Active; 'I' for Inactive)
REMARK    1  A    between atoms: C_1  and  O_2
REMARK    2  A    between atoms: O_2  and  C_3
REMARK    3  A    between atoms: C_8  and  S_9
REMARK    4  A    between atoms: S_9  and  C_10
REMARK    5  A    between atoms: C_12  and  C_13
REMARK    6  A    between atoms: N_17  and  C_18
REMARK    7  A    between atoms: C_18  and  O_19
REMARK    8  A    between atoms: O_19  and  C_20
REMARK    9  A    between atoms: C_20  and  C_21
REMARK   10  A    between atoms: C_21  and  O_22
REMARK   11  A    between atoms: O_22  and  C_23
REMARK   12  A    between atoms: C_23  and  C_24
REMARK                            x       y       z     vdW  Elec       q    Type
REMARK                         _______ _______ _______ _____ _____    ______ ____
ROOT
ATOM      1  C   UNL     1       3.860   5.835  18.421  0.00  0.00    +0.000 A 
ATOM      2  N   UNL     1       5.113   6.195  18.226  0.00  0.00    +0.000 NA
ATOM      3  C   UNL     1       5.478   5.484  17.083  0.00  0.00    +0.000 A 
ATOM      4  N   UNL     1       4.493   4.715  16.586  0.00  0.00    +0.000 NA
ATOM      5  N   UNL     1       3.497   4.918  17.475  0.00  0.00    +0.000 N 
ENDROOT
BRANCH   3   6
ATOM      6  C   UNL     1       6.834   5.491  16.496  0.00  0.00    +0.000 C 
ATOM      7  N   UNL     1       7.518   6.672  16.627  0.00  0.00    +0.000 N 
ATOM      8  O   UNL     1       7.370   4.529  15.948  0.00  0.00    +0.000 OA
ATOM      9  H   UNL     1       7.111   7.438  17.143  0.00  0.00    +0.000 HD
ATOM     10  H   UNL     1       8.483   6.689  16.336  0.00  0.00    +0.000 HD
ENDBRANCH   3   6
BRANCH   1  11
ATOM     11  S   UNL     1       2.846   6.188  19.776  0.00  0.00    +0.000 S 
BRANCH  11  17
ATOM     12  C   UNL     1       1.400   8.611  20.305  0.00  0.00    +0.000 A 
ATOM     13  C   UNL     1       0.897   9.844  19.847  0.00  0.00    +0.000 A 
ATOM     14  C   UNL     1       1.096  10.265  18.532  0.00  0.00    +0.000 A 
ATOM     15  C   UNL     1       1.787   9.449  17.650  0.00  0.00    +0.000 A 
ATOM     16  C   UNL     1       2.248   8.201  18.078  0.00  0.00    +0.000 A 
ATOM     17  C   UNL     1       2.048   7.749  19.400  0.00  0.00    +0.000 A 
BRANCH  12  19
ATOM     18  C   UNL     1       0.700   9.162  22.505  0.00  0.00    +0.000 C 
ATOM     19  O   UNL     1       1.302   8.222  21.619  0.00  0.00    +0.000 OA
ENDBRANCH  12  19
ENDBRANCH  11  17
ENDBRANCH   1  11
BRANCH   5  20
ATOM     20  C   UNL     1       2.291   4.120  17.354  0.00  0.00    +0.000 C 
BRANCH  20  21
ATOM     21  O   UNL     1       2.580   2.802  16.889  0.00  0.00    +0.000 OA
BRANCH  21  22
ATOM     22  C   UNL     1       3.226   1.998  17.882  0.00  0.00    +0.000 C 
BRANCH  22  23
ATOM     23  C   UNL     1       2.299   1.896  19.091  0.00  0.00    +0.000 C 
BRANCH  23  24
ATOM     24  O   UNL     1       2.944   2.394  20.278  0.00  0.00    +0.000 OA
BRANCH  24  25
ATOM     25  C   UNL     1       2.108   2.894  21.225  0.00  0.00    +0.000 C 
ATOM     26  C   UNL     1       0.765   3.203  20.637  0.00  0.00    +0.000 C 
ATOM     27  O   UNL     1       2.396   3.072  22.399  0.00  0.00    +0.000 OA
ENDBRANCH  24  25
ENDBRANCH  23  24
ENDBRANCH  22  23
ENDBRANCH  21  22
ENDBRANCH  20  21
ENDBRANCH   5  20
TORSDOF 10
ENDMDL
MODEL 3
REMARK VINA RESULT:      -7.0      1.354      2.134
REMARK  Name = 
REMARK  12 active torsions:
REMARK  status: ('A' for Active; 'I' for Inactive)
REMARK    1  A    between atoms: C_1  and  O_2
REMARK    2  A    between atoms: O_2  and  C_3
REMARK    3  A    between atoms: C_8  and  S_9
REMARK    4  A    between atoms: S_9  and  C_10
REMARK    5  A    between atoms: C_12  and  C_13
REMARK    6  A    between atoms: N_17  and  C_18
REMARK    7  A    between atoms: C_18  and  O_19
REMARK    8  A    between atoms: O_19  and  C_20
REMARK    9  A    between atoms: C_20  and  C_21
REMARK   10  A    between atoms: C_21  and  O_22
REMARK   11  A    between atoms: O_22  and  C_23
REMARK   12  A    between atoms: C_23  and  C_24
REMARK                            x       y       z     vdW  Elec       q    Type
REMARK                         _______ _______ _______ _____ _____    ______ ____
ROOT
ATOM      1  C   UNL     1       6.173   5.203  17.512  0.00  0.00    +0.000 A 
ATOM      2  N   UNL     1       5.927   4.523  16.409  0.00  0.00    +0.000 NA
ATOM      3  C   UNL     1       6.842   5.049  15.497  0.00  0.00    +0.000 A 
ATOM      4  N   UNL     1       7.626   6.013  16.011  0.00  0.00    +0.000 NA
ATOM      5  N   UNL     1       7.152   6.125  17.270  0.00  0.00    +0.000 N 
ENDROOT
BRANCH   3   6
ATOM      6  C   UNL     1       6.915   4.659  14.074  0.00  0.00    +0.000 C 
ATOM      7  N   UNL     1       6.210   3.531  13.743  0.00  0.00    +0.000 N 
ATOM      8  O   UNL     1       7.519   5.283  13.203  0.00  0.00    +0.000 OA
ATOM      9  H   UNL     1       5.650   3.061  14.439  0.00  0.00    +0.000 HD
ATOM     10  H   UNL     1       6.145   3.289  12.766  0.00  0.00    +0.000 HD
ENDBRANCH   3   6
BRANCH   1  11
ATOM     11  S   UNL     1       5.275   5.202  18.990  0.00  0.00    +0.000 S 
BRANCH  11  17
ATOM     12  C   UNL     1       3.777   2.756  19.131  0.00  0.00    +0.000 A 
ATOM     13  C   UNL     1       2.574   2.060  18.906  0.00  0.00    +0.000 A 
ATOM     14  C   UNL     1       1.461   2.694  18.355  0.00  0.00    +0.000 A 
ATOM     15  C   UNL     1       1.540   4.033  18.005  0.00  0.00    +0.000 A 
ATOM     16  C   UNL     1       2.744   4.723  18.177  0.00  0.00    +0.000 A 
ATOM     17  C   UNL     1       3.887   4.098  18.720  0.00  0.00    +0.000 A 
BRANCH  12  19
ATOM     18  C   UNL     1       4.600   1.641  21.058  0.00  0.00    +0.000 C 
ATOM     19  O   UNL     1       4.852   2.178  19.762  0.00  0.00    +0.000 OA
ENDBRANCH  12  19
ENDBRANCH  11  17
ENDBRANCH   1  11
BRANCH   5  20
ATOM     20  C   UNL     1       7.660   7.196  18.107  0.00  0.00    +0.000 C 
BRANCH  20  21
ATOM     21  O   UNL     1       8.151   8.284  17.322  0.00  0.00    +0.000 OA
BRANCH  21  22
ATOM     22  C   UNL     1       7.838   9.559  17.892  0.00  0.00    +0.000 C 
BRANCH  22  23
ATOM     23  C   UNL     1       9.064  10.055  18.656  0.00  0.00    +0.000 C 
BRANCH  23  24
ATOM     24  O   UNL     1       9.895  10.880  17.818  0.00  0.00    +0.000 OA
BRANCH  24  25
ATOM     25  C   UNL     1      10.385  11.999  18.410  0.00  0.00    +0.000 C 
ATOM     26  C   UNL     1      11.771  12.294  17.924  0.00  0.00    +0.000 C 
ATOM     27  O   UNL     1       9.787  12.684  19.228  0.00  0.00    +0.000 OA
ENDBRANCH  24  25
ENDBRANCH  23  24
ENDBRANCH  22  23
ENDBRANCH  21  22
ENDBRANCH  20  21
ENDBRANCH   5  20
TORSDOF 10
ENDMDL
MODEL 4
REMARK VINA RESULT:      -7.0      4.060      6.638
REMARK  Name = 
REMARK  12 active torsions:
REMARK  status: ('A' for Active; 'I' for Inactive)
REMARK    1  A    between atoms: C_1  and  O_2
REMARK    2  A    between atoms: O_2  and  C_3
REMARK    3  A    between atoms: C_8  and  S_9
REMARK    4  A    between atoms: S_9  and  C_10
REMARK    5  A    between atoms: C_12  and  C_13
REMARK    6  A    between atoms: N_17  and  C_18
REMARK    7  A    between atoms: C_18  and  O_19
REMARK    8  A    between atoms: O_19  and  C_20
REMARK    9  A    between atoms: C_20  and  C_21
REMARK   10  A    between atoms: C_21  and  O_22
REMARK   11  A    between atoms: O_22  and  C_23
REMARK   12  A    between atoms: C_23  and  C_24
REMARK                            x       y       z     vdW  Elec       q    Type
REMARK                         _______ _______ _______ _____ _____    ______ ____
ROOT
ATOM      1  C   UNL     1       4.081   5.594  18.418  0.00  0.00    +0.000 A 
ATOM      2  N   UNL     1       5.380   5.752  18.253  0.00  0.00    +0.000 NA
ATOM      3  C   UNL     1       5.643   5.048  17.078  0.00  0.00    +0.000 A 
ATOM      4  N   UNL     1       4.554   4.478  16.533  0.00  0.00    +0.000 NA
ATOM      5  N   UNL     1       3.590   4.798  17.422  0.00  0.00    +0.000 N 
ENDROOT
BRANCH   3   6
ATOM      6  C   UNL     1       6.992   4.862  16.505  0.00  0.00    +0.000 C 
ATOM      7  N   UNL     1       7.140   5.295  15.212  0.00  0.00    +0.000 N 
ATOM      8  O   UNL     1       7.955   4.391  17.107  0.00  0.00    +0.000 OA
ATOM      9  H   UNL     1       6.373   5.753  14.741  0.00  0.00    +0.000 HD
ATOM     10  H   UNL     1       8.068   5.285  14.818  0.00  0.00    +0.000 HD
ENDBRANCH   3   6
BRANCH   1  11
ATOM     11  S   UNL     1       3.116   6.041  19.781  0.00  0.00    +0.000 S 
BRANCH  11  17
ATOM     12  C   UNL     1       1.487   8.380  20.130  0.00  0.00    +0.000 A 
ATOM     13  C   UNL     1       0.938   9.561  19.596  0.00  0.00    +0.000 A 
ATOM     14  C   UNL     1       1.193   9.950  18.282  0.00  0.00    +0.000 A 
ATOM     15  C   UNL     1       1.989   9.154  17.474  0.00  0.00    +0.000 A 
ATOM     16  C   UNL     1       2.501   7.953  17.976  0.00  0.00    +0.000 A 
ATOM     17  C   UNL     1       2.245   7.533  19.299  0.00  0.00    +0.000 A 
BRANCH  12  19
ATOM     18  C   UNL     1       1.330   9.103  22.385  0.00  0.00    +0.000 C 
ATOM     19  O   UNL     1       1.331   8.028  21.449  0.00  0.00    +0.000 OA
ENDBRANCH  12  19
ENDBRANCH  11  17
ENDBRANCH   1  11
BRANCH   5  20
ATOM     20  C   UNL     1       2.271   4.216  17.249  0.00  0.00    +0.000 C 
BRANCH  20  21
ATOM     21  O   UNL     1       2.349   2.820  16.958  0.00  0.00    +0.000 OA
BRANCH  21  22
ATOM     22  C   UNL     1       2.162   2.005  18.120  0.00  0.00    +0.000 C 
BRANCH  22  23
ATOM     23  C   UNL     1       3.506   1.378  18.484  0.00  0.00    +0.000 C 
BRANCH  23  24
ATOM     24  O   UNL     1       4.322   2.302  19.229  0.00  0.00    +0.000 OA
BRANCH  24  25
ATOM     25  C   UNL     1       4.319   2.122  20.575  0.00  0.00    +0.000 C 
ATOM     26  C   UNL     1       3.032   2.605  21.171  0.00  0.00    +0.000 C 
ATOM     27  O   UNL     1       5.232   1.634  21.225  0.00  0.00    +0.000 OA
ENDBRANCH  24  25
ENDBRANCH  23  24
ENDBRANCH  22  23
ENDBRANCH  21  22
ENDBRANCH  20  21
ENDBRANCH   5  20
TORSDOF 10
ENDMDL
MODEL 5
REMARK VINA RESULT:      -7.0      2.821      6.996
REMARK  Name = 
REMARK  12 active torsions:
REMARK  status: ('A' for Active; 'I' for Inactive)
REMARK    1  A    between atoms: C_1  and  O_2
REMARK    2  A    between atoms: O_2  and  C_3
REMARK    3  A    between atoms: C_8  and  S_9
REMARK    4  A    between atoms: S_9  and  C_10
REMARK    5  A    between atoms: C_12  and  C_13
REMARK    6  A    between atoms: N_17  and  C_18
REMARK    7  A    between atoms: C_18  and  O_19
REMARK    8  A    between atoms: O_19  and  C_20
REMARK    9  A    between atoms: C_20  and  C_21
REMARK   10  A    between atoms: C_21  and  O_22
REMARK   11  A    between atoms: O_22  and  C_23
REMARK   12  A    between atoms: C_23  and  C_24
REMARK                            x       y       z     vdW  Elec       q    Type
REMARK                         _______ _______ _______ _____ _____    ______ ____
ROOT
ATOM      1  C   UNL     1       5.364   4.917  16.765  0.00  0.00    +0.000 A 
ATOM      2  N   UNL     1       5.707   5.837  17.645  0.00  0.00    +0.000 NA
ATOM      3  C   UNL     1       6.877   6.374  17.108  0.00  0.00    +0.000 A 
ATOM      4  N   UNL     1       7.246   5.815  15.943  0.00  0.00    +0.000 NA
ATOM      5  N   UNL     1       6.301   4.866  15.771  0.00  0.00    +0.000 N 
ENDROOT
BRANCH   3   6
ATOM      6  C   UNL     1       7.699   7.407  17.773  0.00  0.00    +0.000 C 
ATOM      7  N   UNL     1       8.327   7.000  18.922  0.00  0.00    +0.000 N 
ATOM      8  O   UNL     1       7.869   8.551  17.353  0.00  0.00    +0.000 OA
ATOM      9  H   UNL     1       8.252   6.041  19.227  0.00  0.00    +0.000 HD
ATOM     10  H   UNL     1       8.981   7.638  19.350  0.00  0.00    +0.000 HD
ENDBRANCH   3   6
BRANCH   1  11
ATOM     11  S   UNL     1       4.115   3.729  16.894  0.00  0.00    +0.000 S 
BRANCH  11  17
ATOM     12  C   UNL     1       2.507   4.920  18.953  0.00  0.00    +0.000 A 
ATOM     13  C   UNL     1       1.993   4.876  20.263  0.00  0.00    +0.000 A 
ATOM     14  C   UNL     1       2.303   3.828  21.129  0.00  0.00    +0.000 A 
ATOM     15  C   UNL     1       3.146   2.814  20.702  0.00  0.00    +0.000 A 
ATOM     16  C   UNL     1       3.703   2.871  19.421  0.00  0.00    +0.000 A 
ATOM     17  C   UNL     1       3.414   3.929  18.532  0.00  0.00    +0.000 A 
BRANCH  12  19
ATOM     18  C   UNL     1       2.527   7.221  18.374  0.00  0.00    +0.000 C 
ATOM     19  O   UNL     1       2.137   5.889  18.051  0.00  0.00    +0.000 OA
ENDBRANCH  12  19
ENDBRANCH  11  17
ENDBRANCH   1  11
BRANCH   5  20
ATOM     20  C   UNL     1       6.453   3.932  14.671  0.00  0.00    +0.000 C 
BRANCH  20  21
ATOM     21  O   UNL     1       5.643   4.303  13.555  0.00  0.00    +0.000 OA
BRANCH  21  22
ATOM     22  C   UNL     1       5.850   3.457  12.419  0.00  0.00    +0.000 C 
BRANCH  22  23
ATOM     23  C   UNL     1       4.487   3.112  11.825  0.00  0.00    +0.000 C 
BRANCH  23  24
ATOM     24  O   UNL     1       4.071   4.108  10.872  0.00  0.00    +0.000 OA
BRANCH  24  25
ATOM     25  C   UNL     1       3.115   3.708   9.995  0.00  0.00    +0.000 C 
ATOM     26  C   UNL     1       2.586   4.874   9.218  0.00  0.00    +0.000 C 
ATOM     27  O   UNL     1       2.729   2.558   9.848  0.00  0.00    +0.000 OA
ENDBRANCH  24  25
ENDBRANCH  23  24
ENDBRANCH  22  23
ENDBRANCH  21  22
ENDBRANCH  20  21
ENDBRANCH   5  20
TORSDOF 10
ENDMDL
MODEL 6
REMARK VINA RESULT:      -6.9      1.074      1.129
REMARK  Name = 
REMARK  12 active torsions:
REMARK  status: ('A' for Active; 'I' for Inactive)
REMARK    1  A    between atoms: C_1  and  O_2
REMARK    2  A    between atoms: O_2  and  C_3
REMARK    3  A    between atoms: C_8  and  S_9
REMARK    4  A    between atoms: S_9  and  C_10
REMARK    5  A    between atoms: C_12  and  C_13
REMARK    6  A    between atoms: N_17  and  C_18
REMARK    7  A    between atoms: C_18  and  O_19
REMARK    8  A    between atoms: O_19  and  C_20
REMARK    9  A    between atoms: C_20  and  C_21
REMARK   10  A    between atoms: C_21  and  O_22
REMARK   11  A    between atoms: O_22  and  C_23
REMARK   12  A    between atoms: C_23  and  C_24
REMARK                            x       y       z     vdW  Elec       q    Type
REMARK                         _______ _______ _______ _____ _____    ______ ____
ROOT
ATOM      1  C   UNL     1       6.440   4.774  17.552  0.00  0.00    +0.000 A 
ATOM      2  N   UNL     1       6.251   4.162  16.400  0.00  0.00    +0.000 NA
ATOM      3  C   UNL     1       6.940   4.967  15.492  0.00  0.00    +0.000 A 
ATOM      4  N   UNL     1       7.534   6.033  16.055  0.00  0.00    +0.000 NA
ATOM      5  N   UNL     1       7.164   5.915  17.349  0.00  0.00    +0.000 N 
ENDROOT
BRANCH   3   6
ATOM      6  C   UNL     1       6.967   4.739  14.032  0.00  0.00    +0.000 C 
ATOM      7  N   UNL     1       7.934   5.434  13.352  0.00  0.00    +0.000 N 
ATOM      8  O   UNL     1       6.224   3.969  13.426  0.00  0.00    +0.000 OA
ATOM      9  H   UNL     1       8.595   6.007  13.857  0.00  0.00    +0.000 HD
ATOM     10  H   UNL     1       8.057   5.229  12.373  0.00  0.00    +0.000 HD
ENDBRANCH   3   6
BRANCH   1  11
ATOM     11  S   UNL     1       5.702   4.430  19.077  0.00  0.00    +0.000 S 
BRANCH  11  17
ATOM     12  C   UNL     1       3.063   4.940  18.068  0.00  0.00    +0.000 A 
ATOM     13  C   UNL     1       1.760   4.477  17.800  0.00  0.00    +0.000 A 
ATOM     14  C   UNL     1       1.380   3.169  18.100  0.00  0.00    +0.000 A 
ATOM     15  C   UNL     1       2.292   2.308  18.689  0.00  0.00    +0.000 A 
ATOM     16  C   UNL     1       3.573   2.770  19.006  0.00  0.00    +0.000 A 
ATOM     17  C   UNL     1       3.977   4.093  18.724  0.00  0.00    +0.000 A 
BRANCH  12  19
ATOM     18  C   UNL     1       2.736   7.286  18.205  0.00  0.00    +0.000 C 
ATOM     19  O   UNL     1       3.489   6.190  17.692  0.00  0.00    +0.000 OA
ENDBRANCH  12  19
ENDBRANCH  11  17
ENDBRANCH   1  11
BRANCH   5  20
ATOM     20  C   UNL     1       7.497   6.992  18.263  0.00  0.00    +0.000 C 
BRANCH  20  21
ATOM     21  O   UNL     1       8.356   7.953  17.648  0.00  0.00    +0.000 OA
BRANCH  21  22
ATOM     22  C   UNL     1       7.911   9.298  17.851  0.00  0.00    +0.000 C 
BRANCH  22  23
ATOM     23  C   UNL     1       8.961  10.028  18.687  0.00  0.00    +0.000 C 
BRANCH  23  24
ATOM     24  O   UNL     1       9.768  10.889  17.863  0.00  0.00    +0.000 OA
BRANCH  24  25
ATOM     25  C   UNL     1       9.748  12.203  18.206  0.00  0.00    +0.000 C 
ATOM     26  C   UNL     1       8.494  12.861  17.716  0.00  0.00    +0.000 C 
ATOM     27  O   UNL     1      10.625  12.784  18.830  0.00  0.00    +0.000 OA
ENDBRANCH  24  25
ENDBRANCH  23  24
ENDBRANCH  22  23
ENDBRANCH  21  22
ENDBRANCH  20  21
ENDBRANCH   5  20
TORSDOF 10
ENDMDL
MODEL 7
REMARK VINA RESULT:      -6.8      4.244      7.944
REMARK  Name = 
REMARK  12 active torsions:
REMARK  status: ('A' for Active; 'I' for Inactive)
REMARK    1  A    between atoms: C_1  and  O_2
REMARK    2  A    between atoms: O_2  and  C_3
REMARK    3  A    between atoms: C_8  and  S_9
REMARK    4  A    between atoms: S_9  and  C_10
REMARK    5  A    between atoms: C_12  and  C_13
REMARK    6  A    between atoms: N_17  and  C_18
REMARK    7  A    between atoms: C_18  and  O_19
REMARK    8  A    between atoms: O_19  and  C_20
REMARK    9  A    between atoms: C_20  and  C_21
REMARK   10  A    between atoms: C_21  and  O_22
REMARK   11  A    between atoms: O_22  and  C_23
REMARK   12  A    between atoms: C_23  and  C_24
REMARK                            x       y       z     vdW  Elec       q    Type
REMARK                         _______ _______ _______ _____ _____    ______ ____
ROOT
ATOM      1  C   UNL     1       2.693   6.780  18.629  0.00  0.00    +0.000 A 
ATOM      2  N   UNL     1       2.382   7.983  18.189  0.00  0.00    +0.000 NA
ATOM      3  C   UNL     1       1.710   8.557  19.269  0.00  0.00    +0.000 A 
ATOM      4  N   UNL     1       1.609   7.746  20.337  0.00  0.00    +0.000 NA
ATOM      5  N   UNL     1       2.196   6.614  19.891  0.00  0.00    +0.000 N 
ENDROOT
BRANCH   3   6
ATOM      6  C   UNL     1       1.088   9.897  19.245  0.00  0.00    +0.000 C 
ATOM      7  N   UNL     1       0.898  10.428  17.995  0.00  0.00    +0.000 N 
ATOM      8  O   UNL     1       0.718  10.520  20.239  0.00  0.00    +0.000 OA
ATOM      9  H   UNL     1       1.130   9.887  17.175  0.00  0.00    +0.000 HD
ATOM     10  H   UNL     1       0.382  11.291  17.926  0.00  0.00    +0.000 HD
ENDBRANCH   3   6
BRANCH   1  11
ATOM     11  S   UNL     1       3.367   5.459  17.740  0.00  0.00    +0.000 S 
BRANCH  11  17
ATOM     12  C   UNL     1       6.058   6.058  16.938  0.00  0.00    +0.000 A 
ATOM     13  C   UNL     1       7.419   6.189  17.275  0.00  0.00    +0.000 A 
ATOM     14  C   UNL     1       7.871   5.957  18.573  0.00  0.00    +0.000 A 
ATOM     15  C   UNL     1       6.969   5.574  19.554  0.00  0.00    +0.000 A 
ATOM     16  C   UNL     1       5.624   5.391  19.222  0.00  0.00    +0.000 A 
ATOM     17  C   UNL     1       5.146   5.607  17.912  0.00  0.00    +0.000 A 
BRANCH  12  19
ATOM     18  C   UNL     1       5.636   5.338  14.717  0.00  0.00    +0.000 C 
ATOM     19  O   UNL     1       5.576   6.376  15.692  0.00  0.00    +0.000 OA
ENDBRANCH  12  19
ENDBRANCH  11  17
ENDBRANCH   1  11
BRANCH   5  20
ATOM     20  C   UNL     1       2.143   5.432  20.732  0.00  0.00    +0.000 C 
BRANCH  20  21
ATOM     21  O   UNL     1       0.909   4.731  20.572  0.00  0.00    +0.000 OA
BRANCH  21  22
ATOM     22  C   UNL     1       1.059   3.315  20.710  0.00  0.00    +0.000 C 
BRANCH  22  23
ATOM     23  C   UNL     1       1.214   2.712  19.315  0.00  0.00    +0.000 C 
BRANCH  23  24
ATOM     24  O   UNL     1       2.128   1.599  19.333  0.00  0.00    +0.000 OA
BRANCH  24  25
ATOM     25  C   UNL     1       3.363   1.856  18.831  0.00  0.00    +0.000 C 
ATOM     26  C   UNL     1       4.339   2.128  19.935  0.00  0.00    +0.000 C 
ATOM     27  O   UNL     1       3.655   1.866  17.644  0.00  0.00    +0.000 OA
ENDBRANCH  24  25
ENDBRANCH  23  24
ENDBRANCH  22  23
ENDBRANCH  21  22
ENDBRANCH  20  21
ENDBRANCH   5  20
TORSDOF 10
ENDMDL
MODEL 8
REMARK VINA RESULT:      -6.8      4.094      7.067
REMARK  Name = 
REMARK  12 active torsions:
REMARK  status: ('A' for Active; 'I' for Inactive)
REMARK    1  A    between atoms: C_1  and  O_2
REMARK    2  A    between atoms: O_2  and  C_3
REMARK    3  A    between atoms: C_8  and  S_9
REMARK    4  A    between atoms: S_9  and  C_10
REMARK    5  A    between atoms: C_12  and  C_13
REMARK    6  A    between atoms: N_17  and  C_18
REMARK    7  A    between atoms: C_18  and  O_19
REMARK    8  A    between atoms: O_19  and  C_20
REMARK    9  A    between atoms: C_20  and  C_21
REMARK   10  A    between atoms: C_21  and  O_22
REMARK   11  A    between atoms: O_22  and  C_23
REMARK   12  A    between atoms: C_23  and  C_24
REMARK                            x       y       z     vdW  Elec       q    Type
REMARK                         _______ _______ _______ _____ _____    ______ ____
ROOT
ATOM      1  C   UNL     1       3.735   5.738  18.757  0.00  0.00    +0.000 A 
ATOM      2  N   UNL     1       5.049   5.825  18.695  0.00  0.00    +0.000 NA
ATOM      3  C   UNL     1       5.364   5.110  17.539  0.00  0.00    +0.000 A 
ATOM      4  N   UNL     1       4.292   4.601  16.908  0.00  0.00    +0.000 NA
ATOM      5  N   UNL     1       3.280   4.971  17.721  0.00  0.00    +0.000 N 
ENDROOT
BRANCH   3   6
ATOM      6  C   UNL     1       6.742   4.852  17.071  0.00  0.00    +0.000 C 
ATOM      7  N   UNL     1       7.567   4.259  17.991  0.00  0.00    +0.000 N 
ATOM      8  O   UNL     1       7.160   5.099  15.941  0.00  0.00    +0.000 OA
ATOM      9  H   UNL     1       7.206   3.984  18.893  0.00  0.00    +0.000 HD
ATOM     10  H   UNL     1       8.482   3.968  17.681  0.00  0.00    +0.000 HD
ENDBRANCH   3   6
BRANCH   1  11
ATOM     11  S   UNL     1       2.691   6.235  20.043  0.00  0.00    +0.000 S 
BRANCH  11  17
ATOM     12  C   UNL     1       1.158   8.651  20.280  0.00  0.00    +0.000 A 
ATOM     13  C   UNL     1       0.733   9.873  19.723  0.00  0.00    +0.000 A 
ATOM     14  C   UNL     1       1.152  10.277  18.456  0.00  0.00    +0.000 A 
ATOM     15  C   UNL     1       1.991   9.457  17.718  0.00  0.00    +0.000 A 
ATOM     16  C   UNL     1       2.380   8.219  18.238  0.00  0.00    +0.000 A 
ATOM     17  C   UNL     1       1.958   7.783  19.512  0.00  0.00    +0.000 A 
BRANCH  12  19
ATOM     18  C   UNL     1       1.167   9.216  22.584  0.00  0.00    +0.000 C 
ATOM     19  O   UNL     1       0.839   8.278  21.563  0.00  0.00    +0.000 OA
ENDBRANCH  12  19
ENDBRANCH  11  17
ENDBRANCH   1  11
BRANCH   5  20
ATOM     20  C   UNL     1       1.949   4.463  17.443  0.00  0.00    +0.000 C 
BRANCH  20  21
ATOM     21  O   UNL     1       1.951   3.042  17.301  0.00  0.00    +0.000 OA
BRANCH  21  22
ATOM     22  C   UNL     1       1.007   2.401  18.165  0.00  0.00    +0.000 C 
BRANCH  22  23
ATOM     23  C   UNL     1       1.767   1.815  19.352  0.00  0.00    +0.000 C 
BRANCH  23  24
ATOM     24  O   UNL     1       1.426   2.501  20.572  0.00  0.00    +0.000 OA
BRANCH  24  25
ATOM     25  C   UNL     1       2.480   2.845  21.356  0.00  0.00    +0.000 C 
ATOM     26  C   UNL     1       3.776   2.573  20.654  0.00  0.00    +0.000 C 
ATOM     27  O   UNL     1       2.399   3.316  22.481  0.00  0.00    +0.000 OA
ENDBRANCH  24  25
ENDBRANCH  23  24
ENDBRANCH  22  23
ENDBRANCH  21  22
ENDBRANCH  20  21
ENDBRANCH   5  20
TORSDOF 10
ENDMDL
MODEL 9
REMARK VINA RESULT:      -6.8      1.516      1.731
REMARK  Name = 
REMARK  12 active torsions:
REMARK  status: ('A' for Active; 'I' for Inactive)
REMARK    1  A    between atoms: C_1  and  O_2
REMARK    2  A    between atoms: O_2  and  C_3
REMARK    3  A    between atoms: C_8  and  S_9
REMARK    4  A    between atoms: S_9  and  C_10
REMARK    5  A    between atoms: C_12  and  C_13
REMARK    6  A    between atoms: N_17  and  C_18
REMARK    7  A    between atoms: C_18  and  O_19
REMARK    8  A    between atoms: O_19  and  C_20
REMARK    9  A    between atoms: C_20  and  C_21
REMARK   10  A    between atoms: C_21  and  O_22
REMARK   11  A    between atoms: O_22  and  C_23
REMARK   12  A    between atoms: C_23  and  C_24
REMARK                            x       y       z     vdW  Elec       q    Type
REMARK                         _______ _______ _______ _____ _____    ______ ____
ROOT
ATOM      1  C   UNL     1       5.444   5.416  16.667  0.00  0.00    +0.000 A 
ATOM      2  N   UNL     1       5.390   5.238  15.362  0.00  0.00    +0.000 NA
ATOM      3  C   UNL     1       6.720   5.007  15.014  0.00  0.00    +0.000 A 
ATOM      4  N   UNL     1       7.567   5.040  16.057  0.00  0.00    +0.000 NA
ATOM      5  N   UNL     1       6.744   5.346  17.083  0.00  0.00    +0.000 N 
ENDROOT
BRANCH   3   6
ATOM      6  C   UNL     1       7.197   4.822  13.627  0.00  0.00    +0.000 C 
ATOM      7  N   UNL     1       8.206   5.666  13.240  0.00  0.00    +0.000 N 
ATOM      8  O   UNL     1       6.779   3.967  12.847  0.00  0.00    +0.000 OA
ATOM      9  H   UNL     1       8.603   6.316  13.902  0.00  0.00    +0.000 HD
ATOM     10  H   UNL     1       8.632   5.505  12.341  0.00  0.00    +0.000 HD
ENDBRANCH   3   6
BRANCH   1  11
ATOM     11  S   UNL     1       4.181   5.937  17.727  0.00  0.00    +0.000 S 
BRANCH  11  17
ATOM     12  C   UNL     1       2.131   4.372  18.989  0.00  0.00    +0.000 A 
ATOM     13  C   UNL     1       1.536   3.116  19.215  0.00  0.00    +0.000 A 
ATOM     14  C   UNL     1       2.044   1.957  18.631  0.00  0.00    +0.000 A 
ATOM     15  C   UNL     1       3.168   2.033  17.824  0.00  0.00    +0.000 A 
ATOM     16  C   UNL     1       3.799   3.266  17.631  0.00  0.00    +0.000 A 
ATOM     17  C   UNL     1       3.310   4.450  18.223  0.00  0.00    +0.000 A 
BRANCH  12  19
ATOM     18  C   UNL     1       1.680   5.729  20.883  0.00  0.00    +0.000 C 
ATOM     19  O   UNL     1       1.591   5.539  19.473  0.00  0.00    +0.000 OA
ENDBRANCH  12  19
ENDBRANCH  11  17
ENDBRANCH   1  11
BRANCH   5  20
ATOM     20  C   UNL     1       7.331   5.622  18.381  0.00  0.00    +0.000 C 
BRANCH  20  21
ATOM     21  O   UNL     1       8.069   6.845  18.371  0.00  0.00    +0.000 OA
BRANCH  21  22
ATOM     22  C   UNL     1       7.354   7.914  17.743  0.00  0.00    +0.000 C 
BRANCH  22  23
ATOM     23  C   UNL     1       8.265   9.139  17.702  0.00  0.00    +0.000 C 
BRANCH  23  24
ATOM     24  O   UNL     1       8.878   9.368  18.985  0.00  0.00    +0.000 OA
BRANCH  24  25
ATOM     25  C   UNL     1       9.464  10.584  19.137  0.00  0.00    +0.000 C 
ATOM     26  C   UNL     1       9.481  10.988  20.580  0.00  0.00    +0.000 C 
ATOM     27  O   UNL     1       9.920  11.267  18.231  0.00  0.00    +0.000 OA
ENDBRANCH  24  25
ENDBRANCH  23  24
ENDBRANCH  22  23
ENDBRANCH  21  22
ENDBRANCH  20  21
ENDBRANCH   5  20
TORSDOF 10
ENDMDL
