MODEL 1
REMARK VINA RESULT:      -8.0      0.000      0.000
REMARK  Name = 
REMARK  6 active torsions:
REMARK  status: ('A' for Active; 'I' for Inactive)
REMARK    1  A    between atoms: C_1  and  O_2
REMARK    2  A    between atoms: O_2  and  C_3
REMARK    3  A    between atoms: C_7  and  C_8
REMARK    4  A    between atoms: C_8  and  N_9
REMARK    5  A    between atoms: C_10  and  C_12
REMARK    6  A    between atoms: C_12  and  C_13
REMARK                            x       y       z     vdW  Elec       q    Type
REMARK                         _______ _______ _______ _____ _____    ______ ____
ROOT
ATOM      1  C   UNL     1       6.560   5.121  16.545  0.00  0.00    +0.000 C 
ATOM      2  C   UNL     1       6.724   5.918  15.240  0.00  0.00    +0.000 C 
ATOM      3  C   UNL     1       7.038   4.988  14.069  0.00  0.00    +0.000 C 
ATOM      4  C   UNL     1       5.979   3.899  13.949  0.00  0.00    +0.000 C 
ATOM      5  C   UNL     1       5.828   3.123  15.254  0.00  0.00    +0.000 C 
ATOM      6  N   UNL     1       5.514   4.060  16.336  0.00  0.00    +0.000 N 
ATOM      7  C   UNL     1       4.439   3.831  17.186  0.00  0.00    +0.000 A 
ATOM      8  C   UNL     1       3.934   2.562  17.415  0.00  0.00    +0.000 A 
ATOM      9  C   UNL     1       2.898   2.426  18.317  0.00  0.00    +0.000 A 
ATOM     10  N   UNL     1       2.364   3.448  18.999  0.00  0.00    +0.000 NA
ATOM     11  C   UNL     1       2.885   4.653  18.721  0.00  0.00    +0.000 A 
ATOM     12  N   UNL     1       2.406   5.766  19.464  0.00  0.00    +0.000 N 
ATOM     13  C   UNL     1       2.769   7.089  19.319  0.00  0.00    +0.000 A 
ATOM     14  C   UNL     1       2.063   7.778  20.276  0.00  0.00    +0.000 A 
ATOM     15  N   UNL     1       1.287   6.926  21.014  0.00  0.00    +0.000 NA
ATOM     16  C   UNL     1       1.503   5.732  20.501  0.00  0.00    +0.000 A 
ATOM     17  N   UNL     1       3.872   4.874  17.825  0.00  0.00    +0.000 NA
ENDROOT
BRANCH   1  18
ATOM     18  C   UNL     1       6.310   6.018  17.746  0.00  0.00    +0.000 C 
BRANCH  18  20
ATOM     19  N   UNL     1       8.145   7.283  18.750  0.00  0.00    +0.000 N 
ATOM     20  C   UNL     1       7.412   6.124  18.771  0.00  0.00    +0.000 C 
ATOM     21  O   UNL     1       7.697   5.236  19.567  0.00  0.00    +0.000 OA
ATOM     22  H   UNL     1       8.935   7.291  19.385  0.00  0.00    +0.000 HD
BRANCH  19  23
ATOM     23  C   UNL     1       8.049   8.351  17.773  0.00  0.00    +0.000 C 
BRANCH  23  28
ATOM     24  C   UNL     1       8.865  12.057  18.012  0.00  0.00    +0.000 A 
ATOM     25  C   UNL     1       9.595  12.081  19.203  0.00  0.00    +0.000 A 
ATOM     26  C   UNL     1       9.780  10.917  19.945  0.00  0.00    +0.000 A 
ATOM     27  C   UNL     1       9.244   9.715  19.499  0.00  0.00    +0.000 A 
ATOM     28  C   UNL     1       8.499   9.675  18.319  0.00  0.00    +0.000 A 
ATOM     29  C   UNL     1       8.317  10.853  17.576  0.00  0.00    +0.000 A 
BRANCH  24  31
ATOM     30  C   UNL     1       9.154  14.418  18.095  0.00  0.00    +0.000 C 
ATOM     31  O   UNL     1       8.788  13.257  17.359  0.00  0.00    +0.000 OA
ENDBRANCH  24  31
ENDBRANCH  23  28
ENDBRANCH  19  23
ENDBRANCH  18  20
ENDBRANCH   1  18
TORSDOF 5
ENDMDL
MODEL 2
REMARK VINA RESULT:      -7.9      4.891      8.969
REMARK  Name = 
REMARK  6 active torsions:
REMARK  status: ('A' for Active; 'I' for Inactive)
REMARK    1  A    between atoms: C_1  and  O_2
REMARK    2  A    between atoms: O_2  and  C_3
REMARK    3  A    between atoms: C_7  and  C_8
REMARK    4  A    between atoms: C_8  and  N_9
REMARK    5  A    between atoms: C_10  and  C_12
REMARK    6  A    between atoms: C_12  and  C_13
REMARK                            x       y       z     vdW  Elec       q    Type
REMARK                         _______ _______ _______ _____ _____    ______ ____
ROOT
ATOM      1  C   UNL     1       0.766  10.248  20.418  0.00  0.00    +0.000 C 
ATOM      2  C   UNL     1       1.055   8.878  21.052  0.00  0.00    +0.000 C 
ATOM      3  C   UNL     1       1.150   8.990  22.573  0.00  0.00    +0.000 C 
ATOM      4  C   UNL     1      -0.106   9.635  23.145  0.00  0.00    +0.000 C 
ATOM      5  C   UNL     1      -0.378  10.992  22.499  0.00  0.00    +0.000 C 
ATOM      6  N   UNL     1      -0.474  10.822  21.047  0.00  0.00    +0.000 N 
ATOM      7  C   UNL     1      -1.553  11.337  20.341  0.00  0.00    +0.000 A 
ATOM      8  C   UNL     1      -2.295  12.413  20.803  0.00  0.00    +0.000 A 
ATOM      9  C   UNL     1      -3.316  12.891  20.007  0.00  0.00    +0.000 A 
ATOM     10  N   UNL     1      -3.620  12.387  18.803  0.00  0.00    +0.000 NA
ATOM     11  C   UNL     1      -2.878  11.338  18.418  0.00  0.00    +0.000 A 
ATOM     12  N   UNL     1      -3.109  10.806  17.121  0.00  0.00    +0.000 N 
ATOM     13  C   UNL     1      -2.494   9.716  16.541  0.00  0.00    +0.000 A 
ATOM     14  C   UNL     1      -3.027   9.613  15.278  0.00  0.00    +0.000 A 
ATOM     15  N   UNL     1      -3.939  10.609  15.054  0.00  0.00    +0.000 NA
ATOM     16  C   UNL     1      -3.977  11.300  16.176  0.00  0.00    +0.000 A 
ATOM     17  N   UNL     1      -1.887  10.789  19.156  0.00  0.00    +0.000 NA
ENDROOT
BRANCH   1  18
ATOM     18  C   UNL     1       0.727  10.189  18.900  0.00  0.00    +0.000 C 
BRANCH  18  20
ATOM     19  N   UNL     1       2.606   9.084  17.793  0.00  0.00    +0.000 N 
ATOM     20  C   UNL     1       2.044  10.277  18.170  0.00  0.00    +0.000 C 
ATOM     21  O   UNL     1       2.633  11.328  17.942  0.00  0.00    +0.000 OA
ATOM     22  H   UNL     1       3.532   9.165  17.389  0.00  0.00    +0.000 HD
BRANCH  19  23
ATOM     23  C   UNL     1       2.128   7.757  18.132  0.00  0.00    +0.000 C 
BRANCH  23  28
ATOM     24  C   UNL     1       5.112   5.982  16.581  0.00  0.00    +0.000 A 
ATOM     25  C   UNL     1       4.752   4.649  16.791  0.00  0.00    +0.000 A 
ATOM     26  C   UNL     1       3.579   4.328  17.469  0.00  0.00    +0.000 A 
ATOM     27  C   UNL     1       2.748   5.340  17.938  0.00  0.00    +0.000 A 
ATOM     28  C   UNL     1       3.100   6.678  17.751  0.00  0.00    +0.000 A 
ATOM     29  C   UNL     1       4.284   6.993  17.065  0.00  0.00    +0.000 A 
BRANCH  24  31
ATOM     30  C   UNL     1       6.911   4.994  15.376  0.00  0.00    +0.000 C 
ATOM     31  O   UNL     1       6.266   6.163  15.869  0.00  0.00    +0.000 OA
ENDBRANCH  24  31
ENDBRANCH  23  28
ENDBRANCH  19  23
ENDBRANCH  18  20
ENDBRANCH   1  18
TORSDOF 5
ENDMDL
MODEL 3
REMARK VINA RESULT:      -7.8      0.930      1.399
REMARK  Name = 
REMARK  6 active torsions:
REMARK  status: ('A' for Active; 'I' for Inactive)
REMARK    1  A    between atoms: C_1  and  O_2
REMARK    2  A    between atoms: O_2  and  C_3
REMARK    3  A    between atoms: C_7  and  C_8
REMARK    4  A    between atoms: C_8  and  N_9
REMARK    5  A    between atoms: C_10  and  C_12
REMARK    6  A    between atoms: C_12  and  C_13
REMARK                            x       y       z     vdW  Elec       q    Type
REMARK                         _______ _______ _______ _____ _____    ______ ____
ROOT
ATOM      1  C   UNL     1       6.588   5.123  16.641  0.00  0.00    +0.000 C 
ATOM      2  C   UNL     1       6.763   5.918  15.337  0.00  0.00    +0.000 C 
ATOM      3  C   UNL     1       7.093   4.986  14.171  0.00  0.00    +0.000 C 
ATOM      4  C   UNL     1       6.041   3.893  14.041  0.00  0.00    +0.000 C 
ATOM      5  C   UNL     1       5.878   3.119  15.347  0.00  0.00    +0.000 C 
ATOM      6  N   UNL     1       5.549   4.056  16.423  0.00  0.00    +0.000 N 
ATOM      7  C   UNL     1       4.465   3.825  17.261  0.00  0.00    +0.000 A 
ATOM      8  C   UNL     1       3.963   2.554  17.488  0.00  0.00    +0.000 A 
ATOM      9  C   UNL     1       2.918   2.415  18.379  0.00  0.00    +0.000 A 
ATOM     10  N   UNL     1       2.372   3.437  19.053  0.00  0.00    +0.000 NA
ATOM     11  C   UNL     1       2.890   4.644  18.778  0.00  0.00    +0.000 A 
ATOM     12  N   UNL     1       2.399   5.756  19.513  0.00  0.00    +0.000 N 
ATOM     13  C   UNL     1       2.757   7.080  19.369  0.00  0.00    +0.000 A 
ATOM     14  C   UNL     1       2.038   7.768  20.316  0.00  0.00    +0.000 A 
ATOM     15  N   UNL     1       1.258   6.914  21.048  0.00  0.00    +0.000 NA
ATOM     16  C   UNL     1       1.485   5.720  20.540  0.00  0.00    +0.000 A 
ATOM     17  N   UNL     1       3.887   4.866  17.892  0.00  0.00    +0.000 NA
ENDROOT
BRANCH   1  18
ATOM     18  C   UNL     1       6.321   6.021  17.838  0.00  0.00    +0.000 C 
BRANCH  18  20
ATOM     19  N   UNL     1       8.167   7.340  18.748  0.00  0.00    +0.000 N 
ATOM     20  C   UNL     1       7.434   6.184  18.842  0.00  0.00    +0.000 C 
ATOM     21  O   UNL     1       7.728   5.342  19.684  0.00  0.00    +0.000 OA
ATOM     22  H   UNL     1       8.964   7.383  19.372  0.00  0.00    +0.000 HD
BRANCH  19  23
ATOM     23  C   UNL     1       8.060   8.351  17.714  0.00  0.00    +0.000 C 
BRANCH  23  28
ATOM     24  C   UNL     1       9.448  11.124  19.915  0.00  0.00    +0.000 A 
ATOM     25  C   UNL     1       9.212  12.235  19.102  0.00  0.00    +0.000 A 
ATOM     26  C   UNL     1       8.654  12.083  17.835  0.00  0.00    +0.000 A 
ATOM     27  C   UNL     1       8.317  10.817  17.371  0.00  0.00    +0.000 A 
ATOM     28  C   UNL     1       8.559   9.693  18.164  0.00  0.00    +0.000 A 
ATOM     29  C   UNL     1       9.121   9.855  19.440  0.00  0.00    +0.000 A 
BRANCH  24  31
ATOM     30  C   UNL     1       9.828  12.749  21.610  0.00  0.00    +0.000 C 
ATOM     31  O   UNL     1       9.963  11.410  21.149  0.00  0.00    +0.000 OA
ENDBRANCH  24  31
ENDBRANCH  23  28
ENDBRANCH  19  23
ENDBRANCH  18  20
ENDBRANCH   1  18
TORSDOF 5
ENDMDL
MODEL 4
REMARK VINA RESULT:      -7.7      4.941      9.275
REMARK  Name = 
REMARK  6 active torsions:
REMARK  status: ('A' for Active; 'I' for Inactive)
REMARK    1  A    between atoms: C_1  and  O_2
REMARK    2  A    between atoms: O_2  and  C_3
REMARK    3  A    between atoms: C_7  and  C_8
REMARK    4  A    between atoms: C_8  and  N_9
REMARK    5  A    between atoms: C_10  and  C_12
REMARK    6  A    between atoms: C_12  and  C_13
REMARK                            x       y       z     vdW  Elec       q    Type
REMARK                         _______ _______ _______ _____ _____    ______ ____
ROOT
ATOM      1  C   UNL     1       0.721  10.329  20.424  0.00  0.00    +0.000 C 
ATOM      2  C   UNL     1       1.051   8.960  21.041  0.00  0.00    +0.000 C 
ATOM      3  C   UNL     1       1.133   9.055  22.564  0.00  0.00    +0.000 C 
ATOM      4  C   UNL     1      -0.147   9.650  23.136  0.00  0.00    +0.000 C 
ATOM      5  C   UNL     1      -0.460  11.005  22.507  0.00  0.00    +0.000 C 
ATOM      6  N   UNL     1      -0.542  10.853  21.052  0.00  0.00    +0.000 N 
ATOM      7  C   UNL     1      -1.633  11.342  20.346  0.00  0.00    +0.000 A 
ATOM      8  C   UNL     1      -2.412  12.386  20.818  0.00  0.00    +0.000 A 
ATOM      9  C   UNL     1      -3.444  12.841  20.022  0.00  0.00    +0.000 A 
ATOM     10  N   UNL     1      -3.723  12.345  18.809  0.00  0.00    +0.000 NA
ATOM     11  C   UNL     1      -2.944  11.326  18.415  0.00  0.00    +0.000 A 
ATOM     12  N   UNL     1      -3.149  10.805  17.109  0.00  0.00    +0.000 N 
ATOM     13  C   UNL     1      -2.495   9.744  16.518  0.00  0.00    +0.000 A 
ATOM     14  C   UNL     1      -3.016   9.641  15.250  0.00  0.00    +0.000 A 
ATOM     15  N   UNL     1      -3.959  10.610  15.034  0.00  0.00    +0.000 NA
ATOM     16  C   UNL     1      -4.027  11.284  16.164  0.00  0.00    +0.000 A 
ATOM     17  N   UNL     1      -1.941  10.800  19.151  0.00  0.00    +0.000 NA
ENDROOT
BRANCH   1  18
ATOM     18  C   UNL     1       0.694  10.289  18.905  0.00  0.00    +0.000 C 
BRANCH  18  20
ATOM     19  N   UNL     1       2.575   9.168  17.820  0.00  0.00    +0.000 N 
ATOM     20  C   UNL     1       2.018  10.366  18.187  0.00  0.00    +0.000 C 
ATOM     21  O   UNL     1       2.616  11.412  17.960  0.00  0.00    +0.000 OA
ATOM     22  H   UNL     1       3.505   9.241  17.424  0.00  0.00    +0.000 HD
BRANCH  19  23
ATOM     23  C   UNL     1       2.086   7.845  18.160  0.00  0.00    +0.000 C 
BRANCH  23  28
ATOM     24  C   UNL     1       3.740   4.432  17.887  0.00  0.00    +0.000 A 
ATOM     25  C   UNL     1       4.961   4.787  17.308  0.00  0.00    +0.000 A 
ATOM     26  C   UNL     1       5.227   6.111  16.967  0.00  0.00    +0.000 A 
ATOM     27  C   UNL     1       4.276   7.096  17.209  0.00  0.00    +0.000 A 
ATOM     28  C   UNL     1       3.044   6.757  17.772  0.00  0.00    +0.000 A 
ATOM     29  C   UNL     1       2.784   5.421  18.114  0.00  0.00    +0.000 A 
BRANCH  24  31
ATOM     30  C   UNL     1       2.497   2.414  17.675  0.00  0.00    +0.000 C 
ATOM     31  O   UNL     1       3.618   3.109  18.211  0.00  0.00    +0.000 OA
ENDBRANCH  24  31
ENDBRANCH  23  28
ENDBRANCH  19  23
ENDBRANCH  18  20
ENDBRANCH   1  18
TORSDOF 5
ENDMDL
MODEL 5
REMARK VINA RESULT:      -7.6      5.515      9.412
REMARK  Name = 
REMARK  6 active torsions:
REMARK  status: ('A' for Active; 'I' for Inactive)
REMARK    1  A    between atoms: C_1  and  O_2
REMARK    2  A    between atoms: O_2  and  C_3
REMARK    3  A    between atoms: C_7  and  C_8
REMARK    4  A    between atoms: C_8  and  N_9
REMARK    5  A    between atoms: C_10  and  C_12
REMARK    6  A    between atoms: C_12  and  C_13
REMARK                            x       y       z     vdW  Elec       q    Type
REMARK                         _______ _______ _______ _____ _____    ______ ____
ROOT
ATOM      1  C   UNL     1      -1.275  10.415  18.491  0.00  0.00    +0.000 C 
ATOM      2  C   UNL     1      -1.725  10.006  17.079  0.00  0.00    +0.000 C 
ATOM      3  C   UNL     1      -3.248   9.922  16.996  0.00  0.00    +0.000 C 
ATOM      4  C   UNL     1      -3.885  11.230  17.446  0.00  0.00    +0.000 C 
ATOM      5  C   UNL     1      -3.422  11.621  18.848  0.00  0.00    +0.000 C 
ATOM      6  N   UNL     1      -1.960  11.701  18.866  0.00  0.00    +0.000 N 
ATOM      7  C   UNL     1      -1.315  12.821  19.375  0.00  0.00    +0.000 A 
ATOM      8  C   UNL     1      -1.907  13.655  20.310  0.00  0.00    +0.000 A 
ATOM      9  C   UNL     1      -1.169  14.714  20.799  0.00  0.00    +0.000 A 
ATOM     10  N   UNL     1       0.095  14.972  20.436  0.00  0.00    +0.000 NA
ATOM     11  C   UNL     1       0.606  14.140  19.517  0.00  0.00    +0.000 A 
ATOM     12  N   UNL     1       1.966  14.322  19.144  0.00  0.00    +0.000 N 
ATOM     13  C   UNL     1       2.678  13.614  18.200  0.00  0.00    +0.000 A 
ATOM     14  C   UNL     1       3.950  14.135  18.221  0.00  0.00    +0.000 A 
ATOM     15  N   UNL     1       4.050  15.131  19.154  0.00  0.00    +0.000 NA
ATOM     16  C   UNL     1       2.848  15.230  19.683  0.00  0.00    +0.000 A 
ATOM     17  N   UNL     1      -0.063  13.105  18.962  0.00  0.00    +0.000 NA
ENDROOT
BRANCH   1  18
ATOM     18  C   UNL     1       0.238  10.448  18.632  0.00  0.00    +0.000 C 
BRANCH  18  20
ATOM     19  N   UNL     1       1.816   8.695  19.274  0.00  0.00    +0.000 N 
ATOM     20  C   UNL     1       0.852   9.574  19.698  0.00  0.00    +0.000 C 
ATOM     21  O   UNL     1       0.513   9.588  20.876  0.00  0.00    +0.000 OA
ATOM     22  H   UNL     1       2.146   8.057  19.990  0.00  0.00    +0.000 HD
BRANCH  19  23
ATOM     23  C   UNL     1       2.210   8.436  17.903  0.00  0.00    +0.000 C 
BRANCH  23  28
ATOM     24  C   UNL     1       5.016   6.107  16.823  0.00  0.00    +0.000 A 
ATOM     25  C   UNL     1       4.517   4.882  17.274  0.00  0.00    +0.000 A 
ATOM     26  C   UNL     1       3.307   4.818  17.962  0.00  0.00    +0.000 A 
ATOM     27  C   UNL     1       2.580   5.979  18.199  0.00  0.00    +0.000 A 
ATOM     28  C   UNL     1       3.070   7.213  17.770  0.00  0.00    +0.000 A 
ATOM     29  C   UNL     1       4.290   7.269  17.076  0.00  0.00    +0.000 A 
BRANCH  24  31
ATOM     30  C   UNL     1       6.904   4.801  16.199  0.00  0.00    +0.000 C 
ATOM     31  O   UNL     1       6.191   6.031  16.129  0.00  0.00    +0.000 OA
ENDBRANCH  24  31
ENDBRANCH  23  28
ENDBRANCH  19  23
ENDBRANCH  18  20
ENDBRANCH   1  18
TORSDOF 5
ENDMDL
MODEL 6
REMARK VINA RESULT:      -7.6      5.633      9.697
REMARK  Name = 
REMARK  6 active torsions:
REMARK  status: ('A' for Active; 'I' for Inactive)
REMARK    1  A    between atoms: C_1  and  O_2
REMARK    2  A    between atoms: O_2  and  C_3
REMARK    3  A    between atoms: C_7  and  C_8
REMARK    4  A    between atoms: C_8  and  N_9
REMARK    5  A    between atoms: C_10  and  C_12
REMARK    6  A    between atoms: C_12  and  C_13
REMARK                            x       y       z     vdW  Elec       q    Type
REMARK                         _______ _______ _______ _____ _____    ______ ____
ROOT
ATOM      1  C   UNL     1      -1.517  10.380  18.307  0.00  0.00    +0.000 C 
ATOM      2  C   UNL     1      -1.925  10.046  16.864  0.00  0.00    +0.000 C 
ATOM      3  C   UNL     1      -3.445   9.956  16.734  0.00  0.00    +0.000 C 
ATOM      4  C   UNL     1      -4.105  11.233  17.237  0.00  0.00    +0.000 C 
ATOM      5  C   UNL     1      -3.684  11.550  18.670  0.00  0.00    +0.000 C 
ATOM      6  N   UNL     1      -2.222  11.640  18.732  0.00  0.00    +0.000 N 
ATOM      7  C   UNL     1      -1.601  12.735  19.318  0.00  0.00    +0.000 A 
ATOM      8  C   UNL     1      -2.225  13.512  20.281  0.00  0.00    +0.000 A 
ATOM      9  C   UNL     1      -1.510  14.548  20.846  0.00  0.00    +0.000 A 
ATOM     10  N   UNL     1      -0.239  14.834  20.533  0.00  0.00    +0.000 NA
ATOM     11  C   UNL     1       0.304  14.057  19.584  0.00  0.00    +0.000 A 
ATOM     12  N   UNL     1       1.671  14.269  19.259  0.00  0.00    +0.000 N 
ATOM     13  C   UNL     1       2.415  13.618  18.297  0.00  0.00    +0.000 A 
ATOM     14  C   UNL     1       3.681  14.146  18.381  0.00  0.00    +0.000 A 
ATOM     15  N   UNL     1       3.748  15.090  19.369  0.00  0.00    +0.000 NA
ATOM     16  C   UNL     1       2.531  15.152  19.870  0.00  0.00    +0.000 A 
ATOM     17  N   UNL     1      -0.342  13.049  18.956  0.00  0.00    +0.000 NA
ENDROOT
BRANCH   1  18
ATOM     18  C   UNL     1      -0.009  10.416  18.491  0.00  0.00    +0.000 C 
BRANCH  18  20
ATOM     19  N   UNL     1       1.594   8.835  19.444  0.00  0.00    +0.000 N 
ATOM     20  C   UNL     1       0.559   9.700  19.691  0.00  0.00    +0.000 C 
ATOM     21  O   UNL     1       0.126   9.823  20.832  0.00  0.00    +0.000 OA
ATOM     22  H   UNL     1       1.895   8.299  20.250  0.00  0.00    +0.000 HD
BRANCH  19  23
ATOM     23  C   UNL     1       2.109   8.451  18.143  0.00  0.00    +0.000 C 
BRANCH  23  28
ATOM     24  C   UNL     1       3.354   5.032  19.249  0.00  0.00    +0.000 A 
ATOM     25  C   UNL     1       4.498   4.910  18.456  0.00  0.00    +0.000 A 
ATOM     26  C   UNL     1       4.836   5.902  17.539  0.00  0.00    +0.000 A 
ATOM     27  C   UNL     1       4.037   7.033  17.412  0.00  0.00    +0.000 A 
ATOM     28  C   UNL     1       2.882   7.165  18.185  0.00  0.00    +0.000 A 
ATOM     29  C   UNL     1       2.549   6.160  19.107  0.00  0.00    +0.000 A 
BRANCH  24  31
ATOM     30  C   UNL     1       2.168   4.210  21.141  0.00  0.00    +0.000 C 
ATOM     31  O   UNL     1       3.154   4.010  20.135  0.00  0.00    +0.000 OA
ENDBRANCH  24  31
ENDBRANCH  23  28
ENDBRANCH  19  23
ENDBRANCH  18  20
ENDBRANCH   1  18
TORSDOF 5
ENDMDL
MODEL 7
REMARK VINA RESULT:      -7.5      4.217      9.098
REMARK  Name = 
REMARK  6 active torsions:
REMARK  status: ('A' for Active; 'I' for Inactive)
REMARK    1  A    between atoms: C_1  and  O_2
REMARK    2  A    between atoms: O_2  and  C_3
REMARK    3  A    between atoms: C_7  and  C_8
REMARK    4  A    between atoms: C_8  and  N_9
REMARK    5  A    between atoms: C_10  and  C_12
REMARK    6  A    between atoms: C_12  and  C_13
REMARK                            x       y       z     vdW  Elec       q    Type
REMARK                         _______ _______ _______ _____ _____    ______ ____
ROOT
ATOM      1  C   UNL     1       9.694  12.706  17.944  0.00  0.00    +0.000 C 
ATOM      2  C   UNL     1      11.138  12.187  18.040  0.00  0.00    +0.000 C 
ATOM      3  C   UNL     1      12.082  13.045  17.198  0.00  0.00    +0.000 C 
ATOM      4  C   UNL     1      11.971  14.512  17.592  0.00  0.00    +0.000 C 
ATOM      5  C   UNL     1      10.530  15.007  17.495  0.00  0.00    +0.000 C 
ATOM      6  N   UNL     1       9.674  14.160  18.331  0.00  0.00    +0.000 N 
ATOM      7  C   UNL     1       8.800  14.722  19.252  0.00  0.00    +0.000 A 
ATOM      8  C   UNL     1       8.306  16.009  19.115  0.00  0.00    +0.000 A 
ATOM      9  C   UNL     1       7.400  16.463  20.051  0.00  0.00    +0.000 A 
ATOM     10  N   UNL     1       6.954  15.724  21.077  0.00  0.00    +0.000 NA
ATOM     11  C   UNL     1       7.481  14.494  21.165  0.00  0.00    +0.000 A 
ATOM     12  N   UNL     1       6.996  13.640  22.192  0.00  0.00    +0.000 N 
ATOM     13  C   UNL     1       7.419  12.361  22.488  0.00  0.00    +0.000 A 
ATOM     14  C   UNL     1       6.635  11.940  23.535  0.00  0.00    +0.000 A 
ATOM     15  N   UNL     1       5.733  12.908  23.887  0.00  0.00    +0.000 NA
ATOM     16  C   UNL     1       5.979  13.917  23.076  0.00  0.00    +0.000 A 
ATOM     17  N   UNL     1       8.400  13.990  20.311  0.00  0.00    +0.000 NA
ENDROOT
BRANCH   1  18
ATOM     18  C   UNL     1       8.713  11.840  18.718  0.00  0.00    +0.000 C 
BRANCH  18  20
ATOM     19  N   UNL     1       9.021   9.450  19.127  0.00  0.00    +0.000 N 
ATOM     20  C   UNL     1       9.287  10.725  19.556  0.00  0.00    +0.000 C 
ATOM     21  O   UNL     1       9.924  10.902  20.589  0.00  0.00    +0.000 OA
ATOM     22  H   UNL     1       9.338   8.721  19.756  0.00  0.00    +0.000 HD
BRANCH  19  23
ATOM     23  C   UNL     1       8.150   9.069  18.032  0.00  0.00    +0.000 C 
BRANCH  23  28
ATOM     24  C   UNL     1       7.116   5.649  16.730  0.00  0.00    +0.000 A 
ATOM     25  C   UNL     1       7.354   4.864  17.861  0.00  0.00    +0.000 A 
ATOM     26  C   UNL     1       7.888   5.428  19.017  0.00  0.00    +0.000 A 
ATOM     27  C   UNL     1       8.182   6.786  19.056  0.00  0.00    +0.000 A 
ATOM     28  C   UNL     1       7.966   7.583  17.931  0.00  0.00    +0.000 A 
ATOM     29  C   UNL     1       7.426   7.007  16.770  0.00  0.00    +0.000 A 
BRANCH  24  31
ATOM     30  C   UNL     1       5.215   5.325  15.336  0.00  0.00    +0.000 C 
ATOM     31  O   UNL     1       6.554   4.985  15.674  0.00  0.00    +0.000 OA
ENDBRANCH  24  31
ENDBRANCH  23  28
ENDBRANCH  19  23
ENDBRANCH  18  20
ENDBRANCH   1  18
TORSDOF 5
ENDMDL
MODEL 8
REMARK VINA RESULT:      -7.4      6.902     11.321
REMARK  Name = 
REMARK  6 active torsions:
REMARK  status: ('A' for Active; 'I' for Inactive)
REMARK    1  A    between atoms: C_1  and  O_2
REMARK    2  A    between atoms: O_2  and  C_3
REMARK    3  A    between atoms: C_7  and  C_8
REMARK    4  A    between atoms: C_8  and  N_9
REMARK    5  A    between atoms: C_10  and  C_12
REMARK    6  A    between atoms: C_12  and  C_13
REMARK                            x       y       z     vdW  Elec       q    Type
REMARK                         _______ _______ _______ _____ _____    ______ ____
ROOT
ATOM      1  C   UNL     1      -2.724  13.354  21.748  0.00  0.00    +0.000 C 
ATOM      2  C   UNL     1      -2.437  12.503  22.995  0.00  0.00    +0.000 C 
ATOM      3  C   UNL     1      -3.315  12.941  24.167  0.00  0.00    +0.000 C 
ATOM      4  C   UNL     1      -4.787  12.912  23.777  0.00  0.00    +0.000 C 
ATOM      5  C   UNL     1      -5.050  13.759  22.534  0.00  0.00    +0.000 C 
ATOM      6  N   UNL     1      -4.195  13.286  21.442  0.00  0.00    +0.000 N 
ATOM      7  C   UNL     1      -4.731  12.998  20.193  0.00  0.00    +0.000 A 
ATOM      8  C   UNL     1      -5.906  13.577  19.740  0.00  0.00    +0.000 A 
ATOM      9  C   UNL     1      -6.333  13.271  18.464  0.00  0.00    +0.000 A 
ATOM     10  N   UNL     1      -5.667  12.462  17.629  0.00  0.00    +0.000 NA
ATOM     11  C   UNL     1      -4.547  11.920  18.130  0.00  0.00    +0.000 A 
ATOM     12  N   UNL     1      -3.763  11.108  17.268  0.00  0.00    +0.000 N 
ATOM     13  C   UNL     1      -2.605  10.427  17.581  0.00  0.00    +0.000 A 
ATOM     14  C   UNL     1      -2.204   9.814  16.419  0.00  0.00    +0.000 A 
ATOM     15  N   UNL     1      -3.066  10.103  15.395  0.00  0.00    +0.000 NA
ATOM     16  C   UNL     1      -3.994  10.869  15.933  0.00  0.00    +0.000 A 
ATOM     17  N   UNL     1      -4.083  12.139  19.381  0.00  0.00    +0.000 NA
ENDROOT
BRANCH   1  18
ATOM     18  C   UNL     1      -1.824  12.991  20.577  0.00  0.00    +0.000 C 
BRANCH  18  20
ATOM     19  N   UNL     1       0.372  11.935  20.768  0.00  0.00    +0.000 N 
ATOM     20  C   UNL     1      -0.335  13.110  20.787  0.00  0.00    +0.000 C 
ATOM     21  O   UNL     1       0.245  14.168  21.005  0.00  0.00    +0.000 OA
ATOM     22  H   UNL     1       1.353  12.032  21.003  0.00  0.00    +0.000 HD
BRANCH  19  23
ATOM     23  C   UNL     1      -0.178  10.595  20.692  0.00  0.00    +0.000 C 
BRANCH  23  28
ATOM     24  C   UNL     1       2.051   7.727  19.566  0.00  0.00    +0.000 A 
ATOM     25  C   UNL     1       2.381   8.153  18.276  0.00  0.00    +0.000 A 
ATOM     26  C   UNL     1       1.849   9.332  17.761  0.00  0.00    +0.000 A 
ATOM     27  C   UNL     1       0.987  10.103  18.533  0.00  0.00    +0.000 A 
ATOM     28  C   UNL     1       0.635   9.685  19.817  0.00  0.00    +0.000 A 
ATOM     29  C   UNL     1       1.176   8.496  20.331  0.00  0.00    +0.000 A 
BRANCH  24  31
ATOM     30  C   UNL     1       2.803   5.542  19.000  0.00  0.00    +0.000 C 
ATOM     31  O   UNL     1       2.669   6.575  19.968  0.00  0.00    +0.000 OA
ENDBRANCH  24  31
ENDBRANCH  23  28
ENDBRANCH  19  23
ENDBRANCH  18  20
ENDBRANCH   1  18
TORSDOF 5
ENDMDL
MODEL 9
REMARK VINA RESULT:      -7.3      6.245     10.356
REMARK  Name = 
REMARK  6 active torsions:
REMARK  status: ('A' for Active; 'I' for Inactive)
REMARK    1  A    between atoms: C_1  and  O_2
REMARK    2  A    between atoms: O_2  and  C_3
REMARK    3  A    between atoms: C_7  and  C_8
REMARK    4  A    between atoms: C_8  and  N_9
REMARK    5  A    between atoms: C_10  and  C_12
REMARK    6  A    between atoms: C_12  and  C_13
REMARK                            x       y       z     vdW  Elec       q    Type
REMARK                         _______ _______ _______ _____ _____    ______ ____
ROOT
ATOM      1  C   UNL     1      -1.293  12.756  20.594  0.00  0.00    +0.000 C 
ATOM      2  C   UNL     1      -0.600  11.806  21.585  0.00  0.00    +0.000 C 
ATOM      3  C   UNL     1      -1.059  12.083  23.016  0.00  0.00    +0.000 C 
ATOM      4  C   UNL     1      -2.577  12.012  23.117  0.00  0.00    +0.000 C 
ATOM      5  C   UNL     1      -3.246  12.958  22.123  0.00  0.00    +0.000 C 
ATOM      6  N   UNL     1      -2.782  12.638  20.770  0.00  0.00    +0.000 N 
ATOM      7  C   UNL     1      -3.688  12.442  19.736  0.00  0.00    +0.000 A 
ATOM      8  C   UNL     1      -4.957  12.997  19.748  0.00  0.00    +0.000 A 
ATOM      9  C   UNL     1      -5.769  12.792  18.651  0.00  0.00    +0.000 A 
ATOM     10  N   UNL     1      -5.394  12.103  17.565  0.00  0.00    +0.000 NA
ATOM     11  C   UNL     1      -4.161  11.577  17.620  0.00  0.00    +0.000 A 
ATOM     12  N   UNL     1      -3.682  10.893  16.469  0.00  0.00    +0.000 N 
ATOM     13  C   UNL     1      -2.473  10.249  16.320  0.00  0.00    +0.000 A 
ATOM     14  C   UNL     1      -2.458   9.772  15.031  0.00  0.00    +0.000 A 
ATOM     15  N   UNL     1      -3.611  10.111  14.376  0.00  0.00    +0.000 NA
ATOM     16  C   UNL     1      -4.329  10.771  15.262  0.00  0.00    +0.000 A 
ATOM     17  N   UNL     1      -3.321  11.700  18.672  0.00  0.00    +0.000 NA
ENDROOT
BRANCH   1  18
ATOM     18  C   UNL     1      -0.814  12.555  19.165  0.00  0.00    +0.000 C 
BRANCH  18  20
ATOM     19  N   UNL     1       1.253  11.518  18.373  0.00  0.00    +0.000 N 
ATOM     20  C   UNL     1       0.671  12.636  18.916  0.00  0.00    +0.000 C 
ATOM     21  O   UNL     1       1.364  13.607  19.202  0.00  0.00    +0.000 OA
ATOM     22  H   UNL     1       2.263  11.564  18.302  0.00  0.00    +0.000 HD
BRANCH  19  23
ATOM     23  C   UNL     1       0.614  10.238  18.134  0.00  0.00    +0.000 C 
BRANCH  23  28
ATOM     24  C   UNL     1       2.830   7.150  18.251  0.00  0.00    +0.000 A 
ATOM     25  C   UNL     1       2.670   6.773  19.587  0.00  0.00    +0.000 A 
ATOM     26  C   UNL     1       1.891   7.538  20.452  0.00  0.00    +0.000 A 
ATOM     27  C   UNL     1       1.257   8.684  19.988  0.00  0.00    +0.000 A 
ATOM     28  C   UNL     1       1.417   9.084  18.660  0.00  0.00    +0.000 A 
ATOM     29  C   UNL     1       2.203   8.308  17.794  0.00  0.00    +0.000 A 
BRANCH  24  31
ATOM     30  C   UNL     1       4.928   6.078  17.917  0.00  0.00    +0.000 C 
ATOM     31  O   UNL     1       3.586   6.296  17.497  0.00  0.00    +0.000 OA
ENDBRANCH  24  31
ENDBRANCH  23  28
ENDBRANCH  19  23
ENDBRANCH  18  20
ENDBRANCH   1  18
TORSDOF 5
ENDMDL
