MODEL 1
REMARK VINA RESULT:      -7.9      0.000      0.000
REMARK  Name = 
REMARK  4 active torsions:
REMARK  status: ('A' for Active; 'I' for Inactive)
REMARK    1  A    between atoms: C_4  and  C_5
REMARK    2  A    between atoms: C_8  and  C_9
REMARK    3  A    between atoms: N_11  and  C_12
REMARK    4  A    between atoms: C_12  and  C_13
REMARK                            x       y       z     vdW  Elec       q    Type
REMARK                         _______ _______ _______ _____ _____    ______ ____
ROOT
ATOM      1  C   UNL     1       4.551   5.625  18.833  0.00  0.00    +0.000 C 
ATOM      2  C   UNL     1       3.777   6.901  18.421  0.00  0.00    +0.000 C 
ATOM      3  N   UNL     1       2.509   6.261  18.842  0.00  0.00    +0.000 NA
ATOM      4  C   UNL     1       3.172   4.943  18.676  0.00  0.00    +0.000 C 
ENDROOT
BRANCH   1   8
ATOM      5  C   UNL     1       6.615   4.795  16.034  0.00  0.00    +0.000 A 
ATOM      6  N   UNL     1       7.477   4.393  16.984  0.00  0.00    +0.000 NA
ATOM      7  O   UNL     1       6.806   4.651  18.174  0.00  0.00    +0.000 OA
ATOM      8  C   UNL     1       5.600   5.192  17.837  0.00  0.00    +0.000 A 
ATOM      9  N   UNL     1       5.436   5.305  16.540  0.00  0.00    +0.000 NA
BRANCH   5  13
ATOM     10  C   UNL     1       7.294   4.413  11.960  0.00  0.00    +0.000 A 
ATOM     11  C   UNL     1       8.004   5.331  12.713  0.00  0.00    +0.000 A 
ATOM     12  N   UNL     1       7.800   5.499  14.041  0.00  0.00    +0.000 NA
ATOM     13  C   UNL     1       6.863   4.694  14.598  0.00  0.00    +0.000 A 
ATOM     14  C   UNL     1       6.158   3.764  13.834  0.00  0.00    +0.000 A 
ATOM     15  N   UNL     1       6.354   3.606  12.500  0.00  0.00    +0.000 NA
ENDBRANCH   5  13
ENDBRANCH   1   8
BRANCH   3  16
ATOM     16  C   UNL     1       2.218   6.543  20.259  0.00  0.00    +0.000 C 
BRANCH  16  17
ATOM     17  C   UNL     1       1.504   7.869  20.436  0.00  0.00    +0.000 A 
ATOM     18  C   UNL     1       1.469   8.807  19.379  0.00  0.00    +0.000 A 
ATOM     19  C   UNL     1       0.835  10.044  19.544  0.00  0.00    +0.000 A 
ATOM     20  C   UNL     1       0.235  10.307  20.753  0.00  0.00    +0.000 A 
ATOM     21  C   UNL     1       0.247   9.387  21.797  0.00  0.00    +0.000 A 
ATOM     22  C   UNL     1       0.884   8.172  21.658  0.00  0.00    +0.000 A 
ATOM     23  C   UNL     1      -0.420   9.984  22.972  0.00  0.00    +0.000 C 
ATOM     24  C   UNL     1      -1.096  11.179  22.293  0.00  0.00    +0.000 C 
ATOM     25  O   UNL     1      -0.408  11.480  21.061  0.00  0.00    +0.000 OA
ENDBRANCH  16  17
ENDBRANCH   3  16
TORSDOF 4
ENDMDL
MODEL 2
REMARK VINA RESULT:      -7.8      2.827      9.422
REMARK  Name = 
REMARK  4 active torsions:
REMARK  status: ('A' for Active; 'I' for Inactive)
REMARK    1  A    between atoms: C_4  and  C_5
REMARK    2  A    between atoms: C_8  and  C_9
REMARK    3  A    between atoms: N_11  and  C_12
REMARK    4  A    between atoms: C_12  and  C_13
REMARK                            x       y       z     vdW  Elec       q    Type
REMARK                         _______ _______ _______ _____ _____    ______ ____
ROOT
ATOM      1  C   UNL     1       2.946   6.463  19.337  0.00  0.00    +0.000 C 
ATOM      2  C   UNL     1       2.256   5.187  19.879  0.00  0.00    +0.000 C 
ATOM      3  N   UNL     1       2.734   4.434  18.696  0.00  0.00    +0.000 NA
ATOM      4  C   UNL     1       2.860   5.728  17.979  0.00  0.00    +0.000 C 
ENDROOT
BRANCH   1   8
ATOM      5  C   UNL     1       0.910   9.268  20.215  0.00  0.00    +0.000 A 
ATOM      6  N   UNL     1       1.018   9.561  18.908  0.00  0.00    +0.000 NA
ATOM      7  O   UNL     1       1.802   8.532  18.399  0.00  0.00    +0.000 OA
ATOM      8  C   UNL     1       2.104   7.712  19.446  0.00  0.00    +0.000 A 
ATOM      9  N   UNL     1       1.585   8.120  20.580  0.00  0.00    +0.000 NA
BRANCH   5  13
ATOM     10  C   UNL     1      -1.279  11.421  23.005  0.00  0.00    +0.000 A 
ATOM     11  C   UNL     1      -1.338  11.740  21.659  0.00  0.00    +0.000 A 
ATOM     12  N   UNL     1      -0.626  11.073  20.720  0.00  0.00    +0.000 NA
ATOM     13  C   UNL     1       0.142  10.055  21.178  0.00  0.00    +0.000 A 
ATOM     14  C   UNL     1       0.188   9.733  22.533  0.00  0.00    +0.000 A 
ATOM     15  N   UNL     1      -0.516  10.411  23.477  0.00  0.00    +0.000 NA
ENDBRANCH   5  13
ENDBRANCH   1   8
BRANCH   3  16
ATOM     16  C   UNL     1       4.053   3.828  18.950  0.00  0.00    +0.000 C 
BRANCH  16  17
ATOM     17  C   UNL     1       5.058   4.189  17.873  0.00  0.00    +0.000 A 
ATOM     18  C   UNL     1       6.294   4.783  18.221  0.00  0.00    +0.000 A 
ATOM     19  C   UNL     1       7.215   5.143  17.230  0.00  0.00    +0.000 A 
ATOM     20  C   UNL     1       6.890   4.885  15.920  0.00  0.00    +0.000 A 
ATOM     21  C   UNL     1       5.685   4.287  15.564  0.00  0.00    +0.000 A 
ATOM     22  C   UNL     1       4.757   3.944  16.525  0.00  0.00    +0.000 A 
ATOM     23  C   UNL     1       5.606   4.203  14.091  0.00  0.00    +0.000 C 
ATOM     24  C   UNL     1       7.070   4.496  13.747  0.00  0.00    +0.000 C 
ATOM     25  O   UNL     1       7.687   5.197  14.846  0.00  0.00    +0.000 OA
ENDBRANCH  16  17
ENDBRANCH   3  16
TORSDOF 4
ENDMDL
MODEL 3
REMARK VINA RESULT:      -7.8      2.935      8.989
REMARK  Name = 
REMARK  4 active torsions:
REMARK  status: ('A' for Active; 'I' for Inactive)
REMARK    1  A    between atoms: C_4  and  C_5
REMARK    2  A    between atoms: C_8  and  C_9
REMARK    3  A    between atoms: N_11  and  C_12
REMARK    4  A    between atoms: C_12  and  C_13
REMARK                            x       y       z     vdW  Elec       q    Type
REMARK                         _______ _______ _______ _____ _____    ______ ____
ROOT
ATOM      1  C   UNL     1       2.739   6.539  19.771  0.00  0.00    +0.000 C 
ATOM      2  C   UNL     1       2.023   5.170  19.872  0.00  0.00    +0.000 C 
ATOM      3  N   UNL     1       2.678   4.742  18.614  0.00  0.00    +0.000 NA
ATOM      4  C   UNL     1       2.858   6.175  18.272  0.00  0.00    +0.000 C 
ENDROOT
BRANCH   1   8
ATOM      5  C   UNL     1       0.784   9.530  19.901  0.00  0.00    +0.000 A 
ATOM      6  N   UNL     1       0.499   9.107  21.145  0.00  0.00    +0.000 NA
ATOM      7  O   UNL     1       1.208   7.916  21.263  0.00  0.00    +0.000 OA
ATOM      8  C   UNL     1       1.853   7.723  20.076  0.00  0.00    +0.000 A 
ATOM      9  N   UNL     1       1.623   8.680  19.209  0.00  0.00    +0.000 NA
BRANCH   5  13
ATOM     10  C   UNL     1      -0.558  13.114  18.301  0.00  0.00    +0.000 A 
ATOM     11  C   UNL     1      -1.413  12.035  18.437  0.00  0.00    +0.000 A 
ATOM     12  N   UNL     1      -1.010  10.843  18.938  0.00  0.00    +0.000 NA
ATOM     13  C   UNL     1       0.289  10.775  19.318  0.00  0.00    +0.000 A 
ATOM     14  C   UNL     1       1.142  11.869  19.187  0.00  0.00    +0.000 A 
ATOM     15  N   UNL     1       0.741  13.060  18.672  0.00  0.00    +0.000 NA
ENDBRANCH   5  13
ENDBRANCH   1   8
BRANCH   3  16
ATOM     16  C   UNL     1       3.969   4.085  18.885  0.00  0.00    +0.000 C 
BRANCH  16  17
ATOM     17  C   UNL     1       4.991   4.380  17.804  0.00  0.00    +0.000 A 
ATOM     18  C   UNL     1       6.232   4.971  18.137  0.00  0.00    +0.000 A 
ATOM     19  C   UNL     1       7.169   5.270  17.141  0.00  0.00    +0.000 A 
ATOM     20  C   UNL     1       6.854   4.956  15.841  0.00  0.00    +0.000 A 
ATOM     21  C   UNL     1       5.643   4.360  15.499  0.00  0.00    +0.000 A 
ATOM     22  C   UNL     1       4.700   4.077  16.465  0.00  0.00    +0.000 A 
ATOM     23  C   UNL     1       5.578   4.208  14.031  0.00  0.00    +0.000 C 
ATOM     24  C   UNL     1       7.050   4.463  13.690  0.00  0.00    +0.000 C 
ATOM     25  O   UNL     1       7.667   5.205  14.763  0.00  0.00    +0.000 OA
ENDBRANCH  16  17
ENDBRANCH   3  16
TORSDOF 4
ENDMDL
MODEL 4
REMARK VINA RESULT:      -7.6      5.001     11.282
REMARK  Name = 
REMARK  4 active torsions:
REMARK  status: ('A' for Active; 'I' for Inactive)
REMARK    1  A    between atoms: C_4  and  C_5
REMARK    2  A    between atoms: C_8  and  C_9
REMARK    3  A    between atoms: N_11  and  C_12
REMARK    4  A    between atoms: C_12  and  C_13
REMARK                            x       y       z     vdW  Elec       q    Type
REMARK                         _______ _______ _______ _____ _____    ______ ____
ROOT
ATOM      1  C   UNL     1       0.437  10.106  22.087  0.00  0.00    +0.000 C 
ATOM      2  C   UNL     1      -0.343   8.830  21.687  0.00  0.00    +0.000 C 
ATOM      3  N   UNL     1       0.606   8.607  20.571  0.00  0.00    +0.000 NA
ATOM      4  C   UNL     1       0.939  10.052  20.625  0.00  0.00    +0.000 C 
ENDROOT
BRANCH   1   8
ATOM      5  C   UNL     1      -2.104  12.463  22.963  0.00  0.00    +0.000 A 
ATOM      6  N   UNL     1      -1.120  13.360  22.781  0.00  0.00    +0.000 NA
ATOM      7  O   UNL     1      -0.024  12.584  22.420  0.00  0.00    +0.000 OA
ATOM      8  C   UNL     1      -0.442  11.286  22.422  0.00  0.00    +0.000 A 
ATOM      9  N   UNL     1      -1.706  11.158  22.751  0.00  0.00    +0.000 NA
BRANCH   5  13
ATOM     10  C   UNL     1      -5.982  13.530  23.980  0.00  0.00    +0.000 A 
ATOM     11  C   UNL     1      -5.389  12.407  24.529  0.00  0.00    +0.000 A 
ATOM     12  N   UNL     1      -4.132  12.015  24.210  0.00  0.00    +0.000 NA
ATOM     13  C   UNL     1      -3.477  12.806  23.326  0.00  0.00    +0.000 A 
ATOM     14  C   UNL     1      -4.078  13.941  22.784  0.00  0.00    +0.000 A 
ATOM     15  N   UNL     1      -5.343  14.326  23.094  0.00  0.00    +0.000 NA
ENDBRANCH   5  13
ENDBRANCH   1   8
BRANCH   3  16
ATOM     16  C   UNL     1       1.744   7.775  21.001  0.00  0.00    +0.000 C 
BRANCH  16  17
ATOM     17  C   UNL     1       1.891   6.532  20.146  0.00  0.00    +0.000 A 
ATOM     18  C   UNL     1       2.455   6.619  18.852  0.00  0.00    +0.000 A 
ATOM     19  C   UNL     1       2.570   5.480  18.046  0.00  0.00    +0.000 A 
ATOM     20  C   UNL     1       2.136   4.279  18.557  0.00  0.00    +0.000 A 
ATOM     21  C   UNL     1       1.594   4.175  19.835  0.00  0.00    +0.000 A 
ATOM     22  C   UNL     1       1.456   5.291  20.634  0.00  0.00    +0.000 A 
ATOM     23  C   UNL     1       1.170   2.779  20.065  0.00  0.00    +0.000 C 
ATOM     24  C   UNL     1       1.891   2.104  18.894  0.00  0.00    +0.000 C 
ATOM     25  O   UNL     1       2.173   3.087  17.877  0.00  0.00    +0.000 OA
ENDBRANCH  16  17
ENDBRANCH   3  16
TORSDOF 4
ENDMDL
MODEL 5
REMARK VINA RESULT:      -7.6      0.599      1.465
REMARK  Name = 
REMARK  4 active torsions:
REMARK  status: ('A' for Active; 'I' for Inactive)
REMARK    1  A    between atoms: C_4  and  C_5
REMARK    2  A    between atoms: C_8  and  C_9
REMARK    3  A    between atoms: N_11  and  C_12
REMARK    4  A    between atoms: C_12  and  C_13
REMARK                            x       y       z     vdW  Elec       q    Type
REMARK                         _______ _______ _______ _____ _____    ______ ____
ROOT
ATOM      1  C   UNL     1       4.524   5.734  18.705  0.00  0.00    +0.000 C 
ATOM      2  C   UNL     1       3.930   7.131  18.400  0.00  0.00    +0.000 C 
ATOM      3  N   UNL     1       2.573   6.609  18.684  0.00  0.00    +0.000 NA
ATOM      4  C   UNL     1       3.088   5.245  18.405  0.00  0.00    +0.000 C 
ENDROOT
BRANCH   1   8
ATOM      5  C   UNL     1       6.592   4.844  15.927  0.00  0.00    +0.000 A 
ATOM      6  N   UNL     1       7.459   4.481  16.887  0.00  0.00    +0.000 NA
ATOM      7  O   UNL     1       6.788   4.766  18.070  0.00  0.00    +0.000 OA
ATOM      8  C   UNL     1       5.576   5.284  17.720  0.00  0.00    +0.000 A 
ATOM      9  N   UNL     1       5.408   5.356  16.420  0.00  0.00    +0.000 NA
BRANCH   5  13
ATOM     10  C   UNL     1       7.266   4.349  11.864  0.00  0.00    +0.000 A 
ATOM     11  C   UNL     1       7.965   5.299  12.588  0.00  0.00    +0.000 A 
ATOM     12  N   UNL     1       7.762   5.504  13.910  0.00  0.00    +0.000 NA
ATOM     13  C   UNL     1       6.837   4.703  14.494  0.00  0.00    +0.000 A 
ATOM     14  C   UNL     1       6.144   3.741  13.760  0.00  0.00    +0.000 A 
ATOM     15  N   UNL     1       6.338   3.545  12.430  0.00  0.00    +0.000 NA
ENDBRANCH   5  13
ENDBRANCH   1   8
BRANCH   3  16
ATOM     16  C   UNL     1       2.229   6.774  20.107  0.00  0.00    +0.000 C 
BRANCH  16  17
ATOM     17  C   UNL     1       1.475   8.066  20.361  0.00  0.00    +0.000 A 
ATOM     18  C   UNL     1       0.982   8.363  21.652  0.00  0.00    +0.000 A 
ATOM     19  C   UNL     1       0.263   9.541  21.887  0.00  0.00    +0.000 A 
ATOM     20  C   UNL     1       0.068  10.401  20.833  0.00  0.00    +0.000 A 
ATOM     21  C   UNL     1       0.561  10.130  19.560  0.00  0.00    +0.000 A 
ATOM     22  C   UNL     1       1.255   8.965  19.306  0.00  0.00    +0.000 A 
ATOM     23  C   UNL     1       0.137  11.206  18.641  0.00  0.00    +0.000 C 
ATOM     24  C   UNL     1      -0.322  12.245  19.669  0.00  0.00    +0.000 C 
ATOM     25  O   UNL     1      -0.628  11.582  20.913  0.00  0.00    +0.000 OA
ENDBRANCH  16  17
ENDBRANCH   3  16
TORSDOF 4
ENDMDL
MODEL 6
REMARK VINA RESULT:      -7.5      2.772      5.045
REMARK  Name = 
REMARK  4 active torsions:
REMARK  status: ('A' for Active; 'I' for Inactive)
REMARK    1  A    between atoms: C_4  and  C_5
REMARK    2  A    between atoms: C_8  and  C_9
REMARK    3  A    between atoms: N_11  and  C_12
REMARK    4  A    between atoms: C_12  and  C_13
REMARK                            x       y       z     vdW  Elec       q    Type
REMARK                         _______ _______ _______ _____ _____    ______ ____
ROOT
ATOM      1  C   UNL     1       1.276   8.593  21.024  0.00  0.00    +0.000 C 
ATOM      2  C   UNL     1       0.701   9.638  20.036  0.00  0.00    +0.000 C 
ATOM      3  N   UNL     1      -0.477   9.814  20.917  0.00  0.00    +0.000 NA
ATOM      4  C   UNL     1      -0.195   8.472  21.487  0.00  0.00    +0.000 C 
ENDROOT
BRANCH   1   8
ATOM      5  C   UNL     1       2.884   6.093  19.038  0.00  0.00    +0.000 A 
ATOM      6  N   UNL     1       2.317   5.249  19.917  0.00  0.00    +0.000 NA
ATOM      7  O   UNL     1       1.627   6.086  20.787  0.00  0.00    +0.000 OA
ATOM      8  C   UNL     1       1.844   7.363  20.359  0.00  0.00    +0.000 A 
ATOM      9  N   UNL     1       2.609   7.421  19.295  0.00  0.00    +0.000 NA
BRANCH   5  13
ATOM     10  C   UNL     1       5.205   4.821  15.844  0.00  0.00    +0.000 A 
ATOM     11  C   UNL     1       5.172   6.155  16.209  0.00  0.00    +0.000 A 
ATOM     12  N   UNL     1       4.415   6.613  17.233  0.00  0.00    +0.000 NA
ATOM     13  C   UNL     1       3.696   5.675  17.898  0.00  0.00    +0.000 A 
ATOM     14  C   UNL     1       3.742   4.331  17.530  0.00  0.00    +0.000 A 
ATOM     15  N   UNL     1       4.491   3.875  16.494  0.00  0.00    +0.000 NA
ENDBRANCH   5  13
ENDBRANCH   1   8
BRANCH   3  16
ATOM     16  C   UNL     1      -0.244  10.880  21.907  0.00  0.00    +0.000 C 
BRANCH  16  17
ATOM     17  C   UNL     1      -1.474  11.745  22.106  0.00  0.00    +0.000 A 
ATOM     18  C   UNL     1      -1.850  12.687  21.121  0.00  0.00    +0.000 A 
ATOM     19  C   UNL     1      -2.969  13.507  21.310  0.00  0.00    +0.000 A 
ATOM     20  C   UNL     1      -3.695  13.356  22.467  0.00  0.00    +0.000 A 
ATOM     21  C   UNL     1      -3.346  12.422  23.438  0.00  0.00    +0.000 A 
ATOM     22  C   UNL     1      -2.236  11.619  23.277  0.00  0.00    +0.000 A 
ATOM     23  C   UNL     1      -4.275  12.544  24.580  0.00  0.00    +0.000 C 
ATOM     24  C   UNL     1      -5.363  13.401  23.924  0.00  0.00    +0.000 C 
ATOM     25  O   UNL     1      -4.802  14.099  22.792  0.00  0.00    +0.000 OA
ENDBRANCH  16  17
ENDBRANCH   3  16
TORSDOF 4
ENDMDL
MODEL 7
REMARK VINA RESULT:      -7.5      3.960     10.438
REMARK  Name = 
REMARK  4 active torsions:
REMARK  status: ('A' for Active; 'I' for Inactive)
REMARK    1  A    between atoms: C_4  and  C_5
REMARK    2  A    between atoms: C_8  and  C_9
REMARK    3  A    between atoms: N_11  and  C_12
REMARK    4  A    between atoms: C_12  and  C_13
REMARK                            x       y       z     vdW  Elec       q    Type
REMARK                         _______ _______ _______ _____ _____    ______ ____
ROOT
ATOM      1  C   UNL     1       1.416  10.377  19.636  0.00  0.00    +0.000 C 
ATOM      2  C   UNL     1       1.467   8.876  20.011  0.00  0.00    +0.000 C 
ATOM      3  N   UNL     1       1.343   8.520  18.578  0.00  0.00    +0.000 NA
ATOM      4  C   UNL     1       0.743   9.858  18.344  0.00  0.00    +0.000 C 
ENDROOT
BRANCH   1   8
ATOM      5  C   UNL     1      -1.165  12.068  21.443  0.00  0.00    +0.000 A 
ATOM      6  N   UNL     1      -0.130  12.626  22.095  0.00  0.00    +0.000 NA
ATOM      7  O   UNL     1       0.988  12.062  21.492  0.00  0.00    +0.000 OA
ATOM      8  C   UNL     1       0.529  11.207  20.534  0.00  0.00    +0.000 A 
ATOM      9  N   UNL     1      -0.781  11.171  20.466  0.00  0.00    +0.000 NA
BRANCH   5  13
ATOM     10  C   UNL     1      -5.151  12.879  22.258  0.00  0.00    +0.000 A 
ATOM     11  C   UNL     1      -4.662  12.954  20.965  0.00  0.00    +0.000 A 
ATOM     12  N   UNL     1      -3.365  12.713  20.660  0.00  0.00    +0.000 NA
ATOM     13  C   UNL     1      -2.569  12.376  21.704  0.00  0.00    +0.000 A 
ATOM     14  C   UNL     1      -3.070  12.294  23.002  0.00  0.00    +0.000 A 
ATOM     15  N   UNL     1      -4.369  12.548  23.309  0.00  0.00    +0.000 NA
ENDBRANCH   5  13
ENDBRANCH   1   8
BRANCH   3  16
ATOM     16  C   UNL     1       2.668   8.406  17.944  0.00  0.00    +0.000 C 
BRANCH  16  17
ATOM     17  C   UNL     1       3.083   6.960  17.757  0.00  0.00    +0.000 A 
ATOM     18  C   UNL     1       4.376   6.644  17.277  0.00  0.00    +0.000 A 
ATOM     19  C   UNL     1       4.756   5.312  17.078  0.00  0.00    +0.000 A 
ATOM     20  C   UNL     1       3.845   4.327  17.378  0.00  0.00    +0.000 A 
ATOM     21  C   UNL     1       2.575   4.621  17.865  0.00  0.00    +0.000 A 
ATOM     22  C   UNL     1       2.177   5.929  18.050  0.00  0.00    +0.000 A 
ATOM     23  C   UNL     1       1.819   3.363  18.029  0.00  0.00    +0.000 C 
ATOM     24  C   UNL     1       2.974   2.363  17.914  0.00  0.00    +0.000 C 
ATOM     25  O   UNL     1       4.074   2.983  17.218  0.00  0.00    +0.000 OA
ENDBRANCH  16  17
ENDBRANCH   3  16
TORSDOF 4
ENDMDL
MODEL 8
REMARK VINA RESULT:      -7.4      5.140     11.210
REMARK  Name = 
REMARK  4 active torsions:
REMARK  status: ('A' for Active; 'I' for Inactive)
REMARK    1  A    between atoms: C_4  and  C_5
REMARK    2  A    between atoms: C_8  and  C_9
REMARK    3  A    between atoms: N_11  and  C_12
REMARK    4  A    between atoms: C_12  and  C_13
REMARK                            x       y       z     vdW  Elec       q    Type
REMARK                         _______ _______ _______ _____ _____    ______ ____
ROOT
ATOM      1  C   UNL     1       0.353  10.501  21.638  0.00  0.00    +0.000 C 
ATOM      2  C   UNL     1       0.575   9.241  22.510  0.00  0.00    +0.000 C 
ATOM      3  N   UNL     1       0.498   8.395  21.296  0.00  0.00    +0.000 NA
ATOM      4  C   UNL     1      -0.251   9.492  20.633  0.00  0.00    +0.000 C 
ENDROOT
BRANCH   1   8
ATOM      5  C   UNL     1      -2.412  12.466  22.768  0.00  0.00    +0.000 A 
ATOM      6  N   UNL     1      -1.448  13.242  23.291  0.00  0.00    +0.000 NA
ATOM      7  O   UNL     1      -0.269  12.602  22.928  0.00  0.00    +0.000 OA
ATOM      8  C   UNL     1      -0.626  11.491  22.223  0.00  0.00    +0.000 A 
ATOM      9  N   UNL     1      -1.926  11.360  22.099  0.00  0.00    +0.000 NA
BRANCH   5  13
ATOM     10  C   UNL     1      -6.477  13.219  23.110  0.00  0.00    +0.000 A 
ATOM     11  C   UNL     1      -5.876  13.124  21.867  0.00  0.00    +0.000 A 
ATOM     12  N   UNL     1      -4.551  12.897  21.713  0.00  0.00    +0.000 NA
ATOM     13  C   UNL     1      -3.842  12.749  22.859  0.00  0.00    +0.000 A 
ATOM     14  C   UNL     1      -4.456  12.836  24.108  0.00  0.00    +0.000 A 
ATOM     15  N   UNL     1      -5.784  13.077  24.262  0.00  0.00    +0.000 NA
ENDBRANCH   5  13
ENDBRANCH   1   8
BRANCH   3  16
ATOM     16  C   UNL     1       1.830   8.211  20.693  0.00  0.00    +0.000 C 
BRANCH  16  17
ATOM     17  C   UNL     1       1.969   6.851  20.036  0.00  0.00    +0.000 A 
ATOM     18  C   UNL     1       2.569   6.734  18.760  0.00  0.00    +0.000 A 
ATOM     19  C   UNL     1       2.678   5.486  18.136  0.00  0.00    +0.000 A 
ATOM     20  C   UNL     1       2.202   4.383  18.806  0.00  0.00    +0.000 A 
ATOM     21  C   UNL     1       1.624   4.481  20.068  0.00  0.00    +0.000 A 
ATOM     22  C   UNL     1       1.492   5.705  20.690  0.00  0.00    +0.000 A 
ATOM     23  C   UNL     1       1.161   3.143  20.490  0.00  0.00    +0.000 C 
ATOM     24  C   UNL     1       1.896   2.288  19.454  0.00  0.00    +0.000 C 
ATOM     25  O   UNL     1       2.228   3.103  18.311  0.00  0.00    +0.000 OA
ENDBRANCH  16  17
ENDBRANCH   3  16
TORSDOF 4
ENDMDL
MODEL 9
REMARK VINA RESULT:      -7.4      1.072      1.106
REMARK  Name = 
REMARK  4 active torsions:
REMARK  status: ('A' for Active; 'I' for Inactive)
REMARK    1  A    between atoms: C_4  and  C_5
REMARK    2  A    between atoms: C_8  and  C_9
REMARK    3  A    between atoms: N_11  and  C_12
REMARK    4  A    between atoms: C_12  and  C_13
REMARK                            x       y       z     vdW  Elec       q    Type
REMARK                         _______ _______ _______ _____ _____    ______ ____
ROOT
ATOM      1  C   UNL     1       3.811   5.849  18.443  0.00  0.00    +0.000 C 
ATOM      2  C   UNL     1       3.441   7.275  17.965  0.00  0.00    +0.000 C 
ATOM      3  N   UNL     1       2.114   7.140  18.611  0.00  0.00    +0.000 NA
ATOM      4  C   UNL     1       2.278   5.666  18.537  0.00  0.00    +0.000 C 
ENDROOT
BRANCH   1   8
ATOM      5  C   UNL     1       5.566   4.412  15.679  0.00  0.00    +0.000 A 
ATOM      6  N   UNL     1       5.270   3.253  16.292  0.00  0.00    +0.000 NA
ATOM      7  O   UNL     1       4.560   3.644  17.421  0.00  0.00    +0.000 OA
ATOM      8  C   UNL     1       4.495   5.006  17.394  0.00  0.00    +0.000 A 
ATOM      9  N   UNL     1       5.099   5.525  16.351  0.00  0.00    +0.000 NA
BRANCH   5  13
ATOM     10  C   UNL     1       7.599   4.615  12.069  0.00  0.00    +0.000 A 
ATOM     11  C   UNL     1       7.971   5.412  13.138  0.00  0.00    +0.000 A 
ATOM     12  N   UNL     1       7.323   5.388  14.326  0.00  0.00    +0.000 NA
ATOM     13  C   UNL     1       6.289   4.517  14.414  0.00  0.00    +0.000 A 
ATOM     14  C   UNL     1       5.926   3.711  13.336  0.00  0.00    +0.000 A 
ATOM     15  N   UNL     1       6.568   3.745  12.140  0.00  0.00    +0.000 NA
ENDBRANCH   5  13
ENDBRANCH   1   8
BRANCH   3  16
ATOM     16  C   UNL     1       2.151   7.617  20.004  0.00  0.00    +0.000 C 
BRANCH  16  17
ATOM     17  C   UNL     1       1.219   8.793  20.224  0.00  0.00    +0.000 A 
ATOM     18  C   UNL     1       0.861   9.632  19.143  0.00  0.00    +0.000 A 
ATOM     19  C   UNL     1       0.022  10.735  19.344  0.00  0.00    +0.000 A 
ATOM     20  C   UNL     1      -0.453  10.963  20.613  0.00  0.00    +0.000 A 
ATOM     21  C   UNL     1      -0.123  10.137  21.684  0.00  0.00    +0.000 A 
ATOM     22  C   UNL     1       0.718   9.058  21.508  0.00  0.00    +0.000 A 
ATOM     23  C   UNL     1      -0.734  10.678  22.915  0.00  0.00    +0.000 C 
ATOM     24  C   UNL     1      -1.716  11.673  22.289  0.00  0.00    +0.000 C 
ATOM     25  O   UNL     1      -1.269  12.011  20.959  0.00  0.00    +0.000 OA
ENDBRANCH  16  17
ENDBRANCH   3  16
TORSDOF 4
ENDMDL
