MODEL 1
REMARK VINA RESULT:      -7.6      0.000      0.000
REMARK  Name = 
REMARK  10 active torsions:
REMARK  status: ('A' for Active; 'I' for Inactive)
REMARK    1  A    between atoms: C_1  and  O_2
REMARK    2  A    between atoms: O_2  and  C_3
REMARK    3  A    between atoms: C_3  and  C_4
REMARK    4  A    between atoms: C_4  and  N_5
REMARK    5  A    between atoms: N_8  and  C_9
REMARK    6  A    between atoms: C_9  and  C_10
REMARK    7  A    between atoms: C_12  and  S_13
REMARK    8  A    between atoms: S_13  and  N_14
REMARK    9  A    between atoms: C_19  and  O_20
REMARK   10  A    between atoms: O_20  and  C_21
REMARK                            x       y       z     vdW  Elec       q    Type
REMARK                         _______ _______ _______ _____ _____    ______ ____
ROOT
ATOM      1  C   UNL     1       3.514   5.934  19.128  0.00  0.00    +0.000 A 
ATOM      2  C   UNL     1       3.280   4.634  19.622  0.00  0.00    +0.000 A 
ATOM      3  C   UNL     1       2.144   4.341  20.392  0.00  0.00    +0.000 A 
ATOM      4  C   UNL     1       1.316   5.355  20.854  0.00  0.00    +0.000 A 
ATOM      5  C   UNL     1       1.543   6.645  20.405  0.00  0.00    +0.000 A 
ATOM      6  C   UNL     1       2.541   6.920  19.441  0.00  0.00    +0.000 A 
ENDROOT
BRANCH   3   7
ATOM      7  S   UNL     1       1.691   2.651  20.660  0.00  0.00    +0.000 S 
ATOM      8  O   UNL     1       2.555   1.823  19.839  0.00  0.00    +0.000 OA
ATOM      9  O   UNL     1       1.502   2.442  22.066  0.00  0.00    +0.000 OA
BRANCH   7  10
ATOM     10  N   UNL     1       0.163   2.642  19.953  0.00  0.00    +0.000 NA
ATOM     11  H   UNL     1      -0.181   3.583  19.765  0.00  0.00    +0.000 HD
ATOM     12  H   UNL     1      -0.489   2.013  20.414  0.00  0.00    +0.000 HD
ENDBRANCH   7  10
ENDBRANCH   3   7
BRANCH   1  13
ATOM     13  C   UNL     1       4.833   6.136  18.348  0.00  0.00    +0.000 C 
BRANCH  13  17
ATOM     14  N   UNL     1       6.722   5.468  15.035  0.00  0.00    +0.000 NA
ATOM     15  C   UNL     1       5.288   5.643  15.258  0.00  0.00    +0.000 C 
ATOM     16  C   UNL     1       4.693   4.730  16.343  0.00  0.00    +0.000 C 
ATOM     17  N   UNL     1       5.306   4.906  17.664  0.00  0.00    +0.000 NA
ATOM     18  C   UNL     1       6.781   4.762  17.509  0.00  0.00    +0.000 C 
ATOM     19  C   UNL     1       7.481   5.431  16.285  0.00  0.00    +0.000 C 
BRANCH  14  20
ATOM     20  C   UNL     1       7.121   4.602  13.922  0.00  0.00    +0.000 C 
BRANCH  20  21
ATOM     21  C   UNL     1       6.126   3.669  13.200  0.00  0.00    +0.000 C 
BRANCH  21  23
ATOM     22  C   UNL     1       5.851   2.028  11.497  0.00  0.00    +0.000 C 
ATOM     23  O   UNL     1       6.558   3.180  11.935  0.00  0.00    +0.000 OA
ENDBRANCH  21  23
ENDBRANCH  20  21
ENDBRANCH  14  20
ENDBRANCH  13  17
ENDBRANCH   1  13
BRANCH   6  24
ATOM     24  O   UNL     1       2.497   8.156  18.801  0.00  0.00    +0.000 OA
BRANCH  24  25
ATOM     25  C   UNL     1       1.430   9.007  19.127  0.00  0.00    +0.000 A 
ATOM     26  C   UNL     1       0.656   9.531  18.080  0.00  0.00    +0.000 A 
ATOM     27  C   UNL     1      -0.446  10.365  18.351  0.00  0.00    +0.000 A 
ATOM     28  C   UNL     1      -0.771  10.681  19.667  0.00  0.00    +0.000 A 
ATOM     29  F   UNL     1      -1.832  11.468  19.903  0.00  0.00    +0.000 F 
ATOM     30  C   UNL     1      -0.002  10.184  20.713  0.00  0.00    +0.000 A 
ATOM     31 CL   UNL     1      -0.374  10.597  22.346  0.00  0.00    +0.000 Cl
ATOM     32  C   UNL     1       1.087   9.339  20.449  0.00  0.00    +0.000 A 
ENDBRANCH  24  25
ENDBRANCH   6  24
TORSDOF 9
ENDMDL
MODEL 2
REMARK VINA RESULT:      -7.5      1.062      1.368
REMARK  Name = 
REMARK  10 active torsions:
REMARK  status: ('A' for Active; 'I' for Inactive)
REMARK    1  A    between atoms: C_1  and  O_2
REMARK    2  A    between atoms: O_2  and  C_3
REMARK    3  A    between atoms: C_3  and  C_4
REMARK    4  A    between atoms: C_4  and  N_5
REMARK    5  A    between atoms: N_8  and  C_9
REMARK    6  A    between atoms: C_9  and  C_10
REMARK    7  A    between atoms: C_12  and  S_13
REMARK    8  A    between atoms: S_13  and  N_14
REMARK    9  A    between atoms: C_19  and  O_20
REMARK   10  A    between atoms: O_20  and  C_21
REMARK                            x       y       z     vdW  Elec       q    Type
REMARK                         _______ _______ _______ _____ _____    ______ ____
ROOT
ATOM      1  C   UNL     1       3.543   6.035  19.162  0.00  0.00    +0.000 A 
ATOM      2  C   UNL     1       3.294   4.738  19.660  0.00  0.00    +0.000 A 
ATOM      3  C   UNL     1       2.155   4.461  20.432  0.00  0.00    +0.000 A 
ATOM      4  C   UNL     1       1.340   5.487  20.893  0.00  0.00    +0.000 A 
ATOM      5  C   UNL     1       1.582   6.773  20.440  0.00  0.00    +0.000 A 
ATOM      6  C   UNL     1       2.583   7.033  19.474  0.00  0.00    +0.000 A 
ENDROOT
BRANCH   3   7
ATOM      7  S   UNL     1       1.681   2.778  20.704  0.00  0.00    +0.000 S 
ATOM      8  O   UNL     1       2.565   1.935  19.922  0.00  0.00    +0.000 OA
ATOM      9  O   UNL     1       1.445   2.587  22.106  0.00  0.00    +0.000 OA
BRANCH   7  10
ATOM     10  N   UNL     1       0.178   2.771  19.948  0.00  0.00    +0.000 NA
ATOM     11  H   UNL     1      -0.533   2.298  20.505  0.00  0.00    +0.000 HD
ATOM     12  H   UNL     1       0.222   2.508  18.967  0.00  0.00    +0.000 HD
ENDBRANCH   7  10
ENDBRANCH   3   7
BRANCH   1  13
ATOM     13  C   UNL     1       4.862   6.218  18.380  0.00  0.00    +0.000 C 
BRANCH  13  17
ATOM     14  N   UNL     1       6.713   5.654  15.026  0.00  0.00    +0.000 NA
ATOM     15  C   UNL     1       5.290   5.891  15.264  0.00  0.00    +0.000 C 
ATOM     16  C   UNL     1       4.648   4.946  16.293  0.00  0.00    +0.000 C 
ATOM     17  N   UNL     1       5.270   5.008  17.621  0.00  0.00    +0.000 NA
ATOM     18  C   UNL     1       6.736   4.797  17.452  0.00  0.00    +0.000 C 
ATOM     19  C   UNL     1       7.470   5.501  16.268  0.00  0.00    +0.000 C 
BRANCH  14  20
ATOM     20  C   UNL     1       7.065   4.837  13.861  0.00  0.00    +0.000 C 
BRANCH  20  21
ATOM     21  C   UNL     1       6.202   3.647  13.392  0.00  0.00    +0.000 C 
BRANCH  21  23
ATOM     22  C   UNL     1       5.520   2.285  11.562  0.00  0.00    +0.000 C 
ATOM     23  O   UNL     1       6.524   3.131  12.104  0.00  0.00    +0.000 OA
ENDBRANCH  21  23
ENDBRANCH  20  21
ENDBRANCH  14  20
ENDBRANCH  13  17
ENDBRANCH   1  13
BRANCH   6  24
ATOM     24  O   UNL     1       2.553   8.268  18.831  0.00  0.00    +0.000 OA
BRANCH  24  25
ATOM     25  C   UNL     1       1.389   9.038  18.980  0.00  0.00    +0.000 A 
ATOM     26  C   UNL     1       1.168   9.674  20.211  0.00  0.00    +0.000 A 
ATOM     27  C   UNL     1       0.033  10.486  20.405  0.00  0.00    +0.000 A 
ATOM     28  C   UNL     1      -0.883  10.657  19.372  0.00  0.00    +0.000 A 
ATOM     29  F   UNL     1      -1.951  11.444  19.575  0.00  0.00    +0.000 F 
ATOM     30  C   UNL     1      -0.686  10.018  18.153  0.00  0.00    +0.000 A 
ATOM     31 CL   UNL     1      -1.833  10.195  16.878  0.00  0.00    +0.000 Cl
ATOM     32  C   UNL     1       0.451   9.223  17.950  0.00  0.00    +0.000 A 
ENDBRANCH  24  25
ENDBRANCH   6  24
TORSDOF 9
ENDMDL
MODEL 3
REMARK VINA RESULT:      -7.4      2.938      5.478
REMARK  Name = 
REMARK  10 active torsions:
REMARK  status: ('A' for Active; 'I' for Inactive)
REMARK    1  A    between atoms: C_1  and  O_2
REMARK    2  A    between atoms: O_2  and  C_3
REMARK    3  A    between atoms: C_3  and  C_4
REMARK    4  A    between atoms: C_4  and  N_5
REMARK    5  A    between atoms: N_8  and  C_9
REMARK    6  A    between atoms: C_9  and  C_10
REMARK    7  A    between atoms: C_12  and  S_13
REMARK    8  A    between atoms: S_13  and  N_14
REMARK    9  A    between atoms: C_19  and  O_20
REMARK   10  A    between atoms: O_20  and  C_21
REMARK                            x       y       z     vdW  Elec       q    Type
REMARK                         _______ _______ _______ _____ _____    ______ ____
ROOT
ATOM      1  C   UNL     1       3.188   5.185  17.747  0.00  0.00    +0.000 A 
ATOM      2  C   UNL     1       4.147   4.713  16.826  0.00  0.00    +0.000 A 
ATOM      3  C   UNL     1       5.350   5.404  16.609  0.00  0.00    +0.000 A 
ATOM      4  C   UNL     1       5.552   6.668  17.146  0.00  0.00    +0.000 A 
ATOM      5  C   UNL     1       4.610   7.164  18.032  0.00  0.00    +0.000 A 
ATOM      6  C   UNL     1       3.508   6.380  18.445  0.00  0.00    +0.000 A 
ENDROOT
BRANCH   3   7
ATOM      7  S   UNL     1       6.672   4.594  15.755  0.00  0.00    +0.000 S 
ATOM      8  O   UNL     1       6.136   3.392  15.144  0.00  0.00    +0.000 OA
ATOM      9  O   UNL     1       7.424   5.579  15.032  0.00  0.00    +0.000 OA
BRANCH   7  10
ATOM     10  N   UNL     1       7.617   4.118  17.063  0.00  0.00    +0.000 NA
ATOM     11  H   UNL     1       8.611   4.105  16.838  0.00  0.00    +0.000 HD
ATOM     12  H   UNL     1       7.258   3.294  17.540  0.00  0.00    +0.000 HD
ENDBRANCH   7  10
ENDBRANCH   3   7
BRANCH   1  13
ATOM     13  C   UNL     1       1.882   4.366  17.845  0.00  0.00    +0.000 C 
BRANCH  13  17
ATOM     14  N   UNL     1       4.480   1.994  19.463  0.00  0.00    +0.000 NA
ATOM     15  C   UNL     1       3.576   1.742  18.343  0.00  0.00    +0.000 C 
ATOM     16  C   UNL     1       2.098   2.052  18.631  0.00  0.00    +0.000 C 
ATOM     17  N   UNL     1       1.850   3.447  19.012  0.00  0.00    +0.000 NA
ATOM     18  C   UNL     1       2.759   3.783  20.143  0.00  0.00    +0.000 C 
ATOM     19  C   UNL     1       4.240   3.292  20.094  0.00  0.00    +0.000 C 
BRANCH  14  20
ATOM     20  C   UNL     1       4.844   0.844  20.296  0.00  0.00    +0.000 C 
BRANCH  20  21
ATOM     21  C   UNL     1       5.180   0.980  21.796  0.00  0.00    +0.000 C 
BRANCH  21  23
ATOM     22  C   UNL     1       6.666  -0.779  22.399  0.00  0.00    +0.000 C 
ATOM     23  O   UNL     1       6.507   0.612  22.158  0.00  0.00    +0.000 OA
ENDBRANCH  21  23
ENDBRANCH  20  21
ENDBRANCH  14  20
ENDBRANCH  13  17
ENDBRANCH   1  13
BRANCH   6  24
ATOM     24  O   UNL     1       2.797   6.804  19.564  0.00  0.00    +0.000 OA
BRANCH  24  25
ATOM     25  C   UNL     1       1.961   7.920  19.405  0.00  0.00    +0.000 A 
ATOM     26  C   UNL     1       1.773   8.430  18.111  0.00  0.00    +0.000 A 
ATOM     27  C   UNL     1       0.919   9.528  17.890  0.00  0.00    +0.000 A 
ATOM     28  C   UNL     1       0.258  10.121  18.961  0.00  0.00    +0.000 A 
ATOM     29  F   UNL     1      -0.559  11.158  18.726  0.00  0.00    +0.000 F 
ATOM     30  C   UNL     1       0.449   9.638  20.251  0.00  0.00    +0.000 A 
ATOM     31 CL   UNL     1      -0.337  10.387  21.591  0.00  0.00    +0.000 Cl
ATOM     32  C   UNL     1       1.285   8.534  20.474  0.00  0.00    +0.000 A 
ENDBRANCH  24  25
ENDBRANCH   6  24
TORSDOF 9
ENDMDL
MODEL 4
REMARK VINA RESULT:      -7.3      1.491      1.937
REMARK  Name = 
REMARK  10 active torsions:
REMARK  status: ('A' for Active; 'I' for Inactive)
REMARK    1  A    between atoms: C_1  and  O_2
REMARK    2  A    between atoms: O_2  and  C_3
REMARK    3  A    between atoms: C_3  and  C_4
REMARK    4  A    between atoms: C_4  and  N_5
REMARK    5  A    between atoms: N_8  and  C_9
REMARK    6  A    between atoms: C_9  and  C_10
REMARK    7  A    between atoms: C_12  and  S_13
REMARK    8  A    between atoms: S_13  and  N_14
REMARK    9  A    between atoms: C_19  and  O_20
REMARK   10  A    between atoms: O_20  and  C_21
REMARK                            x       y       z     vdW  Elec       q    Type
REMARK                         _______ _______ _______ _____ _____    ______ ____
ROOT
ATOM      1  C   UNL     1       4.184   5.714  18.667  0.00  0.00    +0.000 A 
ATOM      2  C   UNL     1       4.020   4.314  18.711  0.00  0.00    +0.000 A 
ATOM      3  C   UNL     1       2.750   3.733  18.852  0.00  0.00    +0.000 A 
ATOM      4  C   UNL     1       1.639   4.513  19.147  0.00  0.00    +0.000 A 
ATOM      5  C   UNL     1       1.782   5.890  19.136  0.00  0.00    +0.000 A 
ATOM      6  C   UNL     1       3.003   6.498  18.762  0.00  0.00    +0.000 A 
ENDROOT
BRANCH   3   7
ATOM      7  S   UNL     1       2.545   2.007  18.518  0.00  0.00    +0.000 S 
ATOM      8  O   UNL     1       1.664   1.459  19.533  0.00  0.00    +0.000 OA
ATOM      9  O   UNL     1       2.331   1.833  17.110  0.00  0.00    +0.000 OA
BRANCH   7  10
ATOM     10  N   UNL     1       4.101   1.458  18.849  0.00  0.00    +0.000 NA
ATOM     11  H   UNL     1       4.798   1.879  18.237  0.00  0.00    +0.000 HD
ATOM     12  H   UNL     1       4.156   0.448  18.958  0.00  0.00    +0.000 HD
ENDBRANCH   7  10
ENDBRANCH   3   7
BRANCH   1  13
ATOM     13  C   UNL     1       5.639   6.224  18.571  0.00  0.00    +0.000 C 
BRANCH  13  17
ATOM     14  N   UNL     1       6.245   4.428  15.195  0.00  0.00    +0.000 NA
ATOM     15  C   UNL     1       7.178   4.655  16.297  0.00  0.00    +0.000 C 
ATOM     16  C   UNL     1       7.284   6.119  16.754  0.00  0.00    +0.000 C 
ATOM     17  N   UNL     1       6.011   6.690  17.210  0.00  0.00    +0.000 NA
ATOM     18  C   UNL     1       4.999   6.473  16.138  0.00  0.00    +0.000 C 
ATOM     19  C   UNL     1       4.961   5.096  15.402  0.00  0.00    +0.000 C 
BRANCH  14  20
ATOM     20  C   UNL     1       6.814   4.361  13.846  0.00  0.00    +0.000 C 
BRANCH  20  21
ATOM     21  C   UNL     1       6.208   3.478  12.734  0.00  0.00    +0.000 C 
BRANCH  21  23
ATOM     22  C   UNL     1       4.329   3.206  11.297  0.00  0.00    +0.000 C 
ATOM     23  O   UNL     1       4.794   3.563  12.591  0.00  0.00    +0.000 OA
ENDBRANCH  21  23
ENDBRANCH  20  21
ENDBRANCH  14  20
ENDBRANCH  13  17
ENDBRANCH   1  13
BRANCH   6  24
ATOM     24  O   UNL     1       2.982   7.856  18.459  0.00  0.00    +0.000 OA
BRANCH  24  25
ATOM     25  C   UNL     1       1.905   8.606  18.959  0.00  0.00    +0.000 A 
ATOM     26  C   UNL     1       1.202   9.432  18.068  0.00  0.00    +0.000 A 
ATOM     27  C   UNL     1       0.093  10.181  18.508  0.00  0.00    +0.000 A 
ATOM     28  C   UNL     1      -0.308  10.111  19.838  0.00  0.00    +0.000 A 
ATOM     29  F   UNL     1      -1.374  10.825  20.233  0.00  0.00    +0.000 F 
ATOM     30  C   UNL     1       0.390   9.312  20.736  0.00  0.00    +0.000 A 
ATOM     31 CL   UNL     1      -0.077   9.244  22.394  0.00  0.00    +0.000 Cl
ATOM     32  C   UNL     1       1.484   8.550  20.298  0.00  0.00    +0.000 A 
ENDBRANCH  24  25
ENDBRANCH   6  24
TORSDOF 9
ENDMDL
MODEL 5
REMARK VINA RESULT:      -7.0      1.031      1.167
REMARK  Name = 
REMARK  10 active torsions:
REMARK  status: ('A' for Active; 'I' for Inactive)
REMARK    1  A    between atoms: C_1  and  O_2
REMARK    2  A    between atoms: O_2  and  C_3
REMARK    3  A    between atoms: C_3  and  C_4
REMARK    4  A    between atoms: C_4  and  N_5
REMARK    5  A    between atoms: N_8  and  C_9
REMARK    6  A    between atoms: C_9  and  C_10
REMARK    7  A    between atoms: C_12  and  S_13
REMARK    8  A    between atoms: S_13  and  N_14
REMARK    9  A    between atoms: C_19  and  O_20
REMARK   10  A    between atoms: O_20  and  C_21
REMARK                            x       y       z     vdW  Elec       q    Type
REMARK                         _______ _______ _______ _____ _____    ______ ____
ROOT
ATOM      1  C   UNL     1       3.822   5.907  18.774  0.00  0.00    +0.000 A 
ATOM      2  C   UNL     1       3.799   4.635  19.384  0.00  0.00    +0.000 A 
ATOM      3  C   UNL     1       2.764   4.265  20.258  0.00  0.00    +0.000 A 
ATOM      4  C   UNL     1       1.837   5.200  20.700  0.00  0.00    +0.000 A 
ATOM      5  C   UNL     1       1.857   6.464  20.135  0.00  0.00    +0.000 A 
ATOM      6  C   UNL     1       2.745   6.781  19.080  0.00  0.00    +0.000 A 
ENDROOT
BRANCH   3   7
ATOM      7  S   UNL     1       2.563   2.561  20.689  0.00  0.00    +0.000 S 
ATOM      8  O   UNL     1       2.764   2.438  22.121  0.00  0.00    +0.000 OA
ATOM      9  O   UNL     1       1.411   2.046  20.008  0.00  0.00    +0.000 OA
BRANCH   7  10
ATOM     10  N   UNL     1       3.915   1.906  19.931  0.00  0.00    +0.000 NA
ATOM     11  H   UNL     1       4.463   1.318  20.558  0.00  0.00    +0.000 HD
ATOM     12  H   UNL     1       4.440   2.585  19.387  0.00  0.00    +0.000 HD
ENDBRANCH   7  10
ENDBRANCH   3   7
BRANCH   1  13
ATOM     13  C   UNL     1       5.047   6.210  17.884  0.00  0.00    +0.000 C 
BRANCH  13  17
ATOM     14  N   UNL     1       6.007   4.682  14.458  0.00  0.00    +0.000 NA
ATOM     15  C   UNL     1       4.769   4.528  15.222  0.00  0.00    +0.000 C 
ATOM     16  C   UNL     1       4.967   4.076  16.678  0.00  0.00    +0.000 C 
ATOM     17  N   UNL     1       5.792   4.992  17.474  0.00  0.00    +0.000 NA
ATOM     18  C   UNL     1       7.070   5.216  16.741  0.00  0.00    +0.000 C 
ATOM     19  C   UNL     1       7.028   5.427  15.194  0.00  0.00    +0.000 C 
BRANCH  14  20
ATOM     20  C   UNL     1       6.407   3.559  13.606  0.00  0.00    +0.000 C 
BRANCH  20  21
ATOM     21  C   UNL     1       6.060   3.494  12.104  0.00  0.00    +0.000 C 
BRANCH  21  23
ATOM     22  C   UNL     1       6.436   1.337  11.167  0.00  0.00    +0.000 C 
ATOM     23  O   UNL     1       5.484   2.268  11.665  0.00  0.00    +0.000 OA
ENDBRANCH  21  23
ENDBRANCH  20  21
ENDBRANCH  14  20
ENDBRANCH  13  17
ENDBRANCH   1  13
BRANCH   6  24
ATOM     24  O   UNL     1       2.492   7.940  18.351  0.00  0.00    +0.000 OA
BRANCH  24  25
ATOM     25  C   UNL     1       1.511   8.810  18.852  0.00  0.00    +0.000 A 
ATOM     26  C   UNL     1       0.696   9.489  17.933  0.00  0.00    +0.000 A 
ATOM     27  C   UNL     1      -0.326  10.349  18.381  0.00  0.00    +0.000 A 
ATOM     28  C   UNL     1      -0.528  10.537  19.745  0.00  0.00    +0.000 A 
ATOM     29  F   UNL     1      -1.514  11.352  20.149  0.00  0.00    +0.000 F 
ATOM     30  C   UNL     1       0.284   9.885  20.666  0.00  0.00    +0.000 A 
ATOM     31 CL   UNL     1       0.066  10.137  22.358  0.00  0.00    +0.000 Cl
ATOM     32  C   UNL     1       1.292   9.014  20.225  0.00  0.00    +0.000 A 
ENDBRANCH  24  25
ENDBRANCH   6  24
TORSDOF 9
ENDMDL
MODEL 6
REMARK VINA RESULT:      -7.0      3.870      5.808
REMARK  Name = 
REMARK  10 active torsions:
REMARK  status: ('A' for Active; 'I' for Inactive)
REMARK    1  A    between atoms: C_1  and  O_2
REMARK    2  A    between atoms: O_2  and  C_3
REMARK    3  A    between atoms: C_3  and  C_4
REMARK    4  A    between atoms: C_4  and  N_5
REMARK    5  A    between atoms: N_8  and  C_9
REMARK    6  A    between atoms: C_9  and  C_10
REMARK    7  A    between atoms: C_12  and  S_13
REMARK    8  A    between atoms: S_13  and  N_14
REMARK    9  A    between atoms: C_19  and  O_20
REMARK   10  A    between atoms: O_20  and  C_21
REMARK                            x       y       z     vdW  Elec       q    Type
REMARK                         _______ _______ _______ _____ _____    ______ ____
ROOT
ATOM      1  C   UNL     1       2.173   7.417  19.114  0.00  0.00    +0.000 A 
ATOM      2  C   UNL     1       1.793   8.699  18.663  0.00  0.00    +0.000 A 
ATOM      3  C   UNL     1       1.130   9.602  19.509  0.00  0.00    +0.000 A 
ATOM      4  C   UNL     1       0.656   9.198  20.750  0.00  0.00    +0.000 A 
ATOM      5  C   UNL     1       0.993   7.933  21.203  0.00  0.00    +0.000 A 
ATOM      6  C   UNL     1       1.860   7.097  20.462  0.00  0.00    +0.000 A 
ENDROOT
BRANCH   3   7
ATOM      7  S   UNL     1       1.020  11.305  19.041  0.00  0.00    +0.000 S 
ATOM      8  O   UNL     1      -0.284  11.519  18.444  0.00  0.00    +0.000 OA
ATOM      9  O   UNL     1       1.541  12.110  20.108  0.00  0.00    +0.000 OA
BRANCH   7  10
ATOM     10  N   UNL     1       2.156  11.342  17.800  0.00  0.00    +0.000 NA
ATOM     11  H   UNL     1       1.973  12.089  17.131  0.00  0.00    +0.000 HD
ATOM     12  H   UNL     1       2.347  10.426  17.402  0.00  0.00    +0.000 HD
ENDBRANCH   7  10
ENDBRANCH   3   7
BRANCH   1  13
ATOM     13  C   UNL     1       2.839   6.499  18.065  0.00  0.00    +0.000 C 
BRANCH  13  17
ATOM     14  N   UNL     1       5.575   5.106  15.706  0.00  0.00    +0.000 NA
ATOM     15  C   UNL     1       4.999   4.502  16.907  0.00  0.00    +0.000 C 
ATOM     16  C   UNL     1       5.031   5.401  18.153  0.00  0.00    +0.000 C 
ATOM     17  N   UNL     1       4.313   6.669  17.985  0.00  0.00    +0.000 NA
ATOM     18  C   UNL     1       4.835   7.335  16.759  0.00  0.00    +0.000 C 
ATOM     19  C   UNL     1       5.100   6.472  15.485  0.00  0.00    +0.000 C 
BRANCH  14  20
ATOM     20  C   UNL     1       6.966   4.766  15.392  0.00  0.00    +0.000 C 
BRANCH  20  21
ATOM     21  C   UNL     1       7.443   4.478  13.952  0.00  0.00    +0.000 C 
BRANCH  21  23
ATOM     22  C   UNL     1       6.073   3.278  12.419  0.00  0.00    +0.000 C 
ATOM     23  O   UNL     1       6.433   4.545  12.951  0.00  0.00    +0.000 OA
ENDBRANCH  21  23
ENDBRANCH  20  21
ENDBRANCH  14  20
ENDBRANCH  13  17
ENDBRANCH   1  13
BRANCH   6  24
ATOM     24  O   UNL     1       2.410   5.997  21.115  0.00  0.00    +0.000 OA
BRANCH  24  25
ATOM     25  C   UNL     1       2.167   4.733  20.556  0.00  0.00    +0.000 A 
ATOM     26  C   UNL     1       0.834   4.347  20.342  0.00  0.00    +0.000 A 
ATOM     27  C   UNL     1       0.534   3.103  19.754  0.00  0.00    +0.000 A 
ATOM     28  C   UNL     1       1.563   2.242  19.385  0.00  0.00    +0.000 A 
ATOM     29  F   UNL     1       1.254   1.067  18.816  0.00  0.00    +0.000 F 
ATOM     30  C   UNL     1       2.887   2.604  19.608  0.00  0.00    +0.000 A 
ATOM     31 CL   UNL     1       4.169   1.530  19.188  0.00  0.00    +0.000 Cl
ATOM     32  C   UNL     1       3.192   3.849  20.178  0.00  0.00    +0.000 A 
ENDBRANCH  24  25
ENDBRANCH   6  24
TORSDOF 9
ENDMDL
MODEL 7
REMARK VINA RESULT:      -6.9      1.233      1.672
REMARK  Name = 
REMARK  10 active torsions:
REMARK  status: ('A' for Active; 'I' for Inactive)
REMARK    1  A    between atoms: C_1  and  O_2
REMARK    2  A    between atoms: O_2  and  C_3
REMARK    3  A    between atoms: C_3  and  C_4
REMARK    4  A    between atoms: C_4  and  N_5
REMARK    5  A    between atoms: N_8  and  C_9
REMARK    6  A    between atoms: C_9  and  C_10
REMARK    7  A    between atoms: C_12  and  S_13
REMARK    8  A    between atoms: S_13  and  N_14
REMARK    9  A    between atoms: C_19  and  O_20
REMARK   10  A    between atoms: O_20  and  C_21
REMARK                            x       y       z     vdW  Elec       q    Type
REMARK                         _______ _______ _______ _____ _____    ______ ____
ROOT
ATOM      1  C   UNL     1       3.441   6.067  19.148  0.00  0.00    +0.000 A 
ATOM      2  C   UNL     1       3.346   4.790  19.740  0.00  0.00    +0.000 A 
ATOM      3  C   UNL     1       2.277   4.459  20.587  0.00  0.00    +0.000 A 
ATOM      4  C   UNL     1       1.385   5.431  21.022  0.00  0.00    +0.000 A 
ATOM      5  C   UNL     1       1.477   6.699  20.475  0.00  0.00    +0.000 A 
ATOM      6  C   UNL     1       2.401   6.987  19.443  0.00  0.00    +0.000 A 
ENDROOT
BRANCH   3   7
ATOM      7  S   UNL     1       1.987   2.761  20.992  0.00  0.00    +0.000 S 
ATOM      8  O   UNL     1       1.249   2.721  22.241  0.00  0.00    +0.000 OA
ATOM      9  O   UNL     1       1.569   2.069  19.807  0.00  0.00    +0.000 OA
BRANCH   7  10
ATOM     10  N   UNL     1       3.562   2.265  21.320  0.00  0.00    +0.000 NA
ATOM     11  H   UNL     1       4.072   2.016  20.474  0.00  0.00    +0.000 HD
ATOM     12  H   UNL     1       3.623   1.603  22.089  0.00  0.00    +0.000 HD
ENDBRANCH   7  10
ENDBRANCH   3   7
BRANCH   1  13
ATOM     13  C   UNL     1       4.699   6.323  18.287  0.00  0.00    +0.000 C 
BRANCH  13  17
ATOM     14  N   UNL     1       6.830   5.528  15.154  0.00  0.00    +0.000 NA
ATOM     15  C   UNL     1       5.376   5.609  15.283  0.00  0.00    +0.000 C 
ATOM     16  C   UNL     1       4.784   4.747  16.409  0.00  0.00    +0.000 C 
ATOM     17  N   UNL     1       5.301   5.080  17.742  0.00  0.00    +0.000 NA
ATOM     18  C   UNL     1       6.790   5.039  17.681  0.00  0.00    +0.000 C 
ATOM     19  C   UNL     1       7.513   5.655  16.442  0.00  0.00    +0.000 C 
BRANCH  14  20
ATOM     20  C   UNL     1       7.359   4.605  14.146  0.00  0.00    +0.000 C 
BRANCH  20  21
ATOM     21  C   UNL     1       7.632   5.037  12.689  0.00  0.00    +0.000 C 
BRANCH  21  23
ATOM     22  C   UNL     1       6.117   3.286  12.139  0.00  0.00    +0.000 C 
ATOM     23  O   UNL     1       7.158   4.141  11.689  0.00  0.00    +0.000 OA
ENDBRANCH  21  23
ENDBRANCH  20  21
ENDBRANCH  14  20
ENDBRANCH  13  17
ENDBRANCH   1  13
BRANCH   6  24
ATOM     24  O   UNL     1       2.218   8.165  18.724  0.00  0.00    +0.000 OA
BRANCH  24  25
ATOM     25  C   UNL     1       1.233   9.051  19.187  0.00  0.00    +0.000 A 
ATOM     26  C   UNL     1       1.182   9.326  20.563  0.00  0.00    +0.000 A 
ATOM     27  C   UNL     1       0.235  10.232  21.078  0.00  0.00    +0.000 A 
ATOM     28  C   UNL     1      -0.665  10.859  20.221  0.00  0.00    +0.000 A 
ATOM     29  F   UNL     1      -1.551  11.727  20.732  0.00  0.00    +0.000 F 
ATOM     30  C   UNL     1      -0.638  10.582  18.859  0.00  0.00    +0.000 A 
ATOM     31 CL   UNL     1      -1.771  11.325  17.792  0.00  0.00    +0.000 Cl
ATOM     32  C   UNL     1       0.315   9.693  18.339  0.00  0.00    +0.000 A 
ENDBRANCH  24  25
ENDBRANCH   6  24
TORSDOF 9
ENDMDL
MODEL 8
REMARK VINA RESULT:      -6.9      1.266      1.415
REMARK  Name = 
REMARK  10 active torsions:
REMARK  status: ('A' for Active; 'I' for Inactive)
REMARK    1  A    between atoms: C_1  and  O_2
REMARK    2  A    between atoms: O_2  and  C_3
REMARK    3  A    between atoms: C_3  and  C_4
REMARK    4  A    between atoms: C_4  and  N_5
REMARK    5  A    between atoms: N_8  and  C_9
REMARK    6  A    between atoms: C_9  and  C_10
REMARK    7  A    between atoms: C_12  and  S_13
REMARK    8  A    between atoms: S_13  and  N_14
REMARK    9  A    between atoms: C_19  and  O_20
REMARK   10  A    between atoms: O_20  and  C_21
REMARK                            x       y       z     vdW  Elec       q    Type
REMARK                         _______ _______ _______ _____ _____    ______ ____
ROOT
ATOM      1  C   UNL     1       3.585   5.719  18.980  0.00  0.00    +0.000 A 
ATOM      2  C   UNL     1       3.628   4.462  19.619  0.00  0.00    +0.000 A 
ATOM      3  C   UNL     1       2.646   4.083  20.546  0.00  0.00    +0.000 A 
ATOM      4  C   UNL     1       1.711   5.000  21.010  0.00  0.00    +0.000 A 
ATOM      5  C   UNL     1       1.668   6.250  20.417  0.00  0.00    +0.000 A 
ATOM      6  C   UNL     1       2.497   6.568  19.316  0.00  0.00    +0.000 A 
ENDROOT
BRANCH   3   7
ATOM      7  S   UNL     1       2.516   2.384  21.025  0.00  0.00    +0.000 S 
ATOM      8  O   UNL     1       1.885   1.661  19.937  0.00  0.00    +0.000 OA
ATOM      9  O   UNL     1       3.754   1.979  21.627  0.00  0.00    +0.000 OA
BRANCH   7  10
ATOM     10  N   UNL     1       1.387   2.514  22.266  0.00  0.00    +0.000 NA
ATOM     11  H   UNL     1       1.806   2.381  23.186  0.00  0.00    +0.000 HD
ATOM     12  H   UNL     1       0.531   1.995  22.087  0.00  0.00    +0.000 HD
ENDBRANCH   7  10
ENDBRANCH   3   7
BRANCH   1  13
ATOM     13  C   UNL     1       4.759   6.037  18.028  0.00  0.00    +0.000 C 
BRANCH  13  17
ATOM     14  N   UNL     1       6.831   4.585  15.097  0.00  0.00    +0.000 NA
ATOM     15  C   UNL     1       6.740   5.967  15.565  0.00  0.00    +0.000 C 
ATOM     16  C   UNL     1       5.307   6.510  15.684  0.00  0.00    +0.000 C 
ATOM     17  N   UNL     1       4.459   5.742  16.604  0.00  0.00    +0.000 NA
ATOM     18  C   UNL     1       4.521   4.310  16.198  0.00  0.00    +0.000 C 
ATOM     19  C   UNL     1       5.899   3.698  15.792  0.00  0.00    +0.000 C 
BRANCH  14  20
ATOM     20  C   UNL     1       7.091   4.382  13.669  0.00  0.00    +0.000 C 
BRANCH  20  21
ATOM     21  C   UNL     1       6.250   3.420  12.802  0.00  0.00    +0.000 C 
BRANCH  21  23
ATOM     22  C   UNL     1       4.298   3.241  11.451  0.00  0.00    +0.000 C 
ATOM     23  O   UNL     1       4.891   3.800  12.615  0.00  0.00    +0.000 OA
ENDBRANCH  21  23
ENDBRANCH  20  21
ENDBRANCH  14  20
ENDBRANCH  13  17
ENDBRANCH   1  13
BRANCH   6  24
ATOM     24  O   UNL     1       2.177   7.702  18.573  0.00  0.00    +0.000 OA
BRANCH  24  25
ATOM     25  C   UNL     1       1.625   8.788  19.270  0.00  0.00    +0.000 A 
ATOM     26  C   UNL     1       1.468  10.003  18.586  0.00  0.00    +0.000 A 
ATOM     27  C   UNL     1       0.890  11.117  19.227  0.00  0.00    +0.000 A 
ATOM     28  C   UNL     1       0.475  11.019  20.552  0.00  0.00    +0.000 A 
ATOM     29  F   UNL     1      -0.083  12.088  21.138  0.00  0.00    +0.000 F 
ATOM     30  C   UNL     1       0.642   9.826  21.247  0.00  0.00    +0.000 A 
ATOM     31 CL   UNL     1       0.165   9.703  22.899  0.00  0.00    +0.000 Cl
ATOM     32  C   UNL     1       1.202   8.709  20.608  0.00  0.00    +0.000 A 
ENDBRANCH  24  25
ENDBRANCH   6  24
TORSDOF 9
ENDMDL
MODEL 9
REMARK VINA RESULT:      -6.8      6.143      9.384
REMARK  Name = 
REMARK  10 active torsions:
REMARK  status: ('A' for Active; 'I' for Inactive)
REMARK    1  A    between atoms: C_1  and  O_2
REMARK    2  A    between atoms: O_2  and  C_3
REMARK    3  A    between atoms: C_3  and  C_4
REMARK    4  A    between atoms: C_4  and  N_5
REMARK    5  A    between atoms: N_8  and  C_9
REMARK    6  A    between atoms: C_9  and  C_10
REMARK    7  A    between atoms: C_12  and  S_13
REMARK    8  A    between atoms: S_13  and  N_14
REMARK    9  A    between atoms: C_19  and  O_20
REMARK   10  A    between atoms: O_20  and  C_21
REMARK                            x       y       z     vdW  Elec       q    Type
REMARK                         _______ _______ _______ _____ _____    ______ ____
ROOT
ATOM      1  C   UNL     1      -0.834  11.913  19.621  0.00  0.00    +0.000 A 
ATOM      2  C   UNL     1      -2.099  12.141  19.038  0.00  0.00    +0.000 A 
ATOM      3  C   UNL     1      -2.668  11.216  18.150  0.00  0.00    +0.000 A 
ATOM      4  C   UNL     1      -1.928  10.144  17.666  0.00  0.00    +0.000 A 
ATOM      5  C   UNL     1      -0.673   9.917  18.204  0.00  0.00    +0.000 A 
ATOM      6  C   UNL     1      -0.179  10.703  19.272  0.00  0.00    +0.000 A 
ENDROOT
BRANCH   3   7
ATOM      7  S   UNL     1      -4.387  11.343  17.750  0.00  0.00    +0.000 S 
ATOM      8  O   UNL     1      -4.494  11.668  16.340  0.00  0.00    +0.000 OA
ATOM      9  O   UNL     1      -5.085  10.249  18.362  0.00  0.00    +0.000 OA
BRANCH   7  10
ATOM     10  N   UNL     1      -4.788  12.728  18.619  0.00  0.00    +0.000 NA
ATOM     11  H   UNL     1      -5.698  13.101  18.353  0.00  0.00    +0.000 HD
ATOM     12  H   UNL     1      -4.029  13.402  18.673  0.00  0.00    +0.000 HD
ENDBRANCH   7  10
ENDBRANCH   3   7
BRANCH   1  13
ATOM     13  C   UNL     1      -0.295  13.039  20.532  0.00  0.00    +0.000 C 
BRANCH  13  17
ATOM     14  N   UNL     1       3.365  14.176  19.984  0.00  0.00    +0.000 NA
ATOM     15  C   UNL     1       2.458  14.492  21.086  0.00  0.00    +0.000 C 
ATOM     16  C   UNL     1       1.095  15.056  20.652  0.00  0.00    +0.000 C 
ATOM     17  N   UNL     1       0.333  14.155  19.780  0.00  0.00    +0.000 NA
ATOM     18  C   UNL     1       1.209  13.771  18.637  0.00  0.00    +0.000 C 
ATOM     19  C   UNL     1       2.706  13.425  18.916  0.00  0.00    +0.000 C 
BRANCH  14  20
ATOM     20  C   UNL     1       4.371  15.185  19.641  0.00  0.00    +0.000 C 
BRANCH  20  21
ATOM     21  C   UNL     1       4.297  16.024  18.347  0.00  0.00    +0.000 C 
BRANCH  21  23
ATOM     22  C   UNL     1       2.267  17.131  17.781  0.00  0.00    +0.000 C 
ATOM     23  O   UNL     1       3.524  17.216  18.438  0.00  0.00    +0.000 OA
ENDBRANCH  21  23
ENDBRANCH  20  21
ENDBRANCH  14  20
ENDBRANCH  13  17
ENDBRANCH   1  13
BRANCH   6  24
ATOM     24  O   UNL     1       0.925  10.222  19.969  0.00  0.00    +0.000 OA
BRANCH  24  25
ATOM     25  C   UNL     1       1.518   9.042  19.494  0.00  0.00    +0.000 A 
ATOM     26  C   UNL     1       2.093   9.058  18.214  0.00  0.00    +0.000 A 
ATOM     27  C   UNL     1       2.731   7.911  17.700  0.00  0.00    +0.000 A 
ATOM     28  C   UNL     1       2.787   6.748  18.462  0.00  0.00    +0.000 A 
ATOM     29  F   UNL     1       3.409   5.672  17.958  0.00  0.00    +0.000 F 
ATOM     30  C   UNL     1       2.205   6.713  19.724  0.00  0.00    +0.000 A 
ATOM     31 CL   UNL     1       2.238   5.267  20.663  0.00  0.00    +0.000 Cl
ATOM     32  C   UNL     1       1.585   7.857  20.247  0.00  0.00    +0.000 A 
ENDBRANCH  24  25
ENDBRANCH   6  24
TORSDOF 9
ENDMDL
