MODEL 1
REMARK VINA RESULT:      -8.1      0.000      0.000
REMARK  Name = 
REMARK  7 active torsions:
REMARK  status: ('A' for Active; 'I' for Inactive)
REMARK    1  A    between atoms: C_1  and  C_2
REMARK    2  A    between atoms: C_2  and  O_3
REMARK    3  A    between atoms: O_3  and  C_4
REMARK    4  A    between atoms: N_6  and  C_7
REMARK    5  A    between atoms: C_7  and  C_8
REMARK    6  A    between atoms: C_8  and  C_9
REMARK    7  A    between atoms: C_8  and  C_14
REMARK                            x       y       z     vdW  Elec       q    Type
REMARK                         _______ _______ _______ _____ _____    ______ ____
ROOT
ATOM      1  C   UNL     1       5.074   4.698  17.538  0.00  0.00    +0.000 C 
ENDROOT
BRANCH   1   2
ATOM      2  C   UNL     1       3.780   4.952  18.292  0.00  0.00    +0.000 A 
ATOM      3  C   UNL     1       3.003   6.089  18.137  0.00  0.00    +0.000 A 
ATOM      4  N   UNL     1       1.897   5.979  18.929  0.00  0.00    +0.000 N 
ATOM      5  C   UNL     1       1.932   4.797  19.627  0.00  0.00    +0.000 A 
ATOM      6  C   UNL     1       1.008   4.279  20.545  0.00  0.00    +0.000 A 
ATOM      7  C   UNL     1       1.292   3.042  21.126  0.00  0.00    +0.000 A 
ATOM      8  C   UNL     1       2.459   2.357  20.805  0.00  0.00    +0.000 A 
ATOM      9  C   UNL     1       3.377   2.894  19.893  0.00  0.00    +0.000 A 
ATOM     10  C   UNL     1       3.111   4.137  19.274  0.00  0.00    +0.000 A 
ATOM     11  H   UNL     1       1.157   6.665  18.998  0.00  0.00    +0.000 HD
ENDBRANCH   1   2
BRANCH   1  12
ATOM     12  C   UNL     1       6.296   4.869  18.395  0.00  0.00    +0.000 A 
ATOM     13  N   UNL     1       6.357   5.356  19.621  0.00  0.00    +0.000 NA
ATOM     14  N   UNL     1       7.677   5.322  19.990  0.00  0.00    +0.000 NA
ATOM     15  N   UNL     1       8.425   4.814  19.028  0.00  0.00    +0.000 NA
ATOM     16  N   UNL     1       7.573   4.548  18.024  0.00  0.00    +0.000 N 
ATOM     17  H   UNL     1       7.928   4.170  17.163  0.00  0.00    +0.000 HD
ENDBRANCH   1  12
BRANCH   1  18
ATOM     18  C   UNL     1       5.160   5.506  16.217  0.00  0.00    +0.000 C 
BRANCH  18  21
ATOM     19  C   UNL     1       6.762   4.758  14.526  0.00  0.00    +0.000 C 
ATOM     20  O   UNL     1       7.735   5.229  15.096  0.00  0.00    +0.000 OA
ATOM     21  N   UNL     1       5.501   4.720  15.044  0.00  0.00    +0.000 N 
ATOM     22  H   UNL     1       4.789   4.495  14.359  0.00  0.00    +0.000 HD
BRANCH  19  23
ATOM     23  O   UNL     1       6.722   4.331  13.243  0.00  0.00    +0.000 OA
BRANCH  23  25
ATOM     24  C   UNL     1       5.908   2.591  11.825  0.00  0.00    +0.000 C 
ATOM     25  C   UNL     1       5.540   3.592  12.906  0.00  0.00    +0.000 C 
ENDBRANCH  23  25
ENDBRANCH  19  23
ENDBRANCH  18  21
ENDBRANCH   1  18
TORSDOF 6
ENDMDL
MODEL 2
REMARK VINA RESULT:      -7.9      1.288      1.783
REMARK  Name = 
REMARK  7 active torsions:
REMARK  status: ('A' for Active; 'I' for Inactive)
REMARK    1  A    between atoms: C_1  and  C_2
REMARK    2  A    between atoms: C_2  and  O_3
REMARK    3  A    between atoms: O_3  and  C_4
REMARK    4  A    between atoms: N_6  and  C_7
REMARK    5  A    between atoms: C_7  and  C_8
REMARK    6  A    between atoms: C_8  and  C_9
REMARK    7  A    between atoms: C_8  and  C_14
REMARK                            x       y       z     vdW  Elec       q    Type
REMARK                         _______ _______ _______ _____ _____    ______ ____
ROOT
ATOM      1  C   UNL     1       5.342   3.848  17.375  0.00  0.00    +0.000 C 
ENDROOT
BRANCH   1   2
ATOM      2  C   UNL     1       4.111   3.260  18.042  0.00  0.00    +0.000 A 
ATOM      3  C   UNL     1       3.763   1.920  17.982  0.00  0.00    +0.000 A 
ATOM      4  N   UNL     1       2.629   1.726  18.717  0.00  0.00    +0.000 N 
ATOM      5  C   UNL     1       2.202   2.916  19.251  0.00  0.00    +0.000 A 
ATOM      6  C   UNL     1       1.093   3.179  20.066  0.00  0.00    +0.000 A 
ATOM      7  C   UNL     1       0.879   4.497  20.469  0.00  0.00    +0.000 A 
ATOM      8  C   UNL     1       1.738   5.513  20.064  0.00  0.00    +0.000 A 
ATOM      9  C   UNL     1       2.836   5.235  19.240  0.00  0.00    +0.000 A 
ATOM     10  C   UNL     1       3.091   3.907  18.828  0.00  0.00    +0.000 A 
ATOM     11  H   UNL     1       2.165   0.837  18.852  0.00  0.00    +0.000 HD
ENDBRANCH   1   2
BRANCH   1  12
ATOM     12  C   UNL     1       6.312   4.443  18.355  0.00  0.00    +0.000 A 
ATOM     13  N   UNL     1       6.040   4.990  19.526  0.00  0.00    +0.000 NA
ATOM     14  N   UNL     1       7.237   5.396  20.057  0.00  0.00    +0.000 NA
ATOM     15  N   UNL     1       8.238   5.099  19.248  0.00  0.00    +0.000 NA
ATOM     16  N   UNL     1       7.666   4.523  18.178  0.00  0.00    +0.000 N 
ATOM     17  H   UNL     1       8.243   4.231  17.408  0.00  0.00    +0.000 HD
ENDBRANCH   1  12
BRANCH   1  18
ATOM     18  C   UNL     1       4.984   4.829  16.227  0.00  0.00    +0.000 C 
BRANCH  18  21
ATOM     19  C   UNL     1       6.595   4.756  14.388  0.00  0.00    +0.000 C 
ATOM     20  O   UNL     1       7.506   5.252  15.034  0.00  0.00    +0.000 OA
ATOM     21  N   UNL     1       5.388   4.388  14.903  0.00  0.00    +0.000 N 
ATOM     22  H   UNL     1       4.687   4.198  14.196  0.00  0.00    +0.000 HD
BRANCH  19  23
ATOM     23  O   UNL     1       6.558   4.618  13.043  0.00  0.00    +0.000 OA
BRANCH  23  25
ATOM     24  C   UNL     1       4.906   3.448  11.776  0.00  0.00    +0.000 C 
ATOM     25  C   UNL     1       6.177   3.309  12.596  0.00  0.00    +0.000 C 
ENDBRANCH  23  25
ENDBRANCH  19  23
ENDBRANCH  18  21
ENDBRANCH   1  18
TORSDOF 6
ENDMDL
MODEL 3
REMARK VINA RESULT:      -7.7      2.617      4.197
REMARK  Name = 
REMARK  7 active torsions:
REMARK  status: ('A' for Active; 'I' for Inactive)
REMARK    1  A    between atoms: C_1  and  C_2
REMARK    2  A    between atoms: C_2  and  O_3
REMARK    3  A    between atoms: O_3  and  C_4
REMARK    4  A    between atoms: N_6  and  C_7
REMARK    5  A    between atoms: C_7  and  C_8
REMARK    6  A    between atoms: C_8  and  C_9
REMARK    7  A    between atoms: C_8  and  C_14
REMARK                            x       y       z     vdW  Elec       q    Type
REMARK                         _______ _______ _______ _____ _____    ______ ____
ROOT
ATOM      1  C   UNL     1       3.894   5.454  18.112  0.00  0.00    +0.000 C 
ENDROOT
BRANCH   1   2
ATOM      2  C   UNL     1       2.995   6.266  19.028  0.00  0.00    +0.000 A 
ATOM      3  C   UNL     1       2.578   5.842  20.279  0.00  0.00    +0.000 A 
ATOM      4  N   UNL     1       1.817   6.823  20.847  0.00  0.00    +0.000 N 
ATOM      5  C   UNL     1       1.702   7.888  19.987  0.00  0.00    +0.000 A 
ATOM      6  C   UNL     1       1.021   9.100  20.160  0.00  0.00    +0.000 A 
ATOM      7  C   UNL     1       1.056  10.021  19.112  0.00  0.00    +0.000 A 
ATOM      8  C   UNL     1       1.740   9.733  17.936  0.00  0.00    +0.000 A 
ATOM      9  C   UNL     1       2.408   8.512  17.776  0.00  0.00    +0.000 A 
ATOM     10  C   UNL     1       2.406   7.565  18.825  0.00  0.00    +0.000 A 
ATOM     11  H   UNL     1       1.396   6.779  21.765  0.00  0.00    +0.000 HD
ENDBRANCH   1   2
BRANCH   1  12
ATOM     12  C   UNL     1       3.460   4.022  17.982  0.00  0.00    +0.000 A 
ATOM     13  N   UNL     1       4.093   2.947  18.417  0.00  0.00    +0.000 NA
ATOM     14  N   UNL     1       3.321   1.870  18.065  0.00  0.00    +0.000 NA
ATOM     15  N   UNL     1       2.224   2.257  17.438  0.00  0.00    +0.000 NA
ATOM     16  N   UNL     1       2.316   3.595  17.366  0.00  0.00    +0.000 N 
ATOM     17  H   UNL     1       1.591   4.115  16.901  0.00  0.00    +0.000 HD
ENDBRANCH   1  12
BRANCH   1  18
ATOM     18  C   UNL     1       5.395   5.586  18.483  0.00  0.00    +0.000 C 
BRANCH  18  21
ATOM     19  C   UNL     1       7.006   5.581  16.642  0.00  0.00    +0.000 C 
ATOM     20  O   UNL     1       7.123   6.797  16.609  0.00  0.00    +0.000 OA
ATOM     21  N   UNL     1       6.306   4.893  17.588  0.00  0.00    +0.000 N 
ATOM     22  H   UNL     1       6.137   3.925  17.342  0.00  0.00    +0.000 HD
BRANCH  19  23
ATOM     23  O   UNL     1       7.413   4.717  15.684  0.00  0.00    +0.000 OA
BRANCH  23  25
ATOM     24  C   UNL     1       6.006   4.070  13.866  0.00  0.00    +0.000 C 
ATOM     25  C   UNL     1       6.418   3.760  15.295  0.00  0.00    +0.000 C 
ENDBRANCH  23  25
ENDBRANCH  19  23
ENDBRANCH  18  21
ENDBRANCH   1  18
TORSDOF 6
ENDMDL
MODEL 4
REMARK VINA RESULT:      -7.6      1.434      1.455
REMARK  Name = 
REMARK  7 active torsions:
REMARK  status: ('A' for Active; 'I' for Inactive)
REMARK    1  A    between atoms: C_1  and  C_2
REMARK    2  A    between atoms: C_2  and  O_3
REMARK    3  A    between atoms: O_3  and  C_4
REMARK    4  A    between atoms: N_6  and  C_7
REMARK    5  A    between atoms: C_7  and  C_8
REMARK    6  A    between atoms: C_8  and  C_9
REMARK    7  A    between atoms: C_8  and  C_14
REMARK                            x       y       z     vdW  Elec       q    Type
REMARK                         _______ _______ _______ _____ _____    ______ ____
ROOT
ATOM      1  C   UNL     1       5.280   5.015  17.579  0.00  0.00    +0.000 C 
ENDROOT
BRANCH   1   2
ATOM      2  C   UNL     1       4.146   5.207  18.571  0.00  0.00    +0.000 A 
ATOM      3  C   UNL     1       3.844   6.414  19.180  0.00  0.00    +0.000 A 
ATOM      4  N   UNL     1       2.750   6.245  19.979  0.00  0.00    +0.000 N 
ATOM      5  C   UNL     1       2.328   4.939  19.930  0.00  0.00    +0.000 A 
ATOM      6  C   UNL     1       1.251   4.328  20.585  0.00  0.00    +0.000 A 
ATOM      7  C   UNL     1       1.044   2.966  20.366  0.00  0.00    +0.000 A 
ATOM      8  C   UNL     1       1.888   2.244  19.529  0.00  0.00    +0.000 A 
ATOM      9  C   UNL     1       2.967   2.868  18.890  0.00  0.00    +0.000 A 
ATOM     10  C   UNL     1       3.194   4.251  19.078  0.00  0.00    +0.000 A 
ATOM     11  H   UNL     1       2.311   6.970  20.530  0.00  0.00    +0.000 HD
ENDBRANCH   1   2
BRANCH   1  12
ATOM     12  C   UNL     1       6.375   6.030  17.737  0.00  0.00    +0.000 A 
ATOM     13  N   UNL     1       7.295   6.080  18.684  0.00  0.00    +0.000 NA
ATOM     14  N   UNL     1       8.070   7.180  18.419  0.00  0.00    +0.000 NA
ATOM     15  N   UNL     1       7.658   7.797  17.326  0.00  0.00    +0.000 NA
ATOM     16  N   UNL     1       6.591   7.097  16.909  0.00  0.00    +0.000 N 
ATOM     17  H   UNL     1       6.089   7.402  16.092  0.00  0.00    +0.000 HD
ENDBRANCH   1  12
BRANCH   1  18
ATOM     18  C   UNL     1       4.777   4.910  16.115  0.00  0.00    +0.000 C 
BRANCH  18  21
ATOM     19  C   UNL     1       6.384   4.269  14.387  0.00  0.00    +0.000 C 
ATOM     20  O   UNL     1       6.898   5.375  14.314  0.00  0.00    +0.000 OA
ATOM     21  N   UNL     1       5.451   3.905  15.311  0.00  0.00    +0.000 N 
ATOM     22  H   UNL     1       4.984   3.033  15.093  0.00  0.00    +0.000 HD
BRANCH  19  23
ATOM     23  O   UNL     1       6.530   3.265  13.492  0.00  0.00    +0.000 OA
BRANCH  23  25
ATOM     24  C   UNL     1       4.830   3.248  11.816  0.00  0.00    +0.000 C 
ATOM     25  C   UNL     1       6.262   3.643  12.135  0.00  0.00    +0.000 C 
ENDBRANCH  23  25
ENDBRANCH  19  23
ENDBRANCH  18  21
ENDBRANCH   1  18
TORSDOF 6
ENDMDL
MODEL 5
REMARK VINA RESULT:      -7.6      2.008      3.153
REMARK  Name = 
REMARK  7 active torsions:
REMARK  status: ('A' for Active; 'I' for Inactive)
REMARK    1  A    between atoms: C_1  and  C_2
REMARK    2  A    between atoms: C_2  and  O_3
REMARK    3  A    between atoms: O_3  and  C_4
REMARK    4  A    between atoms: N_6  and  C_7
REMARK    5  A    between atoms: C_7  and  C_8
REMARK    6  A    between atoms: C_8  and  C_9
REMARK    7  A    between atoms: C_8  and  C_14
REMARK                            x       y       z     vdW  Elec       q    Type
REMARK                         _______ _______ _______ _____ _____    ______ ____
ROOT
ATOM      1  C   UNL     1       5.315   4.062  17.362  0.00  0.00    +0.000 C 
ENDROOT
BRANCH   1   2
ATOM      2  C   UNL     1       4.113   3.378  17.989  0.00  0.00    +0.000 A 
ATOM      3  C   UNL     1       3.798   2.041  17.804  0.00  0.00    +0.000 A 
ATOM      4  N   UNL     1       2.684   1.744  18.537  0.00  0.00    +0.000 N 
ATOM      5  C   UNL     1       2.238   2.865  19.192  0.00  0.00    +0.000 A 
ATOM      6  C   UNL     1       1.140   3.016  20.049  0.00  0.00    +0.000 A 
ATOM      7  C   UNL     1       0.900   4.283  20.583  0.00  0.00    +0.000 A 
ATOM      8  C   UNL     1       1.724   5.356  20.265  0.00  0.00    +0.000 A 
ATOM      9  C   UNL     1       2.813   5.190  19.398  0.00  0.00    +0.000 A 
ATOM     10  C   UNL     1       3.093   3.917  18.853  0.00  0.00    +0.000 A 
ATOM     11  H   UNL     1       2.246   0.835  18.592  0.00  0.00    +0.000 HD
ENDBRANCH   1   2
BRANCH   1  12
ATOM     12  C   UNL     1       6.327   4.514  18.374  0.00  0.00    +0.000 A 
ATOM     13  N   UNL     1       6.098   5.100  19.536  0.00  0.00    +0.000 NA
ATOM     14  N   UNL     1       7.323   5.330  20.107  0.00  0.00    +0.000 NA
ATOM     15  N   UNL     1       8.297   4.887  19.332  0.00  0.00    +0.000 NA
ATOM     16  N   UNL     1       7.684   4.396  18.243  0.00  0.00    +0.000 N 
ATOM     17  H   UNL     1       8.237   4.020  17.493  0.00  0.00    +0.000 HD
ENDBRANCH   1  12
BRANCH   1  18
ATOM     18  C   UNL     1       4.909   5.196  16.384  0.00  0.00    +0.000 C 
BRANCH  18  21
ATOM     19  C   UNL     1       7.051   6.258  15.869  0.00  0.00    +0.000 C 
ATOM     20  O   UNL     1       7.453   5.338  15.173  0.00  0.00    +0.000 OA
ATOM     21  N   UNL     1       5.793   6.348  16.387  0.00  0.00    +0.000 N 
ATOM     22  H   UNL     1       5.702   7.056  17.106  0.00  0.00    +0.000 HD
BRANCH  19  23
ATOM     23  O   UNL     1       7.805   7.263  16.371  0.00  0.00    +0.000 OA
BRANCH  23  25
ATOM     24  C   UNL     1       8.261   8.890  18.058  0.00  0.00    +0.000 C 
ATOM     25  C   UNL     1       7.237   7.905  17.521  0.00  0.00    +0.000 C 
ENDBRANCH  23  25
ENDBRANCH  19  23
ENDBRANCH  18  21
ENDBRANCH   1  18
TORSDOF 6
ENDMDL
MODEL 6
REMARK VINA RESULT:      -7.5      3.226      5.142
REMARK  Name = 
REMARK  7 active torsions:
REMARK  status: ('A' for Active; 'I' for Inactive)
REMARK    1  A    between atoms: C_1  and  C_2
REMARK    2  A    between atoms: C_2  and  O_3
REMARK    3  A    between atoms: O_3  and  C_4
REMARK    4  A    between atoms: N_6  and  C_7
REMARK    5  A    between atoms: C_7  and  C_8
REMARK    6  A    between atoms: C_8  and  C_9
REMARK    7  A    between atoms: C_8  and  C_14
REMARK                            x       y       z     vdW  Elec       q    Type
REMARK                         _______ _______ _______ _____ _____    ______ ____
ROOT
ATOM      1  C   UNL     1       4.021   5.223  18.533  0.00  0.00    +0.000 C 
ENDROOT
BRANCH   1   2
ATOM      2  C   UNL     1       3.044   6.112  19.282  0.00  0.00    +0.000 A 
ATOM      3  C   UNL     1       2.486   5.789  20.508  0.00  0.00    +0.000 A 
ATOM      4  N   UNL     1       1.686   6.818  20.914  0.00  0.00    +0.000 N 
ATOM      5  C   UNL     1       1.684   7.815  19.970  0.00  0.00    +0.000 A 
ATOM      6  C   UNL     1       1.011   9.044  19.975  0.00  0.00    +0.000 A 
ATOM      7  C   UNL     1       1.175   9.881  18.872  0.00  0.00    +0.000 A 
ATOM      8  C   UNL     1       1.978   9.498  17.802  0.00  0.00    +0.000 A 
ATOM      9  C   UNL     1       2.636   8.262  17.808  0.00  0.00    +0.000 A 
ATOM     10  C   UNL     1       2.504   7.397  18.919  0.00  0.00    +0.000 A 
ATOM     11  H   UNL     1       1.168   6.848  21.782  0.00  0.00    +0.000 HD
ENDBRANCH   1   2
BRANCH   1  12
ATOM     12  C   UNL     1       3.427   3.904  18.133  0.00  0.00    +0.000 A 
ATOM     13  N   UNL     1       2.267   3.691  17.537  0.00  0.00    +0.000 NA
ATOM     14  N   UNL     1       2.151   2.334  17.380  0.00  0.00    +0.000 NA
ATOM     15  N   UNL     1       3.216   1.710  17.850  0.00  0.00    +0.000 NA
ATOM     16  N   UNL     1       4.005   2.681  18.338  0.00  0.00    +0.000 N 
ATOM     17  H   UNL     1       4.876   2.435  18.776  0.00  0.00    +0.000 HD
ENDBRANCH   1  12
BRANCH   1  18
ATOM     18  C   UNL     1       5.371   5.062  19.281  0.00  0.00    +0.000 C 
BRANCH  18  21
ATOM     19  C   UNL     1       7.677   5.878  19.306  0.00  0.00    +0.000 C 
ATOM     20  O   UNL     1       7.960   5.345  20.368  0.00  0.00    +0.000 OA
ATOM     21  N   UNL     1       6.506   5.696  18.632  0.00  0.00    +0.000 N 
ATOM     22  H   UNL     1       6.355   6.372  17.892  0.00  0.00    +0.000 HD
BRANCH  19  23
ATOM     23  O   UNL     1       8.393   6.845  18.687  0.00  0.00    +0.000 OA
BRANCH  23  25
ATOM     24  C   UNL     1       8.068   9.059  17.854  0.00  0.00    +0.000 C 
ATOM     25  C   UNL     1       7.646   7.606  17.728  0.00  0.00    +0.000 C 
ENDBRANCH  23  25
ENDBRANCH  19  23
ENDBRANCH  18  21
ENDBRANCH   1  18
TORSDOF 6
ENDMDL
MODEL 7
REMARK VINA RESULT:      -7.5      2.498      3.759
REMARK  Name = 
REMARK  7 active torsions:
REMARK  status: ('A' for Active; 'I' for Inactive)
REMARK    1  A    between atoms: C_1  and  C_2
REMARK    2  A    between atoms: C_2  and  O_3
REMARK    3  A    between atoms: O_3  and  C_4
REMARK    4  A    between atoms: N_6  and  C_7
REMARK    5  A    between atoms: C_7  and  C_8
REMARK    6  A    between atoms: C_8  and  C_9
REMARK    7  A    between atoms: C_8  and  C_14
REMARK                            x       y       z     vdW  Elec       q    Type
REMARK                         _______ _______ _______ _____ _____    ______ ____
ROOT
ATOM      1  C   UNL     1       3.878   5.091  18.116  0.00  0.00    +0.000 C 
ENDROOT
BRANCH   1   2
ATOM      2  C   UNL     1       3.036   5.966  19.027  0.00  0.00    +0.000 A 
ATOM      3  C   UNL     1       2.634   5.599  20.301  0.00  0.00    +0.000 A 
ATOM      4  N   UNL     1       1.927   6.627  20.856  0.00  0.00    +0.000 N 
ATOM      5  C   UNL     1       1.832   7.668  19.965  0.00  0.00    +0.000 A 
ATOM      6  C   UNL     1       1.204   8.911  20.115  0.00  0.00    +0.000 A 
ATOM      7  C   UNL     1       1.248   9.797  19.038  0.00  0.00    +0.000 A 
ATOM      8  C   UNL     1       1.890   9.446  17.855  0.00  0.00    +0.000 A 
ATOM      9  C   UNL     1       2.505   8.194  17.718  0.00  0.00    +0.000 A 
ATOM     10  C   UNL     1       2.493   7.281  18.797  0.00  0.00    +0.000 A 
ATOM     11  H   UNL     1       1.528   6.628  21.785  0.00  0.00    +0.000 HD
ENDBRANCH   1   2
BRANCH   1  12
ATOM     12  C   UNL     1       4.005   3.679  18.612  0.00  0.00    +0.000 A 
ATOM     13  N   UNL     1       3.237   2.648  18.309  0.00  0.00    +0.000 NA
ATOM     14  N   UNL     1       3.733   1.574  19.003  0.00  0.00    +0.000 NA
ATOM     15  N   UNL     1       4.793   1.916  19.712  0.00  0.00    +0.000 NA
ATOM     16  N   UNL     1       4.955   3.231  19.488  0.00  0.00    +0.000 N 
ATOM     17  H   UNL     1       5.700   3.721  19.952  0.00  0.00    +0.000 HD
ENDBRANCH   1  12
BRANCH   1  18
ATOM     18  C   UNL     1       5.254   5.728  17.786  0.00  0.00    +0.000 C 
BRANCH  18  21
ATOM     19  C   UNL     1       7.089   5.534  16.181  0.00  0.00    +0.000 C 
ATOM     20  O   UNL     1       7.520   6.659  16.385  0.00  0.00    +0.000 OA
ATOM     21  N   UNL     1       6.090   4.942  16.895  0.00  0.00    +0.000 N 
ATOM     22  H   UNL     1       5.720   4.107  16.457  0.00  0.00    +0.000 HD
BRANCH  19  23
ATOM     23  O   UNL     1       7.412   4.738  15.136  0.00  0.00    +0.000 OA
BRANCH  23  25
ATOM     24  C   UNL     1       6.372   3.894  13.159  0.00  0.00    +0.000 C 
ATOM     25  C   UNL     1       6.338   3.906  14.678  0.00  0.00    +0.000 C 
ENDBRANCH  23  25
ENDBRANCH  19  23
ENDBRANCH  18  21
ENDBRANCH   1  18
TORSDOF 6
ENDMDL
MODEL 8
REMARK VINA RESULT:      -7.5      1.240      1.275
REMARK  Name = 
REMARK  7 active torsions:
REMARK  status: ('A' for Active; 'I' for Inactive)
REMARK    1  A    between atoms: C_1  and  C_2
REMARK    2  A    between atoms: C_2  and  O_3
REMARK    3  A    between atoms: O_3  and  C_4
REMARK    4  A    between atoms: N_6  and  C_7
REMARK    5  A    between atoms: C_7  and  C_8
REMARK    6  A    between atoms: C_8  and  C_9
REMARK    7  A    between atoms: C_8  and  C_14
REMARK                            x       y       z     vdW  Elec       q    Type
REMARK                         _______ _______ _______ _____ _____    ______ ____
ROOT
ATOM      1  C   UNL     1       5.384   4.813  16.853  0.00  0.00    +0.000 C 
ENDROOT
BRANCH   1   2
ATOM      2  C   UNL     1       4.026   4.875  17.530  0.00  0.00    +0.000 A 
ATOM      3  C   UNL     1       3.358   6.053  17.821  0.00  0.00    +0.000 A 
ATOM      4  N   UNL     1       2.155   5.749  18.391  0.00  0.00    +0.000 N 
ATOM      5  C   UNL     1       2.017   4.388  18.505  0.00  0.00    +0.000 A 
ATOM      6  C   UNL     1       0.950   3.642  19.024  0.00  0.00    +0.000 A 
ATOM      7  C   UNL     1       1.070   2.252  19.030  0.00  0.00    +0.000 A 
ATOM      8  C   UNL     1       2.217   1.635  18.542  0.00  0.00    +0.000 A 
ATOM      9  C   UNL     1       3.279   2.396  18.036  0.00  0.00    +0.000 A 
ATOM     10  C   UNL     1       3.182   3.805  18.000  0.00  0.00    +0.000 A 
ATOM     11  H   UNL     1       1.463   6.423  18.689  0.00  0.00    +0.000 HD
ENDBRANCH   1   2
BRANCH   1  12
ATOM     12  C   UNL     1       6.505   5.268  17.742  0.00  0.00    +0.000 A 
ATOM     13  N   UNL     1       7.028   6.479  17.822  0.00  0.00    +0.000 NA
ATOM     14  N   UNL     1       8.025   6.413  18.761  0.00  0.00    +0.000 NA
ATOM     15  N   UNL     1       8.117   5.197  19.269  0.00  0.00    +0.000 NA
ATOM     16  N   UNL     1       7.187   4.475  18.624  0.00  0.00    +0.000 N 
ATOM     17  H   UNL     1       7.090   3.497  18.833  0.00  0.00    +0.000 HD
ENDBRANCH   1  12
BRANCH   1  18
ATOM     18  C   UNL     1       5.393   5.528  15.476  0.00  0.00    +0.000 C 
BRANCH  18  21
ATOM     19  C   UNL     1       7.036   4.840  13.799  0.00  0.00    +0.000 C 
ATOM     20  O   UNL     1       7.956   5.471  14.296  0.00  0.00    +0.000 OA
ATOM     21  N   UNL     1       5.802   4.693  14.359  0.00  0.00    +0.000 N 
ATOM     22  H   UNL     1       5.107   4.327  13.719  0.00  0.00    +0.000 HD
BRANCH  19  23
ATOM     23  O   UNL     1       7.019   4.305  12.556  0.00  0.00    +0.000 OA
BRANCH  23  25
ATOM     24  C   UNL     1       6.546   2.214  11.505  0.00  0.00    +0.000 C 
ATOM     25  C   UNL     1       5.975   3.345  12.344  0.00  0.00    +0.000 C 
ENDBRANCH  23  25
ENDBRANCH  19  23
ENDBRANCH  18  21
ENDBRANCH   1  18
TORSDOF 6
ENDMDL
MODEL 9
REMARK VINA RESULT:      -7.5      1.357      1.959
REMARK  Name = 
REMARK  7 active torsions:
REMARK  status: ('A' for Active; 'I' for Inactive)
REMARK    1  A    between atoms: C_1  and  C_2
REMARK    2  A    between atoms: C_2  and  O_3
REMARK    3  A    between atoms: O_3  and  C_4
REMARK    4  A    between atoms: N_6  and  C_7
REMARK    5  A    between atoms: C_7  and  C_8
REMARK    6  A    between atoms: C_8  and  C_9
REMARK    7  A    between atoms: C_8  and  C_14
REMARK                            x       y       z     vdW  Elec       q    Type
REMARK                         _______ _______ _______ _____ _____    ______ ____
ROOT
ATOM      1  C   UNL     1       5.479   4.104  17.303  0.00  0.00    +0.000 C 
ENDROOT
BRANCH   1   2
ATOM      2  C   UNL     1       4.307   3.800  18.221  0.00  0.00    +0.000 A 
ATOM      3  C   UNL     1       3.876   2.520  18.529  0.00  0.00    +0.000 A 
ATOM      4  N   UNL     1       2.833   2.605  19.406  0.00  0.00    +0.000 N 
ATOM      5  C   UNL     1       2.547   3.921  19.673  0.00  0.00    +0.000 A 
ATOM      6  C   UNL     1       1.565   4.465  20.513  0.00  0.00    +0.000 A 
ATOM      7  C   UNL     1       1.481   5.855  20.599  0.00  0.00    +0.000 A 
ATOM      8  C   UNL     1       2.341   6.666  19.868  0.00  0.00    +0.000 A 
ATOM      9  C   UNL     1       3.310   6.106  19.025  0.00  0.00    +0.000 A 
ATOM     10  C   UNL     1       3.433   4.702  18.928  0.00  0.00    +0.000 A 
ATOM     11  H   UNL     1       2.339   1.817  19.804  0.00  0.00    +0.000 HD
ENDBRANCH   1   2
BRANCH   1  12
ATOM     12  C   UNL     1       6.482   5.035  17.920  0.00  0.00    +0.000 A 
ATOM     13  N   UNL     1       7.108   4.892  19.075  0.00  0.00    +0.000 NA
ATOM     14  N   UNL     1       7.918   5.989  19.218  0.00  0.00    +0.000 NA
ATOM     15  N   UNL     1       7.816   6.793  18.176  0.00  0.00    +0.000 NA
ATOM     16  N   UNL     1       6.908   6.214  17.373  0.00  0.00    +0.000 N 
ATOM     17  H   UNL     1       6.647   6.668  16.515  0.00  0.00    +0.000 HD
ENDBRANCH   1  12
BRANCH   1  18
ATOM     18  C   UNL     1       5.024   4.572  15.895  0.00  0.00    +0.000 C 
BRANCH  18  21
ATOM     19  C   UNL     1       6.618   4.474  14.043  0.00  0.00    +0.000 C 
ATOM     20  O   UNL     1       7.197   5.503  14.355  0.00  0.00    +0.000 OA
ATOM     21  N   UNL     1       5.650   3.869  14.789  0.00  0.00    +0.000 N 
ATOM     22  H   UNL     1       5.136   3.157  14.284  0.00  0.00    +0.000 HD
BRANCH  19  23
ATOM     23  O   UNL     1       6.719   3.835  12.855  0.00  0.00    +0.000 OA
BRANCH  23  25
ATOM     24  C   UNL     1       5.655   2.144  11.545  0.00  0.00    +0.000 C 
ATOM     25  C   UNL     1       5.458   3.458  12.282  0.00  0.00    +0.000 C 
ENDBRANCH  23  25
ENDBRANCH  19  23
ENDBRANCH  18  21
ENDBRANCH   1  18
TORSDOF 6
ENDMDL
