MODEL 1
REMARK VINA RESULT:      -7.4      0.000      0.000
REMARK  Name = 
REMARK  13 active torsions:
REMARK  status: ('A' for Active; 'I' for Inactive)
REMARK    1  A    between atoms: C_1  and  C_2
REMARK    2  A    between atoms: C_2  and  C_3
REMARK    3  A    between atoms: C_4  and  C_5
REMARK    4  A    between atoms: C_5  and  C_6
REMARK    5  A    between atoms: C_6  and  C_7
REMARK    6  A    between atoms: C_7  and  C_8
REMARK    7  A    between atoms: C_9  and  C_10
REMARK    8  A    between atoms: C_10  and  C_11
REMARK    9  A    between atoms: C_11  and  C_12
REMARK   10  A    between atoms: C_12  and  C_13
REMARK   11  A    between atoms: C_14  and  C_15
REMARK   12  A    between atoms: C_20  and  C_21
REMARK   13  A    between atoms: C_20  and  C_22
REMARK                            x       y       z     vdW  Elec       q    Type
REMARK                         _______ _______ _______ _____ _____    ______ ____
ROOT
ATOM      1  C   UNL     1       5.534   5.816  15.842  0.00  0.00    +0.000 C 
ENDROOT
BRANCH   1   2
ATOM      2  C   UNL     1       4.363   5.745  16.811  0.00  0.00    +0.000 C 
ATOM      3  C   UNL     1       3.943   7.052  17.435  0.00  0.00    +0.000 C 
ATOM      4  C   UNL     1       3.779   4.569  17.104  0.00  0.00    +0.000 C 
BRANCH   4   5
ATOM      5  C   UNL     1       2.651   4.321  18.081  0.00  0.00    +0.000 C 
ATOM      6  C   UNL     1       1.812   3.119  17.626  0.00  0.00    +0.000 C 
ATOM      7  C   UNL     1       1.078   2.645  18.865  0.00  0.00    +0.000 C 
ATOM      8  C   UNL     1       2.082   2.928  19.944  0.00  0.00    +0.000 C 
ATOM      9  O   UNL     1       2.061   2.375  21.039  0.00  0.00    +0.000 OA
ATOM     10  C   UNL     1       3.074   4.015  19.552  0.00  0.00    +0.000 C 
ATOM     11  C   UNL     1       4.503   3.498  19.740  0.00  0.00    +0.000 C 
ATOM     12  C   UNL     1       2.836   5.235  20.450  0.00  0.00    +0.000 C 
ENDBRANCH   4   5
ENDBRANCH   1   2
BRANCH   1  13
ATOM     13  C   UNL     1       6.856   5.608  16.584  0.00  0.00    +0.000 C 
BRANCH  13  16
ATOM     14  C   UNL     1       7.924   6.991  18.372  0.00  0.00    +0.000 C 
ATOM     15  C   UNL     1       7.713   5.844  19.338  0.00  0.00    +0.000 C 
ATOM     16  C   UNL     1       7.529   6.859  17.086  0.00  0.00    +0.000 C 
BRANCH  14  17
ATOM     17  C   UNL     1       8.592   8.276  18.845  0.00  0.00    +0.000 C 
BRANCH  17  18
ATOM     18  C   UNL     1       8.349   9.508  17.962  0.00  0.00    +0.000 C 
BRANCH  18  22
ATOM     19  C   UNL     1      10.088  12.989  18.179  0.00  0.00    +0.000 C 
ATOM     20  C   UNL     1       9.045  11.941  17.913  0.00  0.00    +0.000 C 
ATOM     21  C   UNL     1       7.769  12.395  17.255  0.00  0.00    +0.000 C 
ATOM     22  C   UNL     1       9.277  10.655  18.245  0.00  0.00    +0.000 C 
ENDBRANCH  18  22
ENDBRANCH  17  18
ENDBRANCH  14  17
ENDBRANCH  13  16
ENDBRANCH   1  13
TORSDOF 7
ENDMDL
MODEL 2
REMARK VINA RESULT:      -7.3      3.629      6.755
REMARK  Name = 
REMARK  13 active torsions:
REMARK  status: ('A' for Active; 'I' for Inactive)
REMARK    1  A    between atoms: C_1  and  C_2
REMARK    2  A    between atoms: C_2  and  C_3
REMARK    3  A    between atoms: C_4  and  C_5
REMARK    4  A    between atoms: C_5  and  C_6
REMARK    5  A    between atoms: C_6  and  C_7
REMARK    6  A    between atoms: C_7  and  C_8
REMARK    7  A    between atoms: C_9  and  C_10
REMARK    8  A    between atoms: C_10  and  C_11
REMARK    9  A    between atoms: C_11  and  C_12
REMARK   10  A    between atoms: C_12  and  C_13
REMARK   11  A    between atoms: C_14  and  C_15
REMARK   12  A    between atoms: C_20  and  C_21
REMARK   13  A    between atoms: C_20  and  C_22
REMARK                            x       y       z     vdW  Elec       q    Type
REMARK                         _______ _______ _______ _____ _____    ______ ____
ROOT
ATOM      1  C   UNL     1       5.213   5.867  15.852  0.00  0.00    +0.000 C 
ENDROOT
BRANCH   1   2
ATOM      2  C   UNL     1       5.012   5.421  17.293  0.00  0.00    +0.000 C 
ATOM      3  C   UNL     1       6.269   5.199  18.095  0.00  0.00    +0.000 C 
ATOM      4  C   UNL     1       3.778   5.208  17.784  0.00  0.00    +0.000 C 
BRANCH   4   5
ATOM      5  C   UNL     1       3.413   4.712  19.166  0.00  0.00    +0.000 C 
ATOM      6  C   UNL     1       2.477   5.714  19.856  0.00  0.00    +0.000 C 
ATOM      7  C   UNL     1       1.780   4.929  20.952  0.00  0.00    +0.000 C 
ATOM      8  C   UNL     1       1.653   3.572  20.324  0.00  0.00    +0.000 C 
ATOM      9  O   UNL     1       0.839   2.736  20.699  0.00  0.00    +0.000 OA
ATOM     10  C   UNL     1       2.685   3.333  19.229  0.00  0.00    +0.000 C 
ATOM     11  C   UNL     1       1.976   2.895  17.944  0.00  0.00    +0.000 C 
ATOM     12  C   UNL     1       3.645   2.233  19.699  0.00  0.00    +0.000 C 
ENDBRANCH   4   5
ENDBRANCH   1   2
BRANCH   1  13
ATOM     13  C   UNL     1       6.447   5.192  15.249  0.00  0.00    +0.000 C 
BRANCH  13  16
ATOM     14  C   UNL     1       6.820   4.161  13.002  0.00  0.00    +0.000 C 
ATOM     15  C   UNL     1       7.868   5.220  12.728  0.00  0.00    +0.000 C 
ATOM     16  C   UNL     1       6.175   4.155  14.190  0.00  0.00    +0.000 C 
BRANCH  14  17
ATOM     17  C   UNL     1       6.510   3.103  11.951  0.00  0.00    +0.000 C 
BRANCH  17  18
ATOM     18  C   UNL     1       5.019   2.805  11.737  0.00  0.00    +0.000 C 
BRANCH  18  22
ATOM     19  C   UNL     1       2.625   4.748   9.353  0.00  0.00    +0.000 C 
ATOM     20  C   UNL     1       3.212   3.631  10.168  0.00  0.00    +0.000 C 
ATOM     21  C   UNL     1       2.549   2.284  10.063  0.00  0.00    +0.000 C 
ATOM     22  C   UNL     1       4.296   3.853  10.939  0.00  0.00    +0.000 C 
ENDBRANCH  18  22
ENDBRANCH  17  18
ENDBRANCH  14  17
ENDBRANCH  13  16
ENDBRANCH   1  13
TORSDOF 7
ENDMDL
MODEL 3
REMARK VINA RESULT:      -7.1      4.193      7.217
REMARK  Name = 
REMARK  13 active torsions:
REMARK  status: ('A' for Active; 'I' for Inactive)
REMARK    1  A    between atoms: C_1  and  C_2
REMARK    2  A    between atoms: C_2  and  C_3
REMARK    3  A    between atoms: C_4  and  C_5
REMARK    4  A    between atoms: C_5  and  C_6
REMARK    5  A    between atoms: C_6  and  C_7
REMARK    6  A    between atoms: C_7  and  C_8
REMARK    7  A    between atoms: C_9  and  C_10
REMARK    8  A    between atoms: C_10  and  C_11
REMARK    9  A    between atoms: C_11  and  C_12
REMARK   10  A    between atoms: C_12  and  C_13
REMARK   11  A    between atoms: C_14  and  C_15
REMARK   12  A    between atoms: C_20  and  C_21
REMARK   13  A    between atoms: C_20  and  C_22
REMARK                            x       y       z     vdW  Elec       q    Type
REMARK                         _______ _______ _______ _____ _____    ______ ____
ROOT
ATOM      1  C   UNL     1       2.108   5.151  18.947  0.00  0.00    +0.000 C 
ENDROOT
BRANCH   1   2
ATOM      2  C   UNL     1       3.046   4.419  17.997  0.00  0.00    +0.000 C 
ATOM      3  C   UNL     1       2.664   3.001  17.656  0.00  0.00    +0.000 C 
ATOM      4  C   UNL     1       4.161   5.012  17.534  0.00  0.00    +0.000 C 
BRANCH   4   5
ATOM      5  C   UNL     1       5.218   4.408  16.636  0.00  0.00    +0.000 C 
ATOM      6  C   UNL     1       4.701   4.327  15.193  0.00  0.00    +0.000 C 
ATOM      7  C   UNL     1       5.939   4.213  14.325  0.00  0.00    +0.000 C 
ATOM      8  C   UNL     1       6.924   5.052  15.085  0.00  0.00    +0.000 C 
ATOM      9  O   UNL     1       7.928   5.535  14.571  0.00  0.00    +0.000 OA
ATOM     10  C   UNL     1       6.574   5.175  16.562  0.00  0.00    +0.000 C 
ATOM     11  C   UNL     1       6.525   6.654  16.955  0.00  0.00    +0.000 C 
ATOM     12  C   UNL     1       7.653   4.452  17.377  0.00  0.00    +0.000 C 
ENDBRANCH   4   5
ENDBRANCH   1   2
BRANCH   1  13
ATOM     13  C   UNL     1       2.825   6.337  19.597  0.00  0.00    +0.000 C 
BRANCH  13  16
ATOM     14  C   UNL     1       1.735   8.545  19.169  0.00  0.00    +0.000 C 
ATOM     15  C   UNL     1       2.372   8.554  17.795  0.00  0.00    +0.000 C 
ATOM     16  C   UNL     1       1.947   7.495  19.993  0.00  0.00    +0.000 C 
BRANCH  14  17
ATOM     17  C   UNL     1       0.849   9.704  19.609  0.00  0.00    +0.000 C 
BRANCH  17  18
ATOM     18  C   UNL     1       0.251  10.544  18.472  0.00  0.00    +0.000 C 
BRANCH  18  22
ATOM     19  C   UNL     1      -3.408   9.681  17.444  0.00  0.00    +0.000 C 
ATOM     20  C   UNL     1      -2.241  10.411  18.046  0.00  0.00    +0.000 C 
ATOM     21  C   UNL     1      -2.546  11.639  18.859  0.00  0.00    +0.000 C 
ATOM     22  C   UNL     1      -0.987   9.951  17.861  0.00  0.00    +0.000 C 
ENDBRANCH  18  22
ENDBRANCH  17  18
ENDBRANCH  14  17
ENDBRANCH  13  16
ENDBRANCH   1  13
TORSDOF 7
ENDMDL
MODEL 4
REMARK VINA RESULT:      -6.9      5.166      7.769
REMARK  Name = 
REMARK  13 active torsions:
REMARK  status: ('A' for Active; 'I' for Inactive)
REMARK    1  A    between atoms: C_1  and  C_2
REMARK    2  A    between atoms: C_2  and  C_3
REMARK    3  A    between atoms: C_4  and  C_5
REMARK    4  A    between atoms: C_5  and  C_6
REMARK    5  A    between atoms: C_6  and  C_7
REMARK    6  A    between atoms: C_7  and  C_8
REMARK    7  A    between atoms: C_9  and  C_10
REMARK    8  A    between atoms: C_10  and  C_11
REMARK    9  A    between atoms: C_11  and  C_12
REMARK   10  A    between atoms: C_12  and  C_13
REMARK   11  A    between atoms: C_14  and  C_15
REMARK   12  A    between atoms: C_20  and  C_21
REMARK   13  A    between atoms: C_20  and  C_22
REMARK                            x       y       z     vdW  Elec       q    Type
REMARK                         _______ _______ _______ _____ _____    ______ ____
ROOT
ATOM      1  C   UNL     1       1.770   9.255  17.784  0.00  0.00    +0.000 C 
ENDROOT
BRANCH   1   2
ATOM      2  C   UNL     1       0.555   9.690  18.589  0.00  0.00    +0.000 C 
ATOM      3  C   UNL     1      -0.684  10.012  17.792  0.00  0.00    +0.000 C 
ATOM      4  C   UNL     1       0.620   9.809  19.928  0.00  0.00    +0.000 C 
BRANCH   4   5
ATOM      5  C   UNL     1      -0.472  10.281  20.862  0.00  0.00    +0.000 C 
ATOM      6  C   UNL     1      -0.341   9.583  22.223  0.00  0.00    +0.000 C 
ATOM      7  C   UNL     1      -1.100  10.458  23.202  0.00  0.00    +0.000 C 
ATOM      8  C   UNL     1      -0.842  11.830  22.651  0.00  0.00    +0.000 C 
ATOM      9  O   UNL     1      -0.955  12.851  23.321  0.00  0.00    +0.000 OA
ATOM     10  C   UNL     1      -0.498  11.811  21.167  0.00  0.00    +0.000 C 
ATOM     11  C   UNL     1       0.818  12.559  20.938  0.00  0.00    +0.000 C 
ATOM     12  C   UNL     1      -1.633  12.499  20.398  0.00  0.00    +0.000 C 
ENDBRANCH   4   5
ENDBRANCH   1   2
BRANCH   1  13
ATOM     13  C   UNL     1       2.485   8.093  18.479  0.00  0.00    +0.000 C 
BRANCH  13  16
ATOM     14  C   UNL     1       2.269   5.603  18.501  0.00  0.00    +0.000 C 
ATOM     15  C   UNL     1       2.238   5.653  20.014  0.00  0.00    +0.000 C 
ATOM     16  C   UNL     1       2.373   6.753  17.799  0.00  0.00    +0.000 C 
BRANCH  14  17
ATOM     17  C   UNL     1       2.169   4.266  17.778  0.00  0.00    +0.000 C 
BRANCH  17  18
ATOM     18  C   UNL     1       3.433   3.397  17.821  0.00  0.00    +0.000 C 
BRANCH  18  22
ATOM     19  C   UNL     1       6.610   5.035  16.268  0.00  0.00    +0.000 C 
ATOM     20  C   UNL     1       5.624   4.550  17.292  0.00  0.00    +0.000 C 
ATOM     21  C   UNL     1       5.912   4.880  18.732  0.00  0.00    +0.000 C 
ATOM     22  C   UNL     1       4.528   3.866  16.905  0.00  0.00    +0.000 C 
ENDBRANCH  18  22
ENDBRANCH  17  18
ENDBRANCH  14  17
ENDBRANCH  13  16
ENDBRANCH   1  13
TORSDOF 7
ENDMDL
MODEL 5
REMARK VINA RESULT:      -6.9      0.975      1.366
REMARK  Name = 
REMARK  13 active torsions:
REMARK  status: ('A' for Active; 'I' for Inactive)
REMARK    1  A    between atoms: C_1  and  C_2
REMARK    2  A    between atoms: C_2  and  C_3
REMARK    3  A    between atoms: C_4  and  C_5
REMARK    4  A    between atoms: C_5  and  C_6
REMARK    5  A    between atoms: C_6  and  C_7
REMARK    6  A    between atoms: C_7  and  C_8
REMARK    7  A    between atoms: C_9  and  C_10
REMARK    8  A    between atoms: C_10  and  C_11
REMARK    9  A    between atoms: C_11  and  C_12
REMARK   10  A    between atoms: C_12  and  C_13
REMARK   11  A    between atoms: C_14  and  C_15
REMARK   12  A    between atoms: C_20  and  C_21
REMARK   13  A    between atoms: C_20  and  C_22
REMARK                            x       y       z     vdW  Elec       q    Type
REMARK                         _______ _______ _______ _____ _____    ______ ____
ROOT
ATOM      1  C   UNL     1       5.015   4.298  16.117  0.00  0.00    +0.000 C 
ENDROOT
BRANCH   1   2
ATOM      2  C   UNL     1       3.924   4.599  17.134  0.00  0.00    +0.000 C 
ATOM      3  C   UNL     1       3.768   6.047  17.525  0.00  0.00    +0.000 C 
ATOM      4  C   UNL     1       3.184   3.609  17.666  0.00  0.00    +0.000 C 
BRANCH   4   5
ATOM      5  C   UNL     1       2.107   3.733  18.721  0.00  0.00    +0.000 C 
ATOM      6  C   UNL     1       1.067   2.618  18.549  0.00  0.00    +0.000 C 
ATOM      7  C   UNL     1       0.365   2.508  19.889  0.00  0.00    +0.000 C 
ATOM      8  C   UNL     1       1.478   2.822  20.845  0.00  0.00    +0.000 C 
ATOM      9  O   UNL     1       1.456   2.495  22.026  0.00  0.00    +0.000 OA
ATOM     10  C   UNL     1       2.588   3.644  20.203  0.00  0.00    +0.000 C 
ATOM     11  C   UNL     1       3.934   2.948  20.426  0.00  0.00    +0.000 C 
ATOM     12  C   UNL     1       2.602   5.032  20.854  0.00  0.00    +0.000 C 
ENDBRANCH   4   5
ENDBRANCH   1   2
BRANCH   1  13
ATOM     13  C   UNL     1       6.399   4.493  16.743  0.00  0.00    +0.000 C 
BRANCH  13  16
ATOM     14  C   UNL     1       7.536   6.585  17.504  0.00  0.00    +0.000 C 
ATOM     15  C   UNL     1       7.459   6.068  18.926  0.00  0.00    +0.000 C 
ATOM     16  C   UNL     1       7.048   5.830  16.495  0.00  0.00    +0.000 C 
BRANCH  14  17
ATOM     17  C   UNL     1       8.176   7.937  17.215  0.00  0.00    +0.000 C 
BRANCH  17  18
ATOM     18  C   UNL     1       8.323   8.868  18.426  0.00  0.00    +0.000 C 
BRANCH  18  22
ATOM     19  C   UNL     1       9.062  12.689  18.230  0.00  0.00    +0.000 C 
ATOM     20  C   UNL     1       9.188  11.240  18.605  0.00  0.00    +0.000 C 
ATOM     21  C   UNL     1      10.265  10.878  19.592  0.00  0.00    +0.000 C 
ATOM     22  C   UNL     1       8.348  10.329  18.074  0.00  0.00    +0.000 C 
ENDBRANCH  18  22
ENDBRANCH  17  18
ENDBRANCH  14  17
ENDBRANCH  13  16
ENDBRANCH   1  13
TORSDOF 7
ENDMDL
MODEL 6
REMARK VINA RESULT:      -6.8      3.207      6.005
REMARK  Name = 
REMARK  13 active torsions:
REMARK  status: ('A' for Active; 'I' for Inactive)
REMARK    1  A    between atoms: C_1  and  C_2
REMARK    2  A    between atoms: C_2  and  C_3
REMARK    3  A    between atoms: C_4  and  C_5
REMARK    4  A    between atoms: C_5  and  C_6
REMARK    5  A    between atoms: C_6  and  C_7
REMARK    6  A    between atoms: C_7  and  C_8
REMARK    7  A    between atoms: C_9  and  C_10
REMARK    8  A    between atoms: C_10  and  C_11
REMARK    9  A    between atoms: C_11  and  C_12
REMARK   10  A    between atoms: C_12  and  C_13
REMARK   11  A    between atoms: C_14  and  C_15
REMARK   12  A    between atoms: C_20  and  C_21
REMARK   13  A    between atoms: C_20  and  C_22
REMARK                            x       y       z     vdW  Elec       q    Type
REMARK                         _______ _______ _______ _____ _____    ______ ____
ROOT
ATOM      1  C   UNL     1       4.534   7.285  17.490  0.00  0.00    +0.000 C 
ENDROOT
BRANCH   1   2
ATOM      2  C   UNL     1       3.538   6.349  18.158  0.00  0.00    +0.000 C 
ATOM      3  C   UNL     1       2.103   6.811  18.166  0.00  0.00    +0.000 C 
ATOM      4  C   UNL     1       3.945   5.202  18.731  0.00  0.00    +0.000 C 
BRANCH   4   5
ATOM      5  C   UNL     1       3.096   4.196  19.478  0.00  0.00    +0.000 C 
ATOM      6  C   UNL     1       1.925   4.906  20.171  0.00  0.00    +0.000 C 
ATOM      7  C   UNL     1       0.894   3.824  20.432  0.00  0.00    +0.000 C 
ATOM      8  C   UNL     1       1.077   2.932  19.240  0.00  0.00    +0.000 C 
ATOM      9  O   UNL     1       0.217   2.147  18.854  0.00  0.00    +0.000 OA
ATOM     10  C   UNL     1       2.460   3.062  18.616  0.00  0.00    +0.000 C 
ATOM     11  C   UNL     1       2.321   3.360  17.120  0.00  0.00    +0.000 C 
ATOM     12  C   UNL     1       3.210   1.740  18.819  0.00  0.00    +0.000 C 
ENDBRANCH   4   5
ENDBRANCH   1   2
BRANCH   1  13
ATOM     13  C   UNL     1       5.923   6.642  17.441  0.00  0.00    +0.000 C 
BRANCH  13  16
ATOM     14  C   UNL     1       6.472   4.999  15.638  0.00  0.00    +0.000 C 
ATOM     15  C   UNL     1       5.976   3.892  16.544  0.00  0.00    +0.000 C 
ATOM     16  C   UNL     1       6.428   6.280  16.068  0.00  0.00    +0.000 C 
BRANCH  14  17
ATOM     17  C   UNL     1       7.000   4.672  14.247  0.00  0.00    +0.000 C 
BRANCH  17  18
ATOM     18  C   UNL     1       5.941   4.226  13.229  0.00  0.00    +0.000 C 
BRANCH  18  22
ATOM     19  C   UNL     1       5.962   1.071  10.942  0.00  0.00    +0.000 C 
ATOM     20  C   UNL     1       5.520   2.363  11.568  0.00  0.00    +0.000 C 
ATOM     21  C   UNL     1       4.181   2.906  11.148  0.00  0.00    +0.000 C 
ATOM     22  C   UNL     1       6.304   2.977  12.477  0.00  0.00    +0.000 C 
ENDBRANCH  18  22
ENDBRANCH  17  18
ENDBRANCH  14  17
ENDBRANCH  13  16
ENDBRANCH   1  13
TORSDOF 7
ENDMDL
MODEL 7
REMARK VINA RESULT:      -6.8      5.036      7.806
REMARK  Name = 
REMARK  13 active torsions:
REMARK  status: ('A' for Active; 'I' for Inactive)
REMARK    1  A    between atoms: C_1  and  C_2
REMARK    2  A    between atoms: C_2  and  C_3
REMARK    3  A    between atoms: C_4  and  C_5
REMARK    4  A    between atoms: C_5  and  C_6
REMARK    5  A    between atoms: C_6  and  C_7
REMARK    6  A    between atoms: C_7  and  C_8
REMARK    7  A    between atoms: C_9  and  C_10
REMARK    8  A    between atoms: C_10  and  C_11
REMARK    9  A    between atoms: C_11  and  C_12
REMARK   10  A    between atoms: C_12  and  C_13
REMARK   11  A    between atoms: C_14  and  C_15
REMARK   12  A    between atoms: C_20  and  C_21
REMARK   13  A    between atoms: C_20  and  C_22
REMARK                            x       y       z     vdW  Elec       q    Type
REMARK                         _______ _______ _______ _____ _____    ______ ____
ROOT
ATOM      1  C   UNL     1       2.300   8.550  17.653  0.00  0.00    +0.000 C 
ENDROOT
BRANCH   1   2
ATOM      2  C   UNL     1       2.971   7.228  17.996  0.00  0.00    +0.000 C 
ATOM      3  C   UNL     1       2.532   6.580  19.284  0.00  0.00    +0.000 C 
ATOM      4  C   UNL     1       3.924   6.710  17.198  0.00  0.00    +0.000 C 
BRANCH   4   5
ATOM      5  C   UNL     1       4.722   5.445  17.423  0.00  0.00    +0.000 C 
ATOM      6  C   UNL     1       4.698   4.573  16.161  0.00  0.00    +0.000 C 
ATOM      7  C   UNL     1       5.889   3.643  16.288  0.00  0.00    +0.000 C 
ATOM      8  C   UNL     1       6.886   4.516  16.991  0.00  0.00    +0.000 C 
ATOM      9  O   UNL     1       8.094   4.301  16.971  0.00  0.00    +0.000 OA
ATOM     10  C   UNL     1       6.229   5.641  17.780  0.00  0.00    +0.000 C 
ATOM     11  C   UNL     1       6.842   6.982  17.366  0.00  0.00    +0.000 C 
ATOM     12  C   UNL     1       6.471   5.392  19.273  0.00  0.00    +0.000 C 
ENDBRANCH   4   5
ENDBRANCH   1   2
BRANCH   1  13
ATOM     13  C   UNL     1       2.035   9.361  18.924  0.00  0.00    +0.000 C 
BRANCH  13  16
ATOM     14  C   UNL     1      -0.029  10.627  19.546  0.00  0.00    +0.000 C 
ATOM     15  C   UNL     1      -0.308   9.583  20.607  0.00  0.00    +0.000 C 
ATOM     16  C   UNL     1       1.077  10.515  18.777  0.00  0.00    +0.000 C 
BRANCH  14  17
ATOM     17  C   UNL     1      -0.980  11.803  19.361  0.00  0.00    +0.000 C 
BRANCH  17  18
ATOM     18  C   UNL     1      -2.333  11.460  18.722  0.00  0.00    +0.000 C 
BRANCH  18  22
ATOM     19  C   UNL     1      -3.003  10.051  15.151  0.00  0.00    +0.000 C 
ATOM     20  C   UNL     1      -3.205  10.793  16.441  0.00  0.00    +0.000 C 
ATOM     21  C   UNL     1      -4.535  11.467  16.643  0.00  0.00    +0.000 C 
ATOM     22  C   UNL     1      -2.225  10.821  17.367  0.00  0.00    +0.000 C 
ENDBRANCH  18  22
ENDBRANCH  17  18
ENDBRANCH  14  17
ENDBRANCH  13  16
ENDBRANCH   1  13
TORSDOF 7
ENDMDL
MODEL 8
REMARK VINA RESULT:      -6.7      1.282      2.013
REMARK  Name = 
REMARK  13 active torsions:
REMARK  status: ('A' for Active; 'I' for Inactive)
REMARK    1  A    between atoms: C_1  and  C_2
REMARK    2  A    between atoms: C_2  and  C_3
REMARK    3  A    between atoms: C_4  and  C_5
REMARK    4  A    between atoms: C_5  and  C_6
REMARK    5  A    between atoms: C_6  and  C_7
REMARK    6  A    between atoms: C_7  and  C_8
REMARK    7  A    between atoms: C_9  and  C_10
REMARK    8  A    between atoms: C_10  and  C_11
REMARK    9  A    between atoms: C_11  and  C_12
REMARK   10  A    between atoms: C_12  and  C_13
REMARK   11  A    between atoms: C_14  and  C_15
REMARK   12  A    between atoms: C_20  and  C_21
REMARK   13  A    between atoms: C_20  and  C_22
REMARK                            x       y       z     vdW  Elec       q    Type
REMARK                         _______ _______ _______ _____ _____    ______ ____
ROOT
ATOM      1  C   UNL     1       4.486   7.096  16.575  0.00  0.00    +0.000 C 
ENDROOT
BRANCH   1   2
ATOM      2  C   UNL     1       3.735   6.343  17.663  0.00  0.00    +0.000 C 
ATOM      3  C   UNL     1       2.530   7.044  18.238  0.00  0.00    +0.000 C 
ATOM      4  C   UNL     1       4.163   5.142  18.094  0.00  0.00    +0.000 C 
BRANCH   4   5
ATOM      5  C   UNL     1       3.567   4.296  19.197  0.00  0.00    +0.000 C 
ATOM      6  C   UNL     1       2.934   5.195  20.268  0.00  0.00    +0.000 C 
ATOM      7  C   UNL     1       1.956   4.308  21.015  0.00  0.00    +0.000 C 
ATOM      8  C   UNL     1       1.467   3.404  19.922  0.00  0.00    +0.000 C 
ATOM      9  O   UNL     1       0.411   2.782  19.991  0.00  0.00    +0.000 OA
ATOM     10  C   UNL     1       2.451   3.294  18.765  0.00  0.00    +0.000 C 
ATOM     11  C   UNL     1       1.736   3.620  17.451  0.00  0.00    +0.000 C 
ATOM     12  C   UNL     1       2.995   1.861  18.725  0.00  0.00    +0.000 C 
ENDBRANCH   4   5
ENDBRANCH   1   2
BRANCH   1  13
ATOM     13  C   UNL     1       5.945   6.637  16.516  0.00  0.00    +0.000 C 
BRANCH  13  16
ATOM     14  C   UNL     1       7.745   7.042  18.203  0.00  0.00    +0.000 C 
ATOM     15  C   UNL     1       7.677   5.577  18.578  0.00  0.00    +0.000 C 
ATOM     16  C   UNL     1       6.938   7.518  17.229  0.00  0.00    +0.000 C 
BRANCH  14  17
ATOM     17  C   UNL     1       8.729   7.967  18.908  0.00  0.00    +0.000 C 
BRANCH  17  18
ATOM     18  C   UNL     1       8.648   9.446  18.504  0.00  0.00    +0.000 C 
BRANCH  18  22
ATOM     19  C   UNL     1      10.908  12.119  20.218  0.00  0.00    +0.000 C 
ATOM     20  C   UNL     1      10.254  11.295  19.145  0.00  0.00    +0.000 C 
ATOM     21  C   UNL     1      10.705  11.530  17.729  0.00  0.00    +0.000 C 
ATOM     22  C   UNL     1       9.317  10.381  19.471  0.00  0.00    +0.000 C 
ENDBRANCH  18  22
ENDBRANCH  17  18
ENDBRANCH  14  17
ENDBRANCH  13  16
ENDBRANCH   1  13
TORSDOF 7
ENDMDL
MODEL 9
REMARK VINA RESULT:      -6.6      3.639      9.642
REMARK  Name = 
REMARK  13 active torsions:
REMARK  status: ('A' for Active; 'I' for Inactive)
REMARK    1  A    between atoms: C_1  and  C_2
REMARK    2  A    between atoms: C_2  and  C_3
REMARK    3  A    between atoms: C_4  and  C_5
REMARK    4  A    between atoms: C_5  and  C_6
REMARK    5  A    between atoms: C_6  and  C_7
REMARK    6  A    between atoms: C_7  and  C_8
REMARK    7  A    between atoms: C_9  and  C_10
REMARK    8  A    between atoms: C_10  and  C_11
REMARK    9  A    between atoms: C_11  and  C_12
REMARK   10  A    between atoms: C_12  and  C_13
REMARK   11  A    between atoms: C_14  and  C_15
REMARK   12  A    between atoms: C_20  and  C_21
REMARK   13  A    between atoms: C_20  and  C_22
REMARK                            x       y       z     vdW  Elec       q    Type
REMARK                         _______ _______ _______ _____ _____    ______ ____
ROOT
ATOM      1  C   UNL     1       8.634   8.069  18.538  0.00  0.00    +0.000 C 
ENDROOT
BRANCH   1   2
ATOM      2  C   UNL     1       8.617   9.590  18.586  0.00  0.00    +0.000 C 
ATOM      3  C   UNL     1       7.801  10.274  17.518  0.00  0.00    +0.000 C 
ATOM      4  C   UNL     1       9.327  10.260  19.512  0.00  0.00    +0.000 C 
BRANCH   4   5
ATOM      5  C   UNL     1       9.461  11.759  19.659  0.00  0.00    +0.000 C 
ATOM      6  C   UNL     1       9.653  12.130  21.136  0.00  0.00    +0.000 C 
ATOM      7  C   UNL     1      10.275  13.514  21.128  0.00  0.00    +0.000 C 
ATOM      8  C   UNL     1      11.132  13.458  19.898  0.00  0.00    +0.000 C 
ATOM      9  O   UNL     1      12.080  14.212  19.709  0.00  0.00    +0.000 OA
ATOM     10  C   UNL     1      10.651  12.418  18.894  0.00  0.00    +0.000 C 
ATOM     11  C   UNL     1      11.808  11.484  18.530  0.00  0.00    +0.000 C 
ATOM     12  C   UNL     1      10.153  13.149  17.641  0.00  0.00    +0.000 C 
ENDBRANCH   4   5
ENDBRANCH   1   2
BRANCH   1  13
ATOM     13  C   UNL     1       7.585   7.553  17.550  0.00  0.00    +0.000 C 
BRANCH  13  16
ATOM     14  C   UNL     1       5.714   5.905  17.364  0.00  0.00    +0.000 C 
ATOM     15  C   UNL     1       5.135   6.741  16.242  0.00  0.00    +0.000 C 
ATOM     16  C   UNL     1       6.867   6.292  17.956  0.00  0.00    +0.000 C 
BRANCH  14  17
ATOM     17  C   UNL     1       5.011   4.629  17.810  0.00  0.00    +0.000 C 
BRANCH  17  18
ATOM     18  C   UNL     1       3.532   4.520  17.413  0.00  0.00    +0.000 C 
BRANCH  18  22
ATOM     19  C   UNL     1       0.913   3.872  20.225  0.00  0.00    +0.000 C 
ATOM     20  C   UNL     1       1.900   3.613  19.123  0.00  0.00    +0.000 C 
ATOM     21  C   UNL     1       2.067   2.187  18.672  0.00  0.00    +0.000 C 
ATOM     22  C   UNL     1       2.580   4.638  18.569  0.00  0.00    +0.000 C 
ENDBRANCH  18  22
ENDBRANCH  17  18
ENDBRANCH  14  17
ENDBRANCH  13  16
ENDBRANCH   1  13
TORSDOF 7
ENDMDL
