MODEL 1
REMARK VINA RESULT:      -7.3      0.000      0.000
REMARK  Name = 
REMARK  2 active torsions:
REMARK  status: ('A' for Active; 'I' for Inactive)
REMARK    1  A    between atoms: C_4  and  N_5
REMARK    2  A    between atoms: N_8  and  C_9
REMARK                            x       y       z     vdW  Elec       q    Type
REMARK                         _______ _______ _______ _____ _____    ______ ____
ROOT
ATOM      1  N   UNL     1       2.916   5.935  18.965  0.00  0.00    +0.000 N 
ATOM      2  C   UNL     1       2.099   6.618  19.848  0.00  0.00    +0.000 C 
ATOM      3  O   UNL     1       1.411   6.091  20.713  0.00  0.00    +0.000 OA
ATOM      4  N   UNL     1       2.095   7.988  19.616  0.00  0.00    +0.000 N 
ATOM      5  H   UNL     1       3.539   6.507  18.409  0.00  0.00    +0.000 HD
ATOM      6  H   UNL     1       2.130   8.235  18.637  0.00  0.00    +0.000 HD
ENDROOT
BRANCH   4   7
ATOM      7  C   UNL     1       1.312   8.822  20.448  0.00  0.00    +0.000 A 
ATOM      8  C   UNL     1       1.346   8.686  21.842  0.00  0.00    +0.000 A 
ATOM      9  C   UNL     1       0.480   9.428  22.645  0.00  0.00    +0.000 A 
ATOM     10  C   UNL     1      -0.436  10.303  22.058  0.00  0.00    +0.000 A 
ATOM     11 CL   UNL     1      -1.525  11.144  23.102  0.00  0.00    +0.000 Cl
ATOM     12  C   UNL     1      -0.451  10.462  20.666  0.00  0.00    +0.000 A 
ATOM     13 CL   UNL     1      -1.586  11.493  19.869  0.00  0.00    +0.000 Cl
ATOM     14  C   UNL     1       0.444   9.744  19.863  0.00  0.00    +0.000 A 
ENDBRANCH   4   7
BRANCH   1  18
ATOM     15  O   UNL     1       4.929   1.881  20.229  0.00  0.00    +0.000 OA
ATOM     16  C   UNL     1       4.134   2.442  19.478  0.00  0.00    +0.000 C 
ATOM     17  C   UNL     1       3.905   3.901  19.632  0.00  0.00    +0.000 C 
ATOM     18  C   UNL     1       3.029   4.554  18.849  0.00  0.00    +0.000 C 
ATOM     19  C   UNL     1       2.178   3.818  17.830  0.00  0.00    +0.000 C 
ATOM     20  C   UNL     1       2.094   2.315  18.066  0.00  0.00    +0.000 C 
ATOM     21  C   UNL     1       3.458   1.714  18.340  0.00  0.00    +0.000 C 
ENDBRANCH   1  18
TORSDOF 2
ENDMDL
MODEL 2
REMARK VINA RESULT:      -7.1      5.342      6.886
REMARK  Name = 
REMARK  2 active torsions:
REMARK  status: ('A' for Active; 'I' for Inactive)
REMARK    1  A    between atoms: C_4  and  N_5
REMARK    2  A    between atoms: N_8  and  C_9
REMARK                            x       y       z     vdW  Elec       q    Type
REMARK                         _______ _______ _______ _____ _____    ______ ____
ROOT
ATOM      1  N   UNL     1       6.762   4.419  15.998  0.00  0.00    +0.000 N 
ATOM      2  C   UNL     1       5.656   4.106  16.768  0.00  0.00    +0.000 C 
ATOM      3  O   UNL     1       4.590   3.698  16.325  0.00  0.00    +0.000 OA
ATOM      4  N   UNL     1       5.862   4.358  18.119  0.00  0.00    +0.000 N 
ATOM      5  H   UNL     1       7.617   4.597  16.509  0.00  0.00    +0.000 HD
ATOM      6  H   UNL     1       6.408   5.188  18.300  0.00  0.00    +0.000 HD
ENDROOT
BRANCH   4   7
ATOM      7  C   UNL     1       4.820   4.077  19.035  0.00  0.00    +0.000 A 
ATOM      8  C   UNL     1       4.597   2.773  19.495  0.00  0.00    +0.000 A 
ATOM      9  C   UNL     1       3.495   2.486  20.300  0.00  0.00    +0.000 A 
ATOM     10  C   UNL     1       2.600   3.502  20.641  0.00  0.00    +0.000 A 
ATOM     11 CL   UNL     1       1.220   3.071  21.585  0.00  0.00    +0.000 Cl
ATOM     12  C   UNL     1       2.838   4.812  20.206  0.00  0.00    +0.000 A 
ATOM     13 CL   UNL     1       1.749   6.110  20.552  0.00  0.00    +0.000 Cl
ATOM     14  C   UNL     1       3.965   5.106  19.428  0.00  0.00    +0.000 A 
ENDBRANCH   4   7
BRANCH   1  18
ATOM     15  O   UNL     1       5.213   2.854  11.847  0.00  0.00    +0.000 OA
ATOM     16  C   UNL     1       6.045   3.537  12.441  0.00  0.00    +0.000 C 
ATOM     17  C   UNL     1       5.954   3.657  13.918  0.00  0.00    +0.000 C 
ATOM     18  C   UNL     1       6.827   4.410  14.609  0.00  0.00    +0.000 C 
ATOM     19  C   UNL     1       7.892   5.233  13.907  0.00  0.00    +0.000 C 
ATOM     20  C   UNL     1       7.620   5.457  12.424  0.00  0.00    +0.000 C 
ATOM     21  C   UNL     1       7.214   4.174  11.728  0.00  0.00    +0.000 C 
ENDBRANCH   1  18
TORSDOF 2
ENDMDL
MODEL 3
REMARK VINA RESULT:      -7.1      4.308      7.918
REMARK  Name = 
REMARK  2 active torsions:
REMARK  status: ('A' for Active; 'I' for Inactive)
REMARK    1  A    between atoms: C_4  and  N_5
REMARK    2  A    between atoms: N_8  and  C_9
REMARK                            x       y       z     vdW  Elec       q    Type
REMARK                         _______ _______ _______ _____ _____    ______ ____
ROOT
ATOM      1  N   UNL     1       1.518   7.616  21.219  0.00  0.00    +0.000 N 
ATOM      2  C   UNL     1       2.201   7.265  20.068  0.00  0.00    +0.000 C 
ATOM      3  O   UNL     1       2.282   7.962  19.065  0.00  0.00    +0.000 OA
ATOM      4  N   UNL     1       2.752   5.992  20.145  0.00  0.00    +0.000 N 
ATOM      5  H   UNL     1       1.664   7.012  22.018  0.00  0.00    +0.000 HD
ATOM      6  H   UNL     1       2.170   5.325  20.633  0.00  0.00    +0.000 HD
ENDROOT
BRANCH   4   7
ATOM      7  C   UNL     1       3.490   5.496  19.044  0.00  0.00    +0.000 A 
ATOM      8  C   UNL     1       2.857   4.799  18.007  0.00  0.00    +0.000 A 
ATOM      9  C   UNL     1       3.609   4.210  16.990  0.00  0.00    +0.000 A 
ATOM     10  C   UNL     1       5.001   4.303  17.011  0.00  0.00    +0.000 A 
ATOM     11 CL   UNL     1       5.878   3.497  15.761  0.00  0.00    +0.000 Cl
ATOM     12  C   UNL     1       5.634   5.025  18.032  0.00  0.00    +0.000 A 
ATOM     13 CL   UNL     1       7.355   5.144  18.145  0.00  0.00    +0.000 Cl
ATOM     14  C   UNL     1       4.877   5.647  19.032  0.00  0.00    +0.000 A 
ENDBRANCH   4   7
BRANCH   1  18
ATOM     15  O   UNL     1      -1.057  11.133  19.463  0.00  0.00    +0.000 OA
ATOM     16  C   UNL     1      -0.552  10.631  20.465  0.00  0.00    +0.000 C 
ATOM     17  C   UNL     1       0.197   9.356  20.332  0.00  0.00    +0.000 C 
ATOM     18  C   UNL     1       0.748   8.759  21.403  0.00  0.00    +0.000 C 
ATOM     19  C   UNL     1       0.563   9.316  22.803  0.00  0.00    +0.000 C 
ATOM     20  C   UNL     1      -0.594  10.301  22.926  0.00  0.00    +0.000 C 
ATOM     21  C   UNL     1      -0.582  11.322  21.808  0.00  0.00    +0.000 C 
ENDBRANCH   1  18
TORSDOF 2
ENDMDL
MODEL 4
REMARK VINA RESULT:      -7.0      4.390      7.927
REMARK  Name = 
REMARK  2 active torsions:
REMARK  status: ('A' for Active; 'I' for Inactive)
REMARK    1  A    between atoms: C_4  and  N_5
REMARK    2  A    between atoms: N_8  and  C_9
REMARK                            x       y       z     vdW  Elec       q    Type
REMARK                         _______ _______ _______ _____ _____    ______ ____
ROOT
ATOM      1  N   UNL     1       1.721   7.637  20.875  0.00  0.00    +0.000 N 
ATOM      2  C   UNL     1       2.417   7.251  19.743  0.00  0.00    +0.000 C 
ATOM      3  O   UNL     1       2.527   7.926  18.728  0.00  0.00    +0.000 OA
ATOM      4  N   UNL     1       2.946   5.971  19.856  0.00  0.00    +0.000 N 
ATOM      5  H   UNL     1       1.843   7.047  21.688  0.00  0.00    +0.000 HD
ATOM      6  H   UNL     1       2.345   5.324  20.347  0.00  0.00    +0.000 HD
ENDROOT
BRANCH   4   7
ATOM      7  C   UNL     1       3.695   5.441  18.778  0.00  0.00    +0.000 A 
ATOM      8  C   UNL     1       3.068   4.737  17.742  0.00  0.00    +0.000 A 
ATOM      9  C   UNL     1       3.827   4.114  16.752  0.00  0.00    +0.000 A 
ATOM     10  C   UNL     1       5.220   4.182  16.797  0.00  0.00    +0.000 A 
ATOM     11 CL   UNL     1       6.105   3.336  15.578  0.00  0.00    +0.000 Cl
ATOM     12  C   UNL     1       5.848   4.911  17.816  0.00  0.00    +0.000 A 
ATOM     13 CL   UNL     1       7.568   5.001  17.959  0.00  0.00    +0.000 Cl
ATOM     14  C   UNL     1       5.084   5.567  18.790  0.00  0.00    +0.000 A 
ENDBRANCH   4   7
BRANCH   1  18
ATOM     15  O   UNL     1      -0.754  10.585  23.571  0.00  0.00    +0.000 OA
ATOM     16  C   UNL     1      -0.378  10.303  22.435  0.00  0.00    +0.000 C 
ATOM     17  C   UNL     1       0.513   9.130  22.242  0.00  0.00    +0.000 C 
ATOM     18  C   UNL     1       0.966   8.795  21.022  0.00  0.00    +0.000 C 
ATOM     19  C   UNL     1       0.656   9.643  19.802  0.00  0.00    +0.000 C 
ATOM     20  C   UNL     1       0.184  11.054  20.136  0.00  0.00    +0.000 C 
ATOM     21  C   UNL     1      -0.875  11.048  21.219  0.00  0.00    +0.000 C 
ENDBRANCH   1  18
TORSDOF 2
ENDMDL
MODEL 5
REMARK VINA RESULT:      -6.9      8.154      8.663
REMARK  Name = 
REMARK  2 active torsions:
REMARK  status: ('A' for Active; 'I' for Inactive)
REMARK    1  A    between atoms: C_4  and  N_5
REMARK    2  A    between atoms: N_8  and  C_9
REMARK                            x       y       z     vdW  Elec       q    Type
REMARK                         _______ _______ _______ _____ _____    ______ ____
ROOT
ATOM      1  N   UNL     1       8.502   7.827  18.903  0.00  0.00    +0.000 N 
ATOM      2  C   UNL     1       8.612   9.173  18.601  0.00  0.00    +0.000 C 
ATOM      3  O   UNL     1       7.984   9.742  17.717  0.00  0.00    +0.000 OA
ATOM      4  N   UNL     1       9.565   9.817  19.380  0.00  0.00    +0.000 N 
ATOM      5  H   UNL     1       8.965   7.529  19.752  0.00  0.00    +0.000 HD
ATOM      6  H   UNL     1      10.383   9.255  19.570  0.00  0.00    +0.000 HD
ENDROOT
BRANCH   4   7
ATOM      7  C   UNL     1       9.783  11.202  19.191  0.00  0.00    +0.000 A 
ATOM      8  C   UNL     1       9.191  12.147  20.040  0.00  0.00    +0.000 A 
ATOM      9  C   UNL     1       9.312  13.510  19.772  0.00  0.00    +0.000 A 
ATOM     10  C   UNL     1      10.016  13.939  18.646  0.00  0.00    +0.000 A 
ATOM     11 CL   UNL     1      10.075  15.636  18.333  0.00  0.00    +0.000 Cl
ATOM     12  C   UNL     1      10.634  12.996  17.812  0.00  0.00    +0.000 A 
ATOM     13 CL   UNL     1      11.484  13.451  16.378  0.00  0.00    +0.000 Cl
ATOM     14  C   UNL     1      10.543  11.629  18.102  0.00  0.00    +0.000 A 
ENDBRANCH   4   7
BRANCH   1  18
ATOM     15  O   UNL     1       5.314   6.766  15.618  0.00  0.00    +0.000 OA
ATOM     16  C   UNL     1       6.027   6.350  16.529  0.00  0.00    +0.000 C 
ATOM     17  C   UNL     1       6.930   7.300  17.227  0.00  0.00    +0.000 C 
ATOM     18  C   UNL     1       7.743   6.888  18.215  0.00  0.00    +0.000 C 
ATOM     19  C   UNL     1       7.834   5.424  18.606  0.00  0.00    +0.000 C 
ATOM     20  C   UNL     1       7.285   4.469  17.553  0.00  0.00    +0.000 C 
ATOM     21  C   UNL     1       5.939   4.927  17.028  0.00  0.00    +0.000 C 
ENDBRANCH   1  18
TORSDOF 2
ENDMDL
MODEL 6
REMARK VINA RESULT:      -6.9      7.897      8.363
REMARK  Name = 
REMARK  2 active torsions:
REMARK  status: ('A' for Active; 'I' for Inactive)
REMARK    1  A    between atoms: C_4  and  N_5
REMARK    2  A    between atoms: N_8  and  C_9
REMARK                            x       y       z     vdW  Elec       q    Type
REMARK                         _______ _______ _______ _____ _____    ______ ____
ROOT
ATOM      1  N   UNL     1       8.464   7.632  18.898  0.00  0.00    +0.000 N 
ATOM      2  C   UNL     1       8.518   8.986  18.614  0.00  0.00    +0.000 C 
ATOM      3  O   UNL     1       7.766   9.567  17.842  0.00  0.00    +0.000 OA
ATOM      4  N   UNL     1       9.567   9.623  19.265  0.00  0.00    +0.000 N 
ATOM      5  H   UNL     1       9.046   7.321  19.665  0.00  0.00    +0.000 HD
ATOM      6  H   UNL     1      10.408   9.066  19.323  0.00  0.00    +0.000 HD
ENDROOT
BRANCH   4   7
ATOM      7  C   UNL     1       9.745  11.015  19.079  0.00  0.00    +0.000 A 
ATOM      8  C   UNL     1       9.110  11.941  19.917  0.00  0.00    +0.000 A 
ATOM      9  C   UNL     1       9.192  13.307  19.651  0.00  0.00    +0.000 A 
ATOM     10  C   UNL     1       9.901  13.757  18.536  0.00  0.00    +0.000 A 
ATOM     11 CL   UNL     1       9.912  15.455  18.224  0.00  0.00    +0.000 Cl
ATOM     12  C   UNL     1      10.561  12.834  17.713  0.00  0.00    +0.000 A 
ATOM     13 CL   UNL     1      11.419  13.316  16.292  0.00  0.00    +0.000 Cl
ATOM     14  C   UNL     1      10.508  11.465  18.002  0.00  0.00    +0.000 A 
ENDBRANCH   4   7
BRANCH   1  18
ATOM     15  O   UNL     1       5.717   3.832  19.199  0.00  0.00    +0.000 OA
ATOM     16  C   UNL     1       6.231   4.671  18.463  0.00  0.00    +0.000 C 
ATOM     17  C   UNL     1       7.058   5.747  19.066  0.00  0.00    +0.000 C 
ATOM     18  C   UNL     1       7.623   6.699  18.303  0.00  0.00    +0.000 C 
ATOM     19  C   UNL     1       7.376   6.765  16.807  0.00  0.00    +0.000 C 
ATOM     20  C   UNL     1       6.159   5.970  16.347  0.00  0.00    +0.000 C 
ATOM     21  C   UNL     1       6.132   4.584  16.958  0.00  0.00    +0.000 C 
ENDBRANCH   1  18
TORSDOF 2
ENDMDL
MODEL 7
REMARK VINA RESULT:      -6.9      1.873      2.466
REMARK  Name = 
REMARK  2 active torsions:
REMARK  status: ('A' for Active; 'I' for Inactive)
REMARK    1  A    between atoms: C_4  and  N_5
REMARK    2  A    between atoms: N_8  and  C_9
REMARK                            x       y       z     vdW  Elec       q    Type
REMARK                         _______ _______ _______ _____ _____    ______ ____
ROOT
ATOM      1  N   UNL     1       3.233   5.888  19.833  0.00  0.00    +0.000 N 
ATOM      2  C   UNL     1       2.474   7.026  19.619  0.00  0.00    +0.000 C 
ATOM      3  O   UNL     1       2.363   7.597  18.542  0.00  0.00    +0.000 OA
ATOM      4  N   UNL     1       1.882   7.496  20.784  0.00  0.00    +0.000 N 
ATOM      5  H   UNL     1       3.110   5.441  20.733  0.00  0.00    +0.000 HD
ATOM      6  H   UNL     1       2.466   7.403  21.604  0.00  0.00    +0.000 HD
ENDROOT
BRANCH   4   7
ATOM      7  C   UNL     1       1.065   8.650  20.721  0.00  0.00    +0.000 A 
ATOM      8  C   UNL     1       1.078   9.481  19.593  0.00  0.00    +0.000 A 
ATOM      9  C   UNL     1       0.364  10.679  19.591  0.00  0.00    +0.000 A 
ATOM     10  C   UNL     1      -0.359  11.061  20.722  0.00  0.00    +0.000 A 
ATOM     11 CL   UNL     1      -1.169  12.585  20.681  0.00  0.00    +0.000 Cl
ATOM     12  C   UNL     1      -0.397  10.216  21.840  0.00  0.00    +0.000 A 
ATOM     13 CL   UNL     1      -1.235  10.645  23.290  0.00  0.00    +0.000 Cl
ATOM     14  C   UNL     1       0.291   8.996  21.828  0.00  0.00    +0.000 A 
ENDBRANCH   4   7
BRANCH   1  18
ATOM     15  O   UNL     1       7.509   4.591  18.377  0.00  0.00    +0.000 OA
ATOM     16  C   UNL     1       6.307   4.636  18.122  0.00  0.00    +0.000 C 
ATOM     17  C   UNL     1       5.378   5.209  19.129  0.00  0.00    +0.000 C 
ATOM     18  C   UNL     1       4.054   5.259  18.904  0.00  0.00    +0.000 C 
ATOM     19  C   UNL     1       3.441   4.662  17.651  0.00  0.00    +0.000 C 
ATOM     20  C   UNL     1       4.352   3.676  16.928  0.00  0.00    +0.000 C 
ATOM     21  C   UNL     1       5.758   4.220  16.778  0.00  0.00    +0.000 C 
ENDBRANCH   1  18
TORSDOF 2
ENDMDL
MODEL 8
REMARK VINA RESULT:      -6.8      0.797      1.639
REMARK  Name = 
REMARK  2 active torsions:
REMARK  status: ('A' for Active; 'I' for Inactive)
REMARK    1  A    between atoms: C_4  and  N_5
REMARK    2  A    between atoms: N_8  and  C_9
REMARK                            x       y       z     vdW  Elec       q    Type
REMARK                         _______ _______ _______ _____ _____    ______ ____
ROOT
ATOM      1  N   UNL     1       3.125   5.824  18.815  0.00  0.00    +0.000 N 
ATOM      2  C   UNL     1       2.175   6.542  19.521  0.00  0.00    +0.000 C 
ATOM      3  O   UNL     1       1.346   6.048  20.275  0.00  0.00    +0.000 OA
ATOM      4  N   UNL     1       2.221   7.902  19.241  0.00  0.00    +0.000 N 
ATOM      5  H   UNL     1       3.837   6.374  18.353  0.00  0.00    +0.000 HD
ATOM      6  H   UNL     1       2.425   8.111  18.273  0.00  0.00    +0.000 HD
ENDROOT
BRANCH   4   7
ATOM      7  C   UNL     1       1.314   8.768  19.896  0.00  0.00    +0.000 A 
ATOM      8  C   UNL     1       0.673   9.801  19.200  0.00  0.00    +0.000 A 
ATOM      9  C   UNL     1      -0.122  10.723  19.879  0.00  0.00    +0.000 A 
ATOM     10  C   UNL     1      -0.272  10.626  21.263  0.00  0.00    +0.000 A 
ATOM     11 CL   UNL     1      -1.216  11.836  22.055  0.00  0.00    +0.000 Cl
ATOM     12  C   UNL     1       0.345   9.576  21.957  0.00  0.00    +0.000 A 
ATOM     13 CL   UNL     1       0.238   9.420  23.675  0.00  0.00    +0.000 Cl
ATOM     14  C   UNL     1       1.113   8.629  21.269  0.00  0.00    +0.000 A 
ENDBRANCH   4   7
BRANCH   1  18
ATOM     15  O   UNL     1       5.021   1.836  20.424  0.00  0.00    +0.000 OA
ATOM     16  C   UNL     1       4.291   2.361  19.585  0.00  0.00    +0.000 C 
ATOM     17  C   UNL     1       4.053   3.825  19.654  0.00  0.00    +0.000 C 
ATOM     18  C   UNL     1       3.246   4.439  18.772  0.00  0.00    +0.000 C 
ATOM     19  C   UNL     1       2.480   3.657  17.720  0.00  0.00    +0.000 C 
ATOM     20  C   UNL     1       2.375   2.165  18.017  0.00  0.00    +0.000 C 
ATOM     21  C   UNL     1       3.711   1.581  18.429  0.00  0.00    +0.000 C 
ENDBRANCH   1  18
TORSDOF 2
ENDMDL
MODEL 9
REMARK VINA RESULT:      -6.8      4.979      5.760
REMARK  Name = 
REMARK  2 active torsions:
REMARK  status: ('A' for Active; 'I' for Inactive)
REMARK    1  A    between atoms: C_4  and  N_5
REMARK    2  A    between atoms: N_8  and  C_9
REMARK                            x       y       z     vdW  Elec       q    Type
REMARK                         _______ _______ _______ _____ _____    ______ ____
ROOT
ATOM      1  N   UNL     1       5.253   4.016  15.532  0.00  0.00    +0.000 N 
ATOM      2  C   UNL     1       4.702   5.015  16.315  0.00  0.00    +0.000 C 
ATOM      3  O   UNL     1       4.753   6.211  16.059  0.00  0.00    +0.000 OA
ATOM      4  N   UNL     1       4.118   4.519  17.475  0.00  0.00    +0.000 N 
ATOM      5  H   UNL     1       5.002   3.069  15.787  0.00  0.00    +0.000 HD
ATOM      6  H   UNL     1       4.625   3.749  17.888  0.00  0.00    +0.000 HD
ENDROOT
BRANCH   4   7
ATOM      7  C   UNL     1       3.502   5.423  18.373  0.00  0.00    +0.000 A 
ATOM      8  C   UNL     1       3.151   5.024  19.669  0.00  0.00    +0.000 A 
ATOM      9  C   UNL     1       2.435   5.882  20.503  0.00  0.00    +0.000 A 
ATOM     10  C   UNL     1       2.055   7.143  20.041  0.00  0.00    +0.000 A 
ATOM     11 CL   UNL     1       1.115   8.135  21.097  0.00  0.00    +0.000 Cl
ATOM     12  C   UNL     1       2.431   7.555  18.756  0.00  0.00    +0.000 A 
ATOM     13 CL   UNL     1       1.957   9.084  18.103  0.00  0.00    +0.000 Cl
ATOM     14  C   UNL     1       3.181   6.706  17.932  0.00  0.00    +0.000 A 
ENDBRANCH   4   7
BRANCH   1  18
ATOM     15  O   UNL     1       8.931   5.960  13.346  0.00  0.00    +0.000 OA
ATOM     16  C   UNL     1       7.920   5.269  13.238  0.00  0.00    +0.000 C 
ATOM     17  C   UNL     1       7.122   4.966  14.453  0.00  0.00    +0.000 C 
ATOM     18  C   UNL     1       6.021   4.197  14.388  0.00  0.00    +0.000 C 
ATOM     19  C   UNL     1       5.590   3.541  13.089  0.00  0.00    +0.000 C 
ATOM     20  C   UNL     1       6.690   3.478  12.035  0.00  0.00    +0.000 C 
ATOM     21  C   UNL     1       7.408   4.804  11.895  0.00  0.00    +0.000 C 
ENDBRANCH   1  18
TORSDOF 2
ENDMDL
