MODEL 1
REMARK VINA RESULT:      -7.2      0.000      0.000
REMARK  Name = 
REMARK  10 active torsions:
REMARK  status: ('A' for Active; 'I' for Inactive)
REMARK    1  A    between atoms: C_1  and  O_2
REMARK    2  A    between atoms: O_2  and  C_3
REMARK    3  A    between atoms: C_8  and  C_9
REMARK    4  A    between atoms: C_9  and  N_10
REMARK    5  A    between atoms: N_10  and  C_11
REMARK    6  A    between atoms: C_13  and  S_14
REMARK    7  A    between atoms: C_18  and  O_19
REMARK    8  A    between atoms: O_19  and  C_20
REMARK    9  A    between atoms: C_21  and  O_22
REMARK   10  A    between atoms: O_22  and  C_23
REMARK                            x       y       z     vdW  Elec       q    Type
REMARK                         _______ _______ _______ _____ _____    ______ ____
ROOT
ATOM      1  C   UNL     1       4.983   4.164  17.076  0.00  0.00    +0.000 A 
ATOM      2  N   UNL     1       5.746   4.301  18.174  0.00  0.00    +0.000 NA
ATOM      3  C   UNL     1       7.013   4.670  17.979  0.00  0.00    +0.000 A 
ATOM      4  N   UNL     1       7.606   4.802  16.799  0.00  0.00    +0.000 NA
ATOM      5  C   UNL     1       6.888   4.521  15.720  0.00  0.00    +0.000 A 
ATOM      6  C   UNL     1       7.524   4.811  14.531  0.00  0.00    +0.000 A 
ATOM      7  C   UNL     1       6.943   4.603  13.283  0.00  0.00    +0.000 A 
ATOM      8  C   UNL     1       5.756   3.883  13.228  0.00  0.00    +0.000 A 
ATOM      9  C   UNL     1       5.033   3.691  14.447  0.00  0.00    +0.000 A 
ATOM     10  C   UNL     1       5.556   4.096  15.744  0.00  0.00    +0.000 A 
ENDROOT
BRANCH   1  11
ATOM     11  N   UNL     1       3.839   4.952  17.314  0.00  0.00    +0.000 N 
ATOM     12  H   UNL     1       4.068   5.218  18.280  0.00  0.00    +0.000 HD
BRANCH  11  13
ATOM     13  C   UNL     1       2.439   4.482  17.458  0.00  0.00    +0.000 C 
BRANCH  13  19
ATOM     14  C   UNL     1       2.495   4.912  20.034  0.00  0.00    +0.000 A 
ATOM     15  C   UNL     1       2.244   4.404  21.324  0.00  0.00    +0.000 A 
ATOM     16  C   UNL     1       1.583   3.193  21.520  0.00  0.00    +0.000 A 
ATOM     17  C   UNL     1       1.158   2.466  20.424  0.00  0.00    +0.000 A 
ATOM     18  C   UNL     1       1.432   2.936  19.144  0.00  0.00    +0.000 A 
ATOM     19  C   UNL     1       2.154   4.120  18.921  0.00  0.00    +0.000 A 
BRANCH  14  21
ATOM     20  C   UNL     1       2.130   7.242  19.935  0.00  0.00    +0.000 C 
ATOM     21  O   UNL     1       3.050   6.148  19.822  0.00  0.00    +0.000 OA
ENDBRANCH  14  21
ENDBRANCH  13  19
ENDBRANCH  11  13
ENDBRANCH   1  11
BRANCH   3  22
ATOM     22  S   UNL     1       7.666   5.757  19.220  0.00  0.00    +0.000 S 
ATOM     23  H   UNL     1       6.707   5.360  20.074  0.00  0.00    +0.000 HD
ENDBRANCH   3  22
BRANCH   7  24
ATOM     24  O   UNL     1       7.705   5.027  12.229  0.00  0.00    +0.000 OA
ATOM     25  C   UNL     1       8.649   6.055  12.542  0.00  0.00    +0.000 C 
ENDBRANCH   7  24
BRANCH   8  26
ATOM     26  O   UNL     1       5.216   3.297  12.110  0.00  0.00    +0.000 OA
ATOM     27  C   UNL     1       5.804   2.092  11.602  0.00  0.00    +0.000 C 
ENDBRANCH   8  26
TORSDOF 7
ENDMDL
MODEL 2
REMARK VINA RESULT:      -6.7      1.268      1.926
REMARK  Name = 
REMARK  10 active torsions:
REMARK  status: ('A' for Active; 'I' for Inactive)
REMARK    1  A    between atoms: C_1  and  O_2
REMARK    2  A    between atoms: O_2  and  C_3
REMARK    3  A    between atoms: C_8  and  C_9
REMARK    4  A    between atoms: C_9  and  N_10
REMARK    5  A    between atoms: N_10  and  C_11
REMARK    6  A    between atoms: C_13  and  S_14
REMARK    7  A    between atoms: C_18  and  O_19
REMARK    8  A    between atoms: O_19  and  C_20
REMARK    9  A    between atoms: C_21  and  O_22
REMARK   10  A    between atoms: O_22  and  C_23
REMARK                            x       y       z     vdW  Elec       q    Type
REMARK                         _______ _______ _______ _____ _____    ______ ____
ROOT
ATOM      1  C   UNL     1       4.995   4.095  16.974  0.00  0.00    +0.000 A 
ATOM      2  N   UNL     1       5.706   4.288  18.097  0.00  0.00    +0.000 NA
ATOM      3  C   UNL     1       6.958   4.723  17.946  0.00  0.00    +0.000 A 
ATOM      4  N   UNL     1       7.589   4.872  16.787  0.00  0.00    +0.000 NA
ATOM      5  C   UNL     1       6.929   4.538  15.686  0.00  0.00    +0.000 A 
ATOM      6  C   UNL     1       7.595   4.847  14.518  0.00  0.00    +0.000 A 
ATOM      7  C   UNL     1       7.075   4.591  13.252  0.00  0.00    +0.000 A 
ATOM      8  C   UNL     1       5.932   3.806  13.163  0.00  0.00    +0.000 A 
ATOM      9  C   UNL     1       5.173   3.592  14.355  0.00  0.00    +0.000 A 
ATOM     10  C   UNL     1       5.622   4.041  15.666  0.00  0.00    +0.000 A 
ENDROOT
BRANCH   1  11
ATOM     11  N   UNL     1       3.802   4.822  17.156  0.00  0.00    +0.000 N 
ATOM     12  H   UNL     1       4.040   5.228  18.070  0.00  0.00    +0.000 HD
BRANCH  11  13
ATOM     13  C   UNL     1       2.447   4.274  17.417  0.00  0.00    +0.000 C 
BRANCH  13  19
ATOM     14  C   UNL     1       2.307   2.626  19.438  0.00  0.00    +0.000 A 
ATOM     15  C   UNL     1       2.074   2.462  20.818  0.00  0.00    +0.000 A 
ATOM     16  C   UNL     1       1.936   3.554  21.673  0.00  0.00    +0.000 A 
ATOM     17  C   UNL     1       2.031   4.834  21.159  0.00  0.00    +0.000 A 
ATOM     18  C   UNL     1       2.223   5.011  19.794  0.00  0.00    +0.000 A 
ATOM     19  C   UNL     1       2.299   3.928  18.903  0.00  0.00    +0.000 A 
BRANCH  14  21
ATOM     20  C   UNL     1       3.899   1.084  18.623  0.00  0.00    +0.000 C 
ATOM     21  O   UNL     1       2.549   1.567  18.600  0.00  0.00    +0.000 OA
ENDBRANCH  14  21
ENDBRANCH  13  19
ENDBRANCH  11  13
ENDBRANCH   1  11
BRANCH   3  22
ATOM     22  S   UNL     1       7.502   5.860  19.195  0.00  0.00    +0.000 S 
ATOM     23  H   UNL     1       6.629   5.325  20.065  0.00  0.00    +0.000 HD
ENDBRANCH   3  22
BRANCH   7  24
ATOM     24  O   UNL     1       7.854   5.043  12.222  0.00  0.00    +0.000 OA
ATOM     25  C   UNL     1       8.789   6.065  12.575  0.00  0.00    +0.000 C 
ENDBRANCH   7  24
BRANCH   8  26
ATOM     26  O   UNL     1       5.469   3.177  12.034  0.00  0.00    +0.000 OA
ATOM     27  C   UNL     1       4.114   3.399  11.619  0.00  0.00    +0.000 C 
ENDBRANCH   8  26
TORSDOF 7
ENDMDL
MODEL 3
REMARK VINA RESULT:      -6.7      2.345      3.398
REMARK  Name = 
REMARK  10 active torsions:
REMARK  status: ('A' for Active; 'I' for Inactive)
REMARK    1  A    between atoms: C_1  and  O_2
REMARK    2  A    between atoms: O_2  and  C_3
REMARK    3  A    between atoms: C_8  and  C_9
REMARK    4  A    between atoms: C_9  and  N_10
REMARK    5  A    between atoms: N_10  and  C_11
REMARK    6  A    between atoms: C_13  and  S_14
REMARK    7  A    between atoms: C_18  and  O_19
REMARK    8  A    between atoms: O_19  and  C_20
REMARK    9  A    between atoms: C_21  and  O_22
REMARK   10  A    between atoms: O_22  and  C_23
REMARK                            x       y       z     vdW  Elec       q    Type
REMARK                         _______ _______ _______ _____ _____    ______ ____
ROOT
ATOM      1  C   UNL     1       3.793   2.409  17.577  0.00  0.00    +0.000 A 
ATOM      2  N   UNL     1       3.726   1.768  18.756  0.00  0.00    +0.000 NA
ATOM      3  C   UNL     1       4.363   2.334  19.782  0.00  0.00    +0.000 A 
ATOM      4  N   UNL     1       5.142   3.407  19.710  0.00  0.00    +0.000 NA
ATOM      5  C   UNL     1       5.324   3.950  18.514  0.00  0.00    +0.000 A 
ATOM      6  C   UNL     1       6.031   5.134  18.537  0.00  0.00    +0.000 A 
ATOM      7  C   UNL     1       6.321   5.873  17.393  0.00  0.00    +0.000 A 
ATOM      8  C   UNL     1       6.069   5.289  16.158  0.00  0.00    +0.000 A 
ATOM      9  C   UNL     1       5.231   4.131  16.125  0.00  0.00    +0.000 A 
ATOM     10  C   UNL     1       4.754   3.469  17.331  0.00  0.00    +0.000 A 
ENDROOT
BRANCH   1  11
ATOM     11  N   UNL     1       2.457   2.554  17.153  0.00  0.00    +0.000 N 
ATOM     12  H   UNL     1       2.616   2.331  16.161  0.00  0.00    +0.000 HD
BRANCH  11  13
ATOM     13  C   UNL     1       1.677   3.813  17.054  0.00  0.00    +0.000 C 
BRANCH  13  19
ATOM     14  C   UNL     1       2.319   5.796  18.630  0.00  0.00    +0.000 A 
ATOM     15  C   UNL     1       2.330   6.308  19.942  0.00  0.00    +0.000 A 
ATOM     16  C   UNL     1       1.666   5.667  20.986  0.00  0.00    +0.000 A 
ATOM     17  C   UNL     1       0.975   4.496  20.734  0.00  0.00    +0.000 A 
ATOM     18  C   UNL     1       0.986   3.959  19.451  0.00  0.00    +0.000 A 
ATOM     19  C   UNL     1       1.702   4.552  18.398  0.00  0.00    +0.000 A 
BRANCH  14  21
ATOM     20  C   UNL     1       3.087   7.866  17.794  0.00  0.00    +0.000 C 
ATOM     21  O   UNL     1       2.876   6.465  17.571  0.00  0.00    +0.000 OA
ENDBRANCH  14  21
ENDBRANCH  13  19
ENDBRANCH  11  13
ENDBRANCH   1  11
BRANCH   3  22
ATOM     22  S   UNL     1       3.544   2.163  21.347  0.00  0.00    +0.000 S 
ATOM     23  H   UNL     1       2.352   2.268  20.736  0.00  0.00    +0.000 HD
ENDBRANCH   3  22
BRANCH   7  24
ATOM     24  O   UNL     1       6.963   7.057  17.636  0.00  0.00    +0.000 OA
ATOM     25  C   UNL     1       8.057   6.973  18.552  0.00  0.00    +0.000 C 
ENDBRANCH   7  24
BRANCH   8  26
ATOM     26  O   UNL     1       6.579   5.697  14.951  0.00  0.00    +0.000 OA
ATOM     27  C   UNL     1       6.845   4.716  13.939  0.00  0.00    +0.000 C 
ENDBRANCH   8  26
TORSDOF 7
ENDMDL
MODEL 4
REMARK VINA RESULT:      -6.6      2.996      4.959
REMARK  Name = 
REMARK  10 active torsions:
REMARK  status: ('A' for Active; 'I' for Inactive)
REMARK    1  A    between atoms: C_1  and  O_2
REMARK    2  A    between atoms: O_2  and  C_3
REMARK    3  A    between atoms: C_8  and  C_9
REMARK    4  A    between atoms: C_9  and  N_10
REMARK    5  A    between atoms: N_10  and  C_11
REMARK    6  A    between atoms: C_13  and  S_14
REMARK    7  A    between atoms: C_18  and  O_19
REMARK    8  A    between atoms: O_19  and  C_20
REMARK    9  A    between atoms: C_21  and  O_22
REMARK   10  A    between atoms: O_22  and  C_23
REMARK                            x       y       z     vdW  Elec       q    Type
REMARK                         _______ _______ _______ _____ _____    ______ ____
ROOT
ATOM      1  C   UNL     1       2.216   5.149  17.975  0.00  0.00    +0.000 A 
ATOM      2  N   UNL     1       1.545   4.317  18.788  0.00  0.00    +0.000 NA
ATOM      3  C   UNL     1       2.278   3.567  19.613  0.00  0.00    +0.000 A 
ATOM      4  N   UNL     1       3.603   3.494  19.617  0.00  0.00    +0.000 NA
ATOM      5  C   UNL     1       4.257   4.208  18.710  0.00  0.00    +0.000 A 
ATOM      6  C   UNL     1       5.628   4.189  18.863  0.00  0.00    +0.000 A 
ATOM      7  C   UNL     1       6.500   4.880  18.026  0.00  0.00    +0.000 A 
ATOM      8  C   UNL     1       5.981   5.445  16.867  0.00  0.00    +0.000 A 
ATOM      9  C   UNL     1       4.561   5.577  16.766  0.00  0.00    +0.000 A 
ATOM     10  C   UNL     1       3.646   5.026  17.756  0.00  0.00    +0.000 A 
ENDROOT
BRANCH   1  11
ATOM     11  N   UNL     1       1.640   6.419  18.180  0.00  0.00    +0.000 N 
ATOM     12  H   UNL     1       1.334   6.576  17.211  0.00  0.00    +0.000 HD
BRANCH  11  13
ATOM     13  C   UNL     1       2.348   7.689  18.478  0.00  0.00    +0.000 C 
BRANCH  13  19
ATOM     14  C   UNL     1       0.736   9.573  19.299  0.00  0.00    +0.000 A 
ATOM     15  C   UNL     1       0.168  10.250  20.397  0.00  0.00    +0.000 A 
ATOM     16  C   UNL     1       0.345   9.803  21.705  0.00  0.00    +0.000 A 
ATOM     17  C   UNL     1       1.095   8.666  21.938  0.00  0.00    +0.000 A 
ATOM     18  C   UNL     1       1.693   8.009  20.868  0.00  0.00    +0.000 A 
ATOM     19  C   UNL     1       1.583   8.477  19.548  0.00  0.00    +0.000 A 
BRANCH  14  21
ATOM     20  C   UNL     1      -0.900  10.112  17.684  0.00  0.00    +0.000 C 
ATOM     21  O   UNL     1       0.487   9.935  17.999  0.00  0.00    +0.000 OA
ENDBRANCH  14  21
ENDBRANCH  13  19
ENDBRANCH  11  13
ENDBRANCH   1  11
BRANCH   3  22
ATOM     22  S   UNL     1       1.553   3.298  21.209  0.00  0.00    +0.000 S 
ATOM     23  H   UNL     1       2.664   3.776  21.796  0.00  0.00    +0.000 HD
ENDBRANCH   3  22
BRANCH   7  24
ATOM     24  O   UNL     1       7.816   4.797  18.391  0.00  0.00    +0.000 OA
ATOM     25  C   UNL     1       8.200   5.660  19.465  0.00  0.00    +0.000 C 
ENDBRANCH   7  24
BRANCH   8  26
ATOM     26  O   UNL     1       6.703   5.862  15.777  0.00  0.00    +0.000 OA
ATOM     27  C   UNL     1       7.043   4.910  14.760  0.00  0.00    +0.000 C 
ENDBRANCH   8  26
TORSDOF 7
ENDMDL
MODEL 5
REMARK VINA RESULT:      -6.6      3.883      5.496
REMARK  Name = 
REMARK  10 active torsions:
REMARK  status: ('A' for Active; 'I' for Inactive)
REMARK    1  A    between atoms: C_1  and  O_2
REMARK    2  A    between atoms: O_2  and  C_3
REMARK    3  A    between atoms: C_8  and  C_9
REMARK    4  A    between atoms: C_9  and  N_10
REMARK    5  A    between atoms: N_10  and  C_11
REMARK    6  A    between atoms: C_13  and  S_14
REMARK    7  A    between atoms: C_18  and  O_19
REMARK    8  A    between atoms: O_19  and  C_20
REMARK    9  A    between atoms: C_21  and  O_22
REMARK   10  A    between atoms: O_22  and  C_23
REMARK                            x       y       z     vdW  Elec       q    Type
REMARK                         _______ _______ _______ _____ _____    ______ ____
ROOT
ATOM      1  C   UNL     1       2.493   6.074  17.786  0.00  0.00    +0.000 A 
ATOM      2  N   UNL     1       1.663   5.030  17.950  0.00  0.00    +0.000 NA
ATOM      3  C   UNL     1       2.215   3.885  18.356  0.00  0.00    +0.000 A 
ATOM      4  N   UNL     1       3.515   3.664  18.501  0.00  0.00    +0.000 NA
ATOM      5  C   UNL     1       4.341   4.655  18.193  0.00  0.00    +0.000 A 
ATOM      6  C   UNL     1       5.662   4.399  18.497  0.00  0.00    +0.000 A 
ATOM      7  C   UNL     1       6.690   5.310  18.267  0.00  0.00    +0.000 A 
ATOM      8  C   UNL     1       6.401   6.440  17.511  0.00  0.00    +0.000 A 
ATOM      9  C   UNL     1       5.027   6.773  17.304  0.00  0.00    +0.000 A 
ATOM     10  C   UNL     1       3.934   5.909  17.730  0.00  0.00    +0.000 A 
ENDROOT
BRANCH   1  11
ATOM     11  N   UNL     1       1.931   7.123  18.540  0.00  0.00    +0.000 N 
ATOM     12  H   UNL     1       2.441   7.891  18.086  0.00  0.00    +0.000 HD
BRANCH  11  13
ATOM     13  C   UNL     1       2.160   7.419  19.976  0.00  0.00    +0.000 C 
BRANCH  13  19
ATOM     14  C   UNL     1       1.009   9.751  19.722  0.00  0.00    +0.000 A 
ATOM     15  C   UNL     1       0.197  10.740  20.311  0.00  0.00    +0.000 A 
ATOM     16  C   UNL     1      -0.459  10.525  21.521  0.00  0.00    +0.000 A 
ATOM     17  C   UNL     1      -0.315   9.311  22.166  0.00  0.00    +0.000 A 
ATOM     18  C   UNL     1       0.513   8.339  21.616  0.00  0.00    +0.000 A 
ATOM     19  C   UNL     1       1.236   8.556  20.431  0.00  0.00    +0.000 A 
BRANCH  14  21
ATOM     20  C   UNL     1       2.026  11.234  18.192  0.00  0.00    +0.000 C 
ATOM     21  O   UNL     1       1.578   9.903  18.483  0.00  0.00    +0.000 OA
ENDBRANCH  14  21
ENDBRANCH  13  19
ENDBRANCH  11  13
ENDBRANCH   1  11
BRANCH   3  22
ATOM     22  S   UNL     1       1.211   2.934  19.467  0.00  0.00    +0.000 S 
ATOM     23  H   UNL     1       2.204   2.939  20.372  0.00  0.00    +0.000 HD
ENDBRANCH   3  22
BRANCH   7  24
ATOM     24  O   UNL     1       7.917   4.899  18.709  0.00  0.00    +0.000 OA
ATOM     25  C   UNL     1       8.315   5.437  19.973  0.00  0.00    +0.000 C 
ENDBRANCH   7  24
BRANCH   8  26
ATOM     26  O   UNL     1       7.318   7.263  16.905  0.00  0.00    +0.000 OA
ATOM     27  C   UNL     1       7.884   8.347  17.653  0.00  0.00    +0.000 C 
ENDBRANCH   8  26
TORSDOF 7
ENDMDL
MODEL 6
REMARK VINA RESULT:      -6.6      3.013      5.108
REMARK  Name = 
REMARK  10 active torsions:
REMARK  status: ('A' for Active; 'I' for Inactive)
REMARK    1  A    between atoms: C_1  and  O_2
REMARK    2  A    between atoms: O_2  and  C_3
REMARK    3  A    between atoms: C_8  and  C_9
REMARK    4  A    between atoms: C_9  and  N_10
REMARK    5  A    between atoms: N_10  and  C_11
REMARK    6  A    between atoms: C_13  and  S_14
REMARK    7  A    between atoms: C_18  and  O_19
REMARK    8  A    between atoms: O_19  and  C_20
REMARK    9  A    between atoms: C_21  and  O_22
REMARK   10  A    between atoms: O_22  and  C_23
REMARK                            x       y       z     vdW  Elec       q    Type
REMARK                         _______ _______ _______ _____ _____    ______ ____
ROOT
ATOM      1  C   UNL     1       2.285   5.180  17.931  0.00  0.00    +0.000 A 
ATOM      2  N   UNL     1       1.581   4.353  18.721  0.00  0.00    +0.000 NA
ATOM      3  C   UNL     1       2.281   3.569  19.542  0.00  0.00    +0.000 A 
ATOM      4  N   UNL     1       3.604   3.460  19.564  0.00  0.00    +0.000 NA
ATOM      5  C   UNL     1       4.290   4.170  18.678  0.00  0.00    +0.000 A 
ATOM      6  C   UNL     1       5.657   4.111  18.849  0.00  0.00    +0.000 A 
ATOM      7  C   UNL     1       6.559   4.793  18.036  0.00  0.00    +0.000 A 
ATOM      8  C   UNL     1       6.072   5.390  16.880  0.00  0.00    +0.000 A 
ATOM      9  C   UNL     1       4.658   5.564  16.762  0.00  0.00    +0.000 A 
ATOM     10  C   UNL     1       3.714   5.021  17.729  0.00  0.00    +0.000 A 
ENDROOT
BRANCH   1  11
ATOM     11  N   UNL     1       1.741   6.462  18.150  0.00  0.00    +0.000 N 
ATOM     12  H   UNL     1       1.788   6.786  17.175  0.00  0.00    +0.000 HD
BRANCH  11  13
ATOM     13  C   UNL     1       2.373   7.594  18.872  0.00  0.00    +0.000 C 
BRANCH  13  19
ATOM     14  C   UNL     1       0.912   9.170  20.357  0.00  0.00    +0.000 A 
ATOM     15  C   UNL     1      -0.103  10.147  20.403  0.00  0.00    +0.000 A 
ATOM     16  C   UNL     1      -0.611  10.732  19.245  0.00  0.00    +0.000 A 
ATOM     17  C   UNL     1      -0.110  10.350  18.015  0.00  0.00    +0.000 A 
ATOM     18  C   UNL     1       0.865   9.361  17.951  0.00  0.00    +0.000 A 
ATOM     19  C   UNL     1       1.346   8.710  19.099  0.00  0.00    +0.000 A 
BRANCH  14  21
ATOM     20  C   UNL     1       1.014   9.220  22.715  0.00  0.00    +0.000 C 
ATOM     21  O   UNL     1       1.497   8.659  21.487  0.00  0.00    +0.000 OA
ENDBRANCH  14  21
ENDBRANCH  13  19
ENDBRANCH  11  13
ENDBRANCH   1  11
BRANCH   3  22
ATOM     22  S   UNL     1       1.527   3.294  21.124  0.00  0.00    +0.000 S 
ATOM     23  H   UNL     1       1.164   2.059  20.738  0.00  0.00    +0.000 HD
ENDBRANCH   3  22
BRANCH   7  24
ATOM     24  O   UNL     1       7.867   4.667  18.418  0.00  0.00    +0.000 OA
ATOM     25  C   UNL     1       8.286   5.572  19.442  0.00  0.00    +0.000 C 
ENDBRANCH   7  24
BRANCH   8  26
ATOM     26  O   UNL     1       6.821   5.806  15.807  0.00  0.00    +0.000 OA
ATOM     27  C   UNL     1       7.049   4.896  14.722  0.00  0.00    +0.000 C 
ENDBRANCH   8  26
TORSDOF 7
ENDMDL
MODEL 7
REMARK VINA RESULT:      -6.6      3.207      5.273
REMARK  Name = 
REMARK  10 active torsions:
REMARK  status: ('A' for Active; 'I' for Inactive)
REMARK    1  A    between atoms: C_1  and  O_2
REMARK    2  A    between atoms: O_2  and  C_3
REMARK    3  A    between atoms: C_8  and  C_9
REMARK    4  A    between atoms: C_9  and  N_10
REMARK    5  A    between atoms: N_10  and  C_11
REMARK    6  A    between atoms: C_13  and  S_14
REMARK    7  A    between atoms: C_18  and  O_19
REMARK    8  A    between atoms: O_19  and  C_20
REMARK    9  A    between atoms: C_21  and  O_22
REMARK   10  A    between atoms: O_22  and  C_23
REMARK                            x       y       z     vdW  Elec       q    Type
REMARK                         _______ _______ _______ _____ _____    ______ ____
ROOT
ATOM      1  C   UNL     1       2.442   5.969  18.779  0.00  0.00    +0.000 A 
ATOM      2  N   UNL     1       1.490   5.026  18.689  0.00  0.00    +0.000 NA
ATOM      3  C   UNL     1       1.829   3.890  18.076  0.00  0.00    +0.000 A 
ATOM      4  N   UNL     1       2.980   3.662  17.455  0.00  0.00    +0.000 NA
ATOM      5  C   UNL     1       3.861   4.653  17.419  0.00  0.00    +0.000 A 
ATOM      6  C   UNL     1       5.080   4.299  16.879  0.00  0.00    +0.000 A 
ATOM      7  C   UNL     1       6.148   5.185  16.759  0.00  0.00    +0.000 A 
ATOM      8  C   UNL     1       5.908   6.532  17.002  0.00  0.00    +0.000 A 
ATOM      9  C   UNL     1       4.697   6.885  17.675  0.00  0.00    +0.000 A 
ATOM     10  C   UNL     1       3.658   5.914  17.987  0.00  0.00    +0.000 A 
ENDROOT
BRANCH   1  11
ATOM     11  N   UNL     1       2.504   6.311  20.145  0.00  0.00    +0.000 N 
ATOM     12  H   UNL     1       2.461   5.353  20.516  0.00  0.00    +0.000 HD
BRANCH  11  13
ATOM     13  C   UNL     1       1.458   6.990  20.949  0.00  0.00    +0.000 C 
BRANCH  13  19
ATOM     14  C   UNL     1       1.051   9.540  21.344  0.00  0.00    +0.000 A 
ATOM     15  C   UNL     1       0.858  10.811  20.767  0.00  0.00    +0.000 A 
ATOM     16  C   UNL     1       1.015  11.027  19.399  0.00  0.00    +0.000 A 
ATOM     17  C   UNL     1       1.371   9.971  18.581  0.00  0.00    +0.000 A 
ATOM     18  C   UNL     1       1.528   8.703  19.130  0.00  0.00    +0.000 A 
ATOM     19  C   UNL     1       1.311   8.448  20.495  0.00  0.00    +0.000 A 
BRANCH  14  21
ATOM     20  C   UNL     1      -0.240   9.689  23.315  0.00  0.00    +0.000 C 
ATOM     21  O   UNL     1       1.004   9.330  22.698  0.00  0.00    +0.000 OA
ENDBRANCH  14  21
ENDBRANCH  13  19
ENDBRANCH  11  13
ENDBRANCH   1  11
BRANCH   3  22
ATOM     22  S   UNL     1       1.102   2.429  18.771  0.00  0.00    +0.000 S 
ATOM     23  H   UNL     1       0.575   2.120  17.574  0.00  0.00    +0.000 HD
ENDBRANCH   3  22
BRANCH   7  24
ATOM     24  O   UNL     1       7.295   4.621  16.271  0.00  0.00    +0.000 OA
ATOM     25  C   UNL     1       7.367   4.538  14.845  0.00  0.00    +0.000 C 
ENDBRANCH   7  24
BRANCH   8  26
ATOM     26  O   UNL     1       6.712   7.578  16.623  0.00  0.00    +0.000 OA
ATOM     27  C   UNL     1       7.695   8.071  17.544  0.00  0.00    +0.000 C 
ENDBRANCH   8  26
TORSDOF 7
ENDMDL
MODEL 8
REMARK VINA RESULT:      -6.6      3.188      4.823
REMARK  Name = 
REMARK  10 active torsions:
REMARK  status: ('A' for Active; 'I' for Inactive)
REMARK    1  A    between atoms: C_1  and  O_2
REMARK    2  A    between atoms: O_2  and  C_3
REMARK    3  A    between atoms: C_8  and  C_9
REMARK    4  A    between atoms: C_9  and  N_10
REMARK    5  A    between atoms: N_10  and  C_11
REMARK    6  A    between atoms: C_13  and  S_14
REMARK    7  A    between atoms: C_18  and  O_19
REMARK    8  A    between atoms: O_19  and  C_20
REMARK    9  A    between atoms: C_21  and  O_22
REMARK   10  A    between atoms: O_22  and  C_23
REMARK                            x       y       z     vdW  Elec       q    Type
REMARK                         _______ _______ _______ _____ _____    ______ ____
ROOT
ATOM      1  C   UNL     1       2.693   6.930  20.059  0.00  0.00    +0.000 A 
ATOM      2  N   UNL     1       1.940   8.025  19.857  0.00  0.00    +0.000 NA
ATOM      3  C   UNL     1       1.980   8.561  18.636  0.00  0.00    +0.000 A 
ATOM      4  N   UNL     1       2.777   8.174  17.648  0.00  0.00    +0.000 NA
ATOM      5  C   UNL     1       3.626   7.187  17.900  0.00  0.00    +0.000 A 
ATOM      6  C   UNL     1       4.323   6.750  16.793  0.00  0.00    +0.000 A 
ATOM      7  C   UNL     1       5.255   5.715  16.836  0.00  0.00    +0.000 A 
ATOM      8  C   UNL     1       5.648   5.243  18.082  0.00  0.00    +0.000 A 
ATOM      9  C   UNL     1       4.849   5.596  19.213  0.00  0.00    +0.000 A 
ATOM     10  C   UNL     1       3.736   6.531  19.130  0.00  0.00    +0.000 A 
ENDROOT
BRANCH   1  11
ATOM     11  N   UNL     1       1.817   5.965  20.594  0.00  0.00    +0.000 N 
ATOM     12  H   UNL     1       2.536   5.354  21.001  0.00  0.00    +0.000 HD
BRANCH  11  13
ATOM     13  C   UNL     1       0.987   4.991  19.842  0.00  0.00    +0.000 C 
BRANCH  13  19
ATOM     14  C   UNL     1       2.683   3.010  20.001  0.00  0.00    +0.000 A 
ATOM     15  C   UNL     1       3.512   2.104  19.311  0.00  0.00    +0.000 A 
ATOM     16  C   UNL     1       3.478   1.991  17.923  0.00  0.00    +0.000 A 
ATOM     17  C   UNL     1       2.610   2.785  17.197  0.00  0.00    +0.000 A 
ATOM     18  C   UNL     1       1.813   3.711  17.862  0.00  0.00    +0.000 A 
ATOM     19  C   UNL     1       1.876   3.889  19.254  0.00  0.00    +0.000 A 
BRANCH  14  21
ATOM     20  C   UNL     1       1.496   2.394  21.947  0.00  0.00    +0.000 C 
ATOM     21  O   UNL     1       2.626   3.063  21.371  0.00  0.00    +0.000 OA
ENDBRANCH  14  21
ENDBRANCH  13  19
ENDBRANCH  11  13
ENDBRANCH   1  11
BRANCH   3  22
ATOM     22  S   UNL     1       0.436   9.232  18.073  0.00  0.00    +0.000 S 
ATOM     23  H   UNL     1       0.204   9.730  19.299  0.00  0.00    +0.000 HD
ENDBRANCH   3  22
BRANCH   7  24
ATOM     24  O   UNL     1       5.780   5.380  15.617  0.00  0.00    +0.000 OA
ATOM     25  C   UNL     1       5.465   4.059  15.168  0.00  0.00    +0.000 C 
ENDBRANCH   7  24
BRANCH   8  26
ATOM     26  O   UNL     1       6.764   4.489  18.345  0.00  0.00    +0.000 OA
ATOM     27  C   UNL     1       7.976   5.150  18.736  0.00  0.00    +0.000 C 
ENDBRANCH   8  26
TORSDOF 7
ENDMDL
MODEL 9
REMARK VINA RESULT:      -6.5      3.851      5.627
REMARK  Name = 
REMARK  10 active torsions:
REMARK  status: ('A' for Active; 'I' for Inactive)
REMARK    1  A    between atoms: C_1  and  O_2
REMARK    2  A    between atoms: O_2  and  C_3
REMARK    3  A    between atoms: C_8  and  C_9
REMARK    4  A    between atoms: C_9  and  N_10
REMARK    5  A    between atoms: N_10  and  C_11
REMARK    6  A    between atoms: C_13  and  S_14
REMARK    7  A    between atoms: C_18  and  O_19
REMARK    8  A    between atoms: O_19  and  C_20
REMARK    9  A    between atoms: C_21  and  O_22
REMARK   10  A    between atoms: O_22  and  C_23
REMARK                            x       y       z     vdW  Elec       q    Type
REMARK                         _______ _______ _______ _____ _____    ______ ____
ROOT
ATOM      1  C   UNL     1       2.574   5.998  17.750  0.00  0.00    +0.000 A 
ATOM      2  N   UNL     1       1.744   4.958  17.937  0.00  0.00    +0.000 NA
ATOM      3  C   UNL     1       2.291   3.830  18.392  0.00  0.00    +0.000 A 
ATOM      4  N   UNL     1       3.590   3.618  18.567  0.00  0.00    +0.000 NA
ATOM      5  C   UNL     1       4.418   4.601  18.239  0.00  0.00    +0.000 A 
ATOM      6  C   UNL     1       5.735   4.360  18.574  0.00  0.00    +0.000 A 
ATOM      7  C   UNL     1       6.763   5.266  18.330  0.00  0.00    +0.000 A 
ATOM      8  C   UNL     1       6.485   6.368  17.530  0.00  0.00    +0.000 A 
ATOM      9  C   UNL     1       5.113   6.689  17.287  0.00  0.00    +0.000 A 
ATOM     10  C   UNL     1       4.016   5.837  17.724  0.00  0.00    +0.000 A 
ENDROOT
BRANCH   1  11
ATOM     11  N   UNL     1       1.995   7.071  18.457  0.00  0.00    +0.000 N 
ATOM     12  H   UNL     1       1.028   6.922  18.143  0.00  0.00    +0.000 HD
BRANCH  11  13
ATOM     13  C   UNL     1       2.175   8.521  18.194  0.00  0.00    +0.000 C 
BRANCH  13  19
ATOM     14  C   UNL     1       0.679   9.344  20.171  0.00  0.00    +0.000 A 
ATOM     15  C   UNL     1      -0.473  10.051  20.568  0.00  0.00    +0.000 A 
ATOM     16  C   UNL     1      -1.226  10.795  19.662  0.00  0.00    +0.000 A 
ATOM     17  C   UNL     1      -0.837  10.845  18.336  0.00  0.00    +0.000 A 
ATOM     18  C   UNL     1       0.276  10.121  17.922  0.00  0.00    +0.000 A 
ATOM     19  C   UNL     1       1.012   9.312  18.803  0.00  0.00    +0.000 A 
BRANCH  14  21
ATOM     20  C   UNL     1       1.370   9.146  22.420  0.00  0.00    +0.000 C 
ATOM     21  O   UNL     1       1.491   8.693  21.065  0.00  0.00    +0.000 OA
ENDBRANCH  14  21
ENDBRANCH  13  19
ENDBRANCH  11  13
ENDBRANCH   1  11
BRANCH   3  22
ATOM     22  S   UNL     1       1.271   2.915  19.518  0.00  0.00    +0.000 S 
ATOM     23  H   UNL     1       0.523   4.010  19.733  0.00  0.00    +0.000 HD
ENDBRANCH   3  22
BRANCH   7  24
ATOM     24  O   UNL     1       7.984   4.874  18.807  0.00  0.00    +0.000 OA
ATOM     25  C   UNL     1       8.347   5.438  20.070  0.00  0.00    +0.000 C 
ENDBRANCH   7  24
BRANCH   8  26
ATOM     26  O   UNL     1       7.410   7.172  16.911  0.00  0.00    +0.000 OA
ATOM     27  C   UNL     1       7.949   8.292  17.625  0.00  0.00    +0.000 C 
ENDBRANCH   8  26
TORSDOF 7
ENDMDL
