MODEL 1
REMARK VINA RESULT:      -7.9      0.000      0.000
REMARK  Name = 
REMARK  8 active torsions:
REMARK  status: ('A' for Active; 'I' for Inactive)
REMARK    1  A    between atoms: C_1  and  C_2
REMARK    2  A    between atoms: C_2  and  C_3
REMARK    3  A    between atoms: C_8  and  C_9
REMARK    4  A    between atoms: C_11  and  C_12
REMARK    5  A    between atoms: N_14  and  C_15
REMARK    6  A    between atoms: N_18  and  C_19
REMARK    7  A    between atoms: C_20  and  C_21
REMARK    8  A    between atoms: C_24  and  N_25
REMARK                            x       y       z     vdW  Elec       q    Type
REMARK                         _______ _______ _______ _____ _____    ______ ____
ROOT
ATOM      1  C   UNL     1       0.760  10.031  21.327  0.00  0.00    +0.000 C 
ATOM      2  O   UNL     1       1.156   9.855  22.466  0.00  0.00    +0.000 OA
ATOM      3  N   UNL     1      -0.173  10.985  20.942  0.00  0.00    +0.000 N 
ATOM      4  H   UNL     1      -0.484  10.979  19.981  0.00  0.00    +0.000 HD
ENDROOT
BRANCH   3   5
ATOM      5  C   UNL     1      -0.725  11.879  21.862  0.00  0.00    +0.000 A 
ATOM      6  C   UNL     1      -1.799  11.667  22.752  0.00  0.00    +0.000 A 
ATOM      7  N   UNL     1      -2.055  12.726  23.519  0.00  0.00    +0.000 NA
ATOM      8  N   UNL     1      -1.135  13.628  23.133  0.00  0.00    +0.000 N 
ATOM      9  C   UNL     1      -1.044  14.858  23.886  0.00  0.00    +0.000 C 
ATOM     10  C   UNL     1      -0.345  13.197  22.084  0.00  0.00    +0.000 A 
BRANCH  10  11
ATOM     11  C   UNL     1       0.688  14.045  21.405  0.00  0.00    +0.000 C 
ATOM     12  C   UNL     1       0.238  14.484  20.008  0.00  0.00    +0.000 C 
ATOM     13  C   UNL     1       1.019  15.720  19.560  0.00  0.00    +0.000 C 
ATOM     14  C   UNL     1       2.365  15.405  18.888  0.00  0.00    +0.000 C 
ATOM     15  C   UNL     1       3.135  14.199  19.463  0.00  0.00    +0.000 C 
ATOM     16  F   UNL     1       2.656  13.057  18.883  0.00  0.00    +0.000 F 
ATOM     17  C   UNL     1       3.056  14.052  20.981  0.00  0.00    +0.000 C 
ATOM     18  O   UNL     1       1.906  13.316  21.400  0.00  0.00    +0.000 OA
BRANCH  14  19
ATOM     19  N   UNL     1       3.178  16.636  18.893  0.00  0.00    +0.000 NA
ATOM     20  H   UNL     1       2.685  17.397  18.428  0.00  0.00    +0.000 HD
ATOM     21  H   UNL     1       4.028  16.482  18.347  0.00  0.00    +0.000 HD
ENDBRANCH  14  19
ENDBRANCH  10  11
ENDBRANCH   3   5
BRANCH   1  24
ATOM     22  C   UNL     1       2.169   7.420  19.240  0.00  0.00    +0.000 A 
ATOM     23  N   UNL     1       1.759   7.892  20.408  0.00  0.00    +0.000 NA
ATOM     24  C   UNL     1       1.284   9.191  20.246  0.00  0.00    +0.000 A 
ATOM     25  C   UNL     1       1.340   9.671  18.950  0.00  0.00    +0.000 A 
ATOM     26  S   UNL     1       1.994   8.509  17.907  0.00  0.00    +0.000 S 
BRANCH  22  32
ATOM     27  C   UNL     1       4.494   4.720  17.936  0.00  0.00    +0.000 A 
ATOM     28  C   UNL     1       4.017   3.609  18.635  0.00  0.00    +0.000 A 
ATOM     29  C   UNL     1       2.933   3.735  19.504  0.00  0.00    +0.000 A 
ATOM     30  C   UNL     1       2.326   4.977  19.685  0.00  0.00    +0.000 A 
ATOM     31  F   UNL     1       1.306   5.056  20.553  0.00  0.00    +0.000 F 
ATOM     32  C   UNL     1       2.781   6.108  19.005  0.00  0.00    +0.000 A 
ATOM     33  C   UNL     1       3.865   5.958  18.116  0.00  0.00    +0.000 A 
BRANCH  27  35
ATOM     34  C   UNL     1       5.324   4.271  15.628  0.00  0.00    +0.000 C 
ATOM     35  C   UNL     1       5.716   4.612  17.059  0.00  0.00    +0.000 C 
ENDBRANCH  27  35
ENDBRANCH  22  32
ENDBRANCH   1  24
TORSDOF 6
ENDMDL
MODEL 2
REMARK VINA RESULT:      -7.8      0.995      1.942
REMARK  Name = 
REMARK  8 active torsions:
REMARK  status: ('A' for Active; 'I' for Inactive)
REMARK    1  A    between atoms: C_1  and  C_2
REMARK    2  A    between atoms: C_2  and  C_3
REMARK    3  A    between atoms: C_8  and  C_9
REMARK    4  A    between atoms: C_11  and  C_12
REMARK    5  A    between atoms: N_14  and  C_15
REMARK    6  A    between atoms: N_18  and  C_19
REMARK    7  A    between atoms: C_20  and  C_21
REMARK    8  A    between atoms: C_24  and  N_25
REMARK                            x       y       z     vdW  Elec       q    Type
REMARK                         _______ _______ _______ _____ _____    ______ ____
ROOT
ATOM      1  C   UNL     1       0.787  10.076  21.301  0.00  0.00    +0.000 C 
ATOM      2  O   UNL     1       1.211   9.915  22.433  0.00  0.00    +0.000 OA
ATOM      3  N   UNL     1      -0.166  11.014  20.930  0.00  0.00    +0.000 N 
ATOM      4  H   UNL     1      -0.499  10.996  19.976  0.00  0.00    +0.000 HD
ENDROOT
BRANCH   3   5
ATOM      5  C   UNL     1      -0.710  11.908  21.854  0.00  0.00    +0.000 A 
ATOM      6  C   UNL     1      -1.786  11.702  22.743  0.00  0.00    +0.000 A 
ATOM      7  N   UNL     1      -2.032  12.759  23.516  0.00  0.00    +0.000 NA
ATOM      8  N   UNL     1      -1.104  13.655  23.134  0.00  0.00    +0.000 N 
ATOM      9  C   UNL     1      -1.001  14.879  23.893  0.00  0.00    +0.000 C 
ATOM     10  C   UNL     1      -0.317  13.222  22.083  0.00  0.00    +0.000 A 
BRANCH  10  11
ATOM     11  C   UNL     1       0.724  14.063  21.409  0.00  0.00    +0.000 C 
ATOM     12  C   UNL     1       0.289  14.492  20.003  0.00  0.00    +0.000 C 
ATOM     13  C   UNL     1       1.076  15.724  19.554  0.00  0.00    +0.000 C 
ATOM     14  C   UNL     1       2.428  15.402  18.899  0.00  0.00    +0.000 C 
ATOM     15  C   UNL     1       3.191  14.200  19.491  0.00  0.00    +0.000 C 
ATOM     16  F   UNL     1       2.717  13.054  18.915  0.00  0.00    +0.000 F 
ATOM     17  C   UNL     1       3.095  14.065  21.010  0.00  0.00    +0.000 C 
ATOM     18  O   UNL     1       1.940  13.333  21.422  0.00  0.00    +0.000 OA
BRANCH  14  19
ATOM     19  N   UNL     1       3.242  16.632  18.903  0.00  0.00    +0.000 NA
ATOM     20  H   UNL     1       2.648  17.460  18.918  0.00  0.00    +0.000 HD
ATOM     21  H   UNL     1       3.774  16.689  18.032  0.00  0.00    +0.000 HD
ENDBRANCH  14  19
ENDBRANCH  10  11
ENDBRANCH   3   5
BRANCH   1  24
ATOM     22  C   UNL     1       2.158   7.455  19.202  0.00  0.00    +0.000 A 
ATOM     23  N   UNL     1       1.756   7.927  20.371  0.00  0.00    +0.000 NA
ATOM     24  C   UNL     1       1.299   9.234  20.216  0.00  0.00    +0.000 A 
ATOM     25  C   UNL     1       1.362   9.719  18.923  0.00  0.00    +0.000 A 
ATOM     26  S   UNL     1       1.998   8.553  17.874  0.00  0.00    +0.000 S 
BRANCH  22  32
ATOM     27  C   UNL     1       2.766   3.711  19.317  0.00  0.00    +0.000 A 
ATOM     28  C   UNL     1       3.822   3.594  18.411  0.00  0.00    +0.000 A 
ATOM     29  C   UNL     1       4.347   4.727  17.787  0.00  0.00    +0.000 A 
ATOM     30  C   UNL     1       3.809   5.983  18.062  0.00  0.00    +0.000 A 
ATOM     31  F   UNL     1       4.325   7.041  17.417  0.00  0.00    +0.000 F 
ATOM     32  C   UNL     1       2.750   6.135  18.959  0.00  0.00    +0.000 A 
ATOM     33  C   UNL     1       2.246   4.982  19.593  0.00  0.00    +0.000 A 
BRANCH  27  35
ATOM     34  C   UNL     1       1.325   2.858  21.163  0.00  0.00    +0.000 C 
ATOM     35  C   UNL     1       2.138   2.486  19.931  0.00  0.00    +0.000 C 
ENDBRANCH  27  35
ENDBRANCH  22  32
ENDBRANCH   1  24
TORSDOF 6
ENDMDL
MODEL 3
REMARK VINA RESULT:      -7.7      3.521      8.946
REMARK  Name = 
REMARK  8 active torsions:
REMARK  status: ('A' for Active; 'I' for Inactive)
REMARK    1  A    between atoms: C_1  and  C_2
REMARK    2  A    between atoms: C_2  and  C_3
REMARK    3  A    between atoms: C_8  and  C_9
REMARK    4  A    between atoms: C_11  and  C_12
REMARK    5  A    between atoms: N_14  and  C_15
REMARK    6  A    between atoms: N_18  and  C_19
REMARK    7  A    between atoms: C_20  and  C_21
REMARK    8  A    between atoms: C_24  and  N_25
REMARK                            x       y       z     vdW  Elec       q    Type
REMARK                         _______ _______ _______ _____ _____    ______ ____
ROOT
ATOM      1  C   UNL     1       1.806   7.159  19.657  0.00  0.00    +0.000 C 
ATOM      2  O   UNL     1       1.894   6.950  18.460  0.00  0.00    +0.000 OA
ATOM      3  N   UNL     1       2.039   6.220  20.653  0.00  0.00    +0.000 N 
ATOM      4  H   UNL     1       1.852   6.491  21.609  0.00  0.00    +0.000 HD
ENDROOT
BRANCH   3   5
ATOM      5  C   UNL     1       2.444   4.919  20.350  0.00  0.00    +0.000 A 
ATOM      6  C   UNL     1       1.785   3.706  20.644  0.00  0.00    +0.000 A 
ATOM      7  N   UNL     1       2.435   2.638  20.183  0.00  0.00    +0.000 NA
ATOM      8  N   UNL     1       3.517   3.159  19.578  0.00  0.00    +0.000 N 
ATOM      9  C   UNL     1       4.369   2.260  18.835  0.00  0.00    +0.000 C 
ATOM     10  C   UNL     1       3.613   4.533  19.705  0.00  0.00    +0.000 A 
BRANCH  10  11
ATOM     11  C   UNL     1       4.770   5.345  19.206  0.00  0.00    +0.000 C 
ATOM     12  C   UNL     1       4.751   5.487  17.680  0.00  0.00    +0.000 C 
ATOM     13  C   UNL     1       5.582   6.696  17.248  0.00  0.00    +0.000 C 
ATOM     14  C   UNL     1       7.080   6.400  17.074  0.00  0.00    +0.000 C 
ATOM     15  C   UNL     1       7.685   5.393  18.073  0.00  0.00    +0.000 C 
ATOM     16  F   UNL     1       7.451   4.126  17.613  0.00  0.00    +0.000 F 
ATOM     17  C   UNL     1       7.151   5.506  19.500  0.00  0.00    +0.000 C 
ATOM     18  O   UNL     1       5.959   4.747  19.700  0.00  0.00    +0.000 OA
BRANCH  14  19
ATOM     19  N   UNL     1       7.804   7.685  17.075  0.00  0.00    +0.000 NA
ATOM     20  H   UNL     1       7.604   8.213  16.227  0.00  0.00    +0.000 HD
ATOM     21  H   UNL     1       8.810   7.507  17.061  0.00  0.00    +0.000 HD
ENDBRANCH  14  19
ENDBRANCH  10  11
ENDBRANCH   3   5
BRANCH   1  24
ATOM     22  C   UNL     1       1.014  10.676  20.058  0.00  0.00    +0.000 A 
ATOM     23  N   UNL     1       1.379   9.635  19.327  0.00  0.00    +0.000 NA
ATOM     24  C   UNL     1       1.429   8.496  20.127  0.00  0.00    +0.000 A 
ATOM     25  C   UNL     1       1.091   8.703  21.451  0.00  0.00    +0.000 A 
ATOM     26  S   UNL     1       0.709  10.329  21.726  0.00  0.00    +0.000 S 
BRANCH  22  32
ATOM     27  C   UNL     1       1.908  14.244  19.124  0.00  0.00    +0.000 A 
ATOM     28  C   UNL     1       0.691  14.686  18.601  0.00  0.00    +0.000 A 
ATOM     29  C   UNL     1      -0.417  13.837  18.575  0.00  0.00    +0.000 A 
ATOM     30  C   UNL     1      -0.307  12.536  19.066  0.00  0.00    +0.000 A 
ATOM     31  F   UNL     1      -1.390  11.746  18.994  0.00  0.00    +0.000 F 
ATOM     32  C   UNL     1       0.895  12.062  19.592  0.00  0.00    +0.000 A 
ATOM     33  C   UNL     1       1.998  12.940  19.627  0.00  0.00    +0.000 A 
BRANCH  27  35
ATOM     34  C   UNL     1       3.555  15.385  17.641  0.00  0.00    +0.000 C 
ATOM     35  C   UNL     1       3.131  15.125  19.080  0.00  0.00    +0.000 C 
ENDBRANCH  27  35
ENDBRANCH  22  32
ENDBRANCH   1  24
TORSDOF 6
ENDMDL
MODEL 4
REMARK VINA RESULT:      -7.7      1.493      2.249
REMARK  Name = 
REMARK  8 active torsions:
REMARK  status: ('A' for Active; 'I' for Inactive)
REMARK    1  A    between atoms: C_1  and  C_2
REMARK    2  A    between atoms: C_2  and  C_3
REMARK    3  A    between atoms: C_8  and  C_9
REMARK    4  A    between atoms: C_11  and  C_12
REMARK    5  A    between atoms: N_14  and  C_15
REMARK    6  A    between atoms: N_18  and  C_19
REMARK    7  A    between atoms: C_20  and  C_21
REMARK    8  A    between atoms: C_24  and  N_25
REMARK                            x       y       z     vdW  Elec       q    Type
REMARK                         _______ _______ _______ _____ _____    ______ ____
ROOT
ATOM      1  C   UNL     1       0.409   9.902  19.893  0.00  0.00    +0.000 C 
ATOM      2  O   UNL     1      -0.558  10.301  19.267  0.00  0.00    +0.000 OA
ATOM      3  N   UNL     1       0.724  10.264  21.196  0.00  0.00    +0.000 N 
ATOM      4  H   UNL     1       1.598   9.932  21.579  0.00  0.00    +0.000 HD
ENDROOT
BRANCH   3   5
ATOM      5  C   UNL     1      -0.096  11.119  21.935  0.00  0.00    +0.000 A 
ATOM      6  C   UNL     1      -1.143  10.781  22.818  0.00  0.00    +0.000 A 
ATOM      7  N   UNL     1      -1.708  11.846  23.386  0.00  0.00    +0.000 NA
ATOM      8  N   UNL     1      -1.017  12.881  22.877  0.00  0.00    +0.000 N 
ATOM      9  C   UNL     1      -1.289  14.196  23.412  0.00  0.00    +0.000 C 
ATOM     10  C   UNL     1      -0.073  12.509  21.939  0.00  0.00    +0.000 A 
BRANCH  10  11
ATOM     11  C   UNL     1       0.761  13.476  21.155  0.00  0.00    +0.000 C 
ATOM     12  C   UNL     1       0.179  13.732  19.760  0.00  0.00    +0.000 C 
ATOM     13  C   UNL     1       0.706  15.051  19.196  0.00  0.00    +0.000 C 
ATOM     14  C   UNL     1       2.056  14.932  18.471  0.00  0.00    +0.000 C 
ATOM     15  C   UNL     1       3.054  13.922  19.074  0.00  0.00    +0.000 C 
ATOM     16  F   UNL     1       2.761  12.677  18.591  0.00  0.00    +0.000 F 
ATOM     17  C   UNL     1       3.068  13.869  20.601  0.00  0.00    +0.000 C 
ATOM     18  O   UNL     1       2.088  12.973  21.126  0.00  0.00    +0.000 OA
BRANCH  14  19
ATOM     19  N   UNL     1       2.636  16.283  18.357  0.00  0.00    +0.000 NA
ATOM     20  H   UNL     1       2.108  16.848  17.692  0.00  0.00    +0.000 HD
ATOM     21  H   UNL     1       3.580  16.215  17.974  0.00  0.00    +0.000 HD
ENDBRANCH  14  19
ENDBRANCH  10  11
ENDBRANCH   3   5
BRANCH   1  24
ATOM     22  C   UNL     1       2.568   7.135  18.973  0.00  0.00    +0.000 A 
ATOM     23  N   UNL     1       1.708   7.728  19.787  0.00  0.00    +0.000 NA
ATOM     24  C   UNL     1       1.339   8.963  19.258  0.00  0.00    +0.000 A 
ATOM     25  C   UNL     1       1.927   9.272  18.045  0.00  0.00    +0.000 A 
ATOM     26  S   UNL     1       2.959   8.028  17.543  0.00  0.00    +0.000 S 
BRANCH  22  32
ATOM     27  C   UNL     1       3.143   3.520  19.971  0.00  0.00    +0.000 A 
ATOM     28  C   UNL     1       4.461   3.342  19.546  0.00  0.00    +0.000 A 
ATOM     29  C   UNL     1       5.163   4.397  18.962  0.00  0.00    +0.000 A 
ATOM     30  C   UNL     1       4.544   5.635  18.792  0.00  0.00    +0.000 A 
ATOM     31  F   UNL     1       5.248   6.612  18.200  0.00  0.00    +0.000 F 
ATOM     32  C   UNL     1       3.227   5.845  19.203  0.00  0.00    +0.000 A 
ATOM     33  C   UNL     1       2.540   4.773  19.807  0.00  0.00    +0.000 A 
BRANCH  27  35
ATOM     34  C   UNL     1       1.372   2.843  21.589  0.00  0.00    +0.000 C 
ATOM     35  C   UNL     1       2.350   2.364  20.525  0.00  0.00    +0.000 C 
ENDBRANCH  27  35
ENDBRANCH  22  32
ENDBRANCH   1  24
TORSDOF 6
ENDMDL
MODEL 5
REMARK VINA RESULT:      -7.7      3.186      9.161
REMARK  Name = 
REMARK  8 active torsions:
REMARK  status: ('A' for Active; 'I' for Inactive)
REMARK    1  A    between atoms: C_1  and  C_2
REMARK    2  A    between atoms: C_2  and  C_3
REMARK    3  A    between atoms: C_8  and  C_9
REMARK    4  A    between atoms: C_11  and  C_12
REMARK    5  A    between atoms: N_14  and  C_15
REMARK    6  A    between atoms: N_18  and  C_19
REMARK    7  A    between atoms: C_20  and  C_21
REMARK    8  A    between atoms: C_24  and  N_25
REMARK                            x       y       z     vdW  Elec       q    Type
REMARK                         _______ _______ _______ _____ _____    ______ ____
ROOT
ATOM      1  C   UNL     1       1.840   7.644  19.081  0.00  0.00    +0.000 C 
ATOM      2  O   UNL     1       1.918   7.157  17.966  0.00  0.00    +0.000 OA
ATOM      3  N   UNL     1       2.033   6.956  20.270  0.00  0.00    +0.000 N 
ATOM      4  H   UNL     1       1.859   7.449  21.134  0.00  0.00    +0.000 HD
ENDROOT
BRANCH   3   5
ATOM      5  C   UNL     1       2.383   5.604  20.283  0.00  0.00    +0.000 A 
ATOM      6  C   UNL     1       1.652   4.515  20.803  0.00  0.00    +0.000 A 
ATOM      7  N   UNL     1       2.264   3.345  20.625  0.00  0.00    +0.000 NA
ATOM      8  N   UNL     1       3.395   3.674  19.976  0.00  0.00    +0.000 N 
ATOM      9  C   UNL     1       4.230   2.597  19.496  0.00  0.00    +0.000 C 
ATOM     10  C   UNL     1       3.557   5.036  19.802  0.00  0.00    +0.000 A 
BRANCH  10  11
ATOM     11  C   UNL     1       4.773   5.668  19.196  0.00  0.00    +0.000 C 
ATOM     12  C   UNL     1       4.726   5.644  17.664  0.00  0.00    +0.000 C 
ATOM     13  C   UNL     1       5.660   6.709  17.086  0.00  0.00    +0.000 C 
ATOM     14  C   UNL     1       7.116   6.246  16.921  0.00  0.00    +0.000 C 
ATOM     15  C   UNL     1       7.646   5.299  18.016  0.00  0.00    +0.000 C 
ATOM     16  F   UNL     1       7.277   4.019  17.704  0.00  0.00    +0.000 F 
ATOM     17  C   UNL     1       7.166   5.620  19.430  0.00  0.00    +0.000 C 
ATOM     18  O   UNL     1       5.911   5.011  19.733  0.00  0.00    +0.000 OA
BRANCH  14  19
ATOM     19  N   UNL     1       7.962   7.445  16.767  0.00  0.00    +0.000 NA
ATOM     20  H   UNL     1       7.580   8.228  17.296  0.00  0.00    +0.000 HD
ATOM     21  H   UNL     1       7.955   7.740  15.789  0.00  0.00    +0.000 HD
ENDBRANCH  14  19
ENDBRANCH  10  11
ENDBRANCH   3   5
BRANCH   1  24
ATOM     22  C   UNL     1       0.758  10.940  20.141  0.00  0.00    +0.000 A 
ATOM     23  N   UNL     1       0.918   9.641  20.340  0.00  0.00    +0.000 NA
ATOM     24  C   UNL     1       1.519   9.068  19.221  0.00  0.00    +0.000 A 
ATOM     25  C   UNL     1       1.808   9.955  18.201  0.00  0.00    +0.000 A 
ATOM     26  S   UNL     1       1.329  11.524  18.615  0.00  0.00    +0.000 S 
BRANCH  22  32
ATOM     27  C   UNL     1      -1.639  12.409  22.690  0.00  0.00    +0.000 A 
ATOM     28  C   UNL     1      -1.051  13.656  22.908  0.00  0.00    +0.000 A 
ATOM     29  C   UNL     1       0.103  14.024  22.214  0.00  0.00    +0.000 A 
ATOM     30  C   UNL     1       0.678  13.139  21.303  0.00  0.00    +0.000 A 
ATOM     31  F   UNL     1       1.803  13.524  20.680  0.00  0.00    +0.000 F 
ATOM     32  C   UNL     1       0.117  11.883  21.063  0.00  0.00    +0.000 A 
ATOM     33  C   UNL     1      -1.058  11.537  21.760  0.00  0.00    +0.000 A 
BRANCH  27  35
ATOM     34  C   UNL     1      -3.935  13.021  23.444  0.00  0.00    +0.000 C 
ATOM     35  C   UNL     1      -2.836  11.969  23.495  0.00  0.00    +0.000 C 
ENDBRANCH  27  35
ENDBRANCH  22  32
ENDBRANCH   1  24
TORSDOF 6
ENDMDL
MODEL 6
REMARK VINA RESULT:      -7.6      3.326      9.098
REMARK  Name = 
REMARK  8 active torsions:
REMARK  status: ('A' for Active; 'I' for Inactive)
REMARK    1  A    between atoms: C_1  and  C_2
REMARK    2  A    between atoms: C_2  and  C_3
REMARK    3  A    between atoms: C_8  and  C_9
REMARK    4  A    between atoms: C_11  and  C_12
REMARK    5  A    between atoms: N_14  and  C_15
REMARK    6  A    between atoms: N_18  and  C_19
REMARK    7  A    between atoms: C_20  and  C_21
REMARK    8  A    between atoms: C_24  and  N_25
REMARK                            x       y       z     vdW  Elec       q    Type
REMARK                         _______ _______ _______ _____ _____    ______ ____
ROOT
ATOM      1  C   UNL     1       1.816   7.475  19.214  0.00  0.00    +0.000 C 
ATOM      2  O   UNL     1       1.882   7.020  18.085  0.00  0.00    +0.000 OA
ATOM      3  N   UNL     1       2.049   6.758  20.380  0.00  0.00    +0.000 N 
ATOM      4  H   UNL     1       1.881   7.224  21.261  0.00  0.00    +0.000 HD
ENDROOT
BRANCH   3   5
ATOM      5  C   UNL     1       2.428   5.415  20.348  0.00  0.00    +0.000 A 
ATOM      6  C   UNL     1       1.730   4.296  20.850  0.00  0.00    +0.000 A 
ATOM      7  N   UNL     1       2.364   3.145  20.627  0.00  0.00    +0.000 NA
ATOM      8  N   UNL     1       3.475   3.517  19.968  0.00  0.00    +0.000 N 
ATOM      9  C   UNL     1       4.324   2.473  19.441  0.00  0.00    +0.000 C 
ATOM     10  C   UNL     1       3.604   4.886  19.829  0.00  0.00    +0.000 A 
BRANCH  10  11
ATOM     11  C   UNL     1       4.795   5.562  19.220  0.00  0.00    +0.000 C 
ATOM     12  C   UNL     1       4.740   5.545  17.688  0.00  0.00    +0.000 C 
ATOM     13  C   UNL     1       5.634   6.643  17.111  0.00  0.00    +0.000 C 
ATOM     14  C   UNL     1       7.104   6.230  16.935  0.00  0.00    +0.000 C 
ATOM     15  C   UNL     1       7.672   5.295  18.021  0.00  0.00    +0.000 C 
ATOM     16  F   UNL     1       7.343   4.006  17.704  0.00  0.00    +0.000 F 
ATOM     17  C   UNL     1       7.190   5.592  19.440  0.00  0.00    +0.000 C 
ATOM     18  O   UNL     1       5.957   4.940  19.746  0.00  0.00    +0.000 OA
BRANCH  14  19
ATOM     19  N   UNL     1       7.909   7.457  16.783  0.00  0.00    +0.000 NA
ATOM     20  H   UNL     1       7.309   8.266  16.629  0.00  0.00    +0.000 HD
ATOM     21  H   UNL     1       8.489   7.379  15.946  0.00  0.00    +0.000 HD
ENDBRANCH  14  19
ENDBRANCH  10  11
ENDBRANCH   3   5
BRANCH   1  24
ATOM     22  C   UNL     1       0.697  10.717  20.393  0.00  0.00    +0.000 A 
ATOM     23  N   UNL     1       0.892   9.418  20.553  0.00  0.00    +0.000 NA
ATOM     24  C   UNL     1       1.468   8.887  19.401  0.00  0.00    +0.000 A 
ATOM     25  C   UNL     1       1.702   9.805  18.394  0.00  0.00    +0.000 A 
ATOM     26  S   UNL     1       1.201  11.352  18.864  0.00  0.00    +0.000 S 
BRANCH  22  32
ATOM     27  C   UNL     1      -0.385  13.890  22.171  0.00  0.00    +0.000 A 
ATOM     28  C   UNL     1      -1.229  13.362  23.150  0.00  0.00    +0.000 A 
ATOM     29  C   UNL     1      -1.424  11.983  23.245  0.00  0.00    +0.000 A 
ATOM     30  C   UNL     1      -0.781  11.127  22.352  0.00  0.00    +0.000 A 
ATOM     31  F   UNL     1      -1.022   9.811  22.462  0.00  0.00    +0.000 F 
ATOM     32  C   UNL     1       0.066  11.623  21.359  0.00  0.00    +0.000 A 
ATOM     33  C   UNL     1       0.266  13.016  21.291  0.00  0.00    +0.000 A 
BRANCH  27  35
ATOM     34  C   UNL     1      -1.565  16.021  21.641  0.00  0.00    +0.000 C 
ATOM     35  C   UNL     1      -0.233  15.382  22.007  0.00  0.00    +0.000 C 
ENDBRANCH  27  35
ENDBRANCH  22  32
ENDBRANCH   1  24
TORSDOF 6
ENDMDL
MODEL 7
REMARK VINA RESULT:      -7.5      3.025      4.318
REMARK  Name = 
REMARK  8 active torsions:
REMARK  status: ('A' for Active; 'I' for Inactive)
REMARK    1  A    between atoms: C_1  and  C_2
REMARK    2  A    between atoms: C_2  and  C_3
REMARK    3  A    between atoms: C_8  and  C_9
REMARK    4  A    between atoms: C_11  and  C_12
REMARK    5  A    between atoms: N_14  and  C_15
REMARK    6  A    between atoms: N_18  and  C_19
REMARK    7  A    between atoms: C_20  and  C_21
REMARK    8  A    between atoms: C_24  and  N_25
REMARK                            x       y       z     vdW  Elec       q    Type
REMARK                         _______ _______ _______ _____ _____    ______ ____
ROOT
ATOM      1  C   UNL     1       0.848  10.137  20.074  0.00  0.00    +0.000 C 
ATOM      2  O   UNL     1       0.164   9.855  21.044  0.00  0.00    +0.000 OA
ATOM      3  N   UNL     1       1.042  11.419  19.578  0.00  0.00    +0.000 N 
ATOM      4  H   UNL     1       1.563  11.517  18.718  0.00  0.00    +0.000 HD
ENDROOT
BRANCH   3   5
ATOM      5  C   UNL     1       0.476  12.535  20.196  0.00  0.00    +0.000 A 
ATOM      6  C   UNL     1       1.019  13.335  21.224  0.00  0.00    +0.000 A 
ATOM      7  N   UNL     1       0.225  14.349  21.568  0.00  0.00    +0.000 NA
ATOM      8  N   UNL     1      -0.836  14.212  20.753  0.00  0.00    +0.000 N 
ATOM      9  C   UNL     1      -1.833  15.257  20.770  0.00  0.00    +0.000 C 
ATOM     10  C   UNL     1      -0.773  13.091  19.946  0.00  0.00    +0.000 A 
BRANCH  10  11
ATOM     11  C   UNL     1      -1.868  12.659  19.019  0.00  0.00    +0.000 C 
ATOM     12  C   UNL     1      -3.044  12.033  19.777  0.00  0.00    +0.000 C 
ATOM     13  C   UNL     1      -4.314  12.082  18.926  0.00  0.00    +0.000 C 
ATOM     14  C   UNL     1      -4.470  10.896  17.961  0.00  0.00    +0.000 C 
ATOM     15  C   UNL     1      -3.166  10.367  17.332  0.00  0.00    +0.000 C 
ATOM     16  F   UNL     1      -2.583   9.491  18.205  0.00  0.00    +0.000 F 
ATOM     17  C   UNL     1      -2.149  11.446  16.962  0.00  0.00    +0.000 C 
ATOM     18  O   UNL     1      -1.296  11.790  18.054  0.00  0.00    +0.000 OA
BRANCH  14  19
ATOM     19  N   UNL     1      -5.469  11.266  16.940  0.00  0.00    +0.000 NA
ATOM     20  H   UNL     1      -6.410  11.031  17.252  0.00  0.00    +0.000 HD
ATOM     21  H   UNL     1      -5.311  10.713  16.096  0.00  0.00    +0.000 HD
ENDBRANCH  14  19
ENDBRANCH  10  11
ENDBRANCH   3   5
BRANCH   1  24
ATOM     22  C   UNL     1       2.492   7.098  18.971  0.00  0.00    +0.000 A 
ATOM     23  N   UNL     1       1.867   7.825  19.884  0.00  0.00    +0.000 NA
ATOM     24  C   UNL     1       1.538   9.068  19.347  0.00  0.00    +0.000 A 
ATOM     25  C   UNL     1       1.920   9.249  18.031  0.00  0.00    +0.000 A 
ATOM     26  S   UNL     1       2.703   7.871  17.437  0.00  0.00    +0.000 S 
BRANCH  22  32
ATOM     27  C   UNL     1       2.717   3.366  19.618  0.00  0.00    +0.000 A 
ATOM     28  C   UNL     1       4.085   3.154  19.434  0.00  0.00    +0.000 A 
ATOM     29  C   UNL     1       4.929   4.222  19.124  0.00  0.00    +0.000 A 
ATOM     30  C   UNL     1       4.405   5.507  18.991  0.00  0.00    +0.000 A 
ATOM     31  F   UNL     1       5.249   6.498  18.664  0.00  0.00    +0.000 F 
ATOM     32  C   UNL     1       3.042   5.752  19.165  0.00  0.00    +0.000 A 
ATOM     33  C   UNL     1       2.208   4.665  19.495  0.00  0.00    +0.000 A 
BRANCH  27  35
ATOM     34  C   UNL     1       0.598   2.256  18.919  0.00  0.00    +0.000 C 
ATOM     35  C   UNL     1       1.786   2.207  19.870  0.00  0.00    +0.000 C 
ENDBRANCH  27  35
ENDBRANCH  22  32
ENDBRANCH   1  24
TORSDOF 6
ENDMDL
MODEL 8
REMARK VINA RESULT:      -7.5      1.046      1.070
REMARK  Name = 
REMARK  8 active torsions:
REMARK  status: ('A' for Active; 'I' for Inactive)
REMARK    1  A    between atoms: C_1  and  C_2
REMARK    2  A    between atoms: C_2  and  C_3
REMARK    3  A    between atoms: C_8  and  C_9
REMARK    4  A    between atoms: C_11  and  C_12
REMARK    5  A    between atoms: N_14  and  C_15
REMARK    6  A    between atoms: N_18  and  C_19
REMARK    7  A    between atoms: C_20  and  C_21
REMARK    8  A    between atoms: C_24  and  N_25
REMARK                            x       y       z     vdW  Elec       q    Type
REMARK                         _______ _______ _______ _____ _____    ______ ____
ROOT
ATOM      1  C   UNL     1       0.310   9.938  19.958  0.00  0.00    +0.000 C 
ATOM      2  O   UNL     1      -0.762  10.197  19.439  0.00  0.00    +0.000 OA
ATOM      3  N   UNL     1       0.733  10.403  21.196  0.00  0.00    +0.000 N 
ATOM      4  H   UNL     1       1.678  10.188  21.483  0.00  0.00    +0.000 HD
ENDROOT
BRANCH   3   5
ATOM      5  C   UNL     1      -0.086  11.205  21.994  0.00  0.00    +0.000 A 
ATOM      6  C   UNL     1      -1.089  10.802  22.900  0.00  0.00    +0.000 A 
ATOM      7  N   UNL     1      -1.666  11.828  23.526  0.00  0.00    +0.000 NA
ATOM      8  N   UNL     1      -1.026  12.902  23.031  0.00  0.00    +0.000 N 
ATOM      9  C   UNL     1      -1.318  14.188  23.622  0.00  0.00    +0.000 C 
ATOM     10  C   UNL     1      -0.105  12.593  22.047  0.00  0.00    +0.000 A 
BRANCH  10  11
ATOM     11  C   UNL     1       0.669  13.613  21.270  0.00  0.00    +0.000 C 
ATOM     12  C   UNL     1       0.098  13.813  19.861  0.00  0.00    +0.000 C 
ATOM     13  C   UNL     1       0.536  15.164  19.294  0.00  0.00    +0.000 C 
ATOM     14  C   UNL     1       1.906  15.140  18.597  0.00  0.00    +0.000 C 
ATOM     15  C   UNL     1       2.964  14.214  19.230  0.00  0.00    +0.000 C 
ATOM     16  F   UNL     1       2.776  12.945  18.754  0.00  0.00    +0.000 F 
ATOM     17  C   UNL     1       2.951  14.174  20.757  0.00  0.00    +0.000 C 
ATOM     18  O   UNL     1       2.031  13.212  21.272  0.00  0.00    +0.000 OA
BRANCH  14  19
ATOM     19  N   UNL     1       2.384  16.530  18.480  0.00  0.00    +0.000 NA
ATOM     20  H   UNL     1       2.583  16.923  19.400  0.00  0.00    +0.000 HD
ATOM     21  H   UNL     1       1.642  17.111  18.086  0.00  0.00    +0.000 HD
ENDBRANCH  14  19
ENDBRANCH  10  11
ENDBRANCH   3   5
BRANCH   1  24
ATOM     22  C   UNL     1       2.555   7.314  18.849  0.00  0.00    +0.000 A 
ATOM     23  N   UNL     1       1.697   7.831  19.714  0.00  0.00    +0.000 NA
ATOM     24  C   UNL     1       1.259   9.071  19.253  0.00  0.00    +0.000 A 
ATOM     25  C   UNL     1       1.794   9.459  18.039  0.00  0.00    +0.000 A 
ATOM     26  S   UNL     1       2.862   8.285  17.450  0.00  0.00    +0.000 S 
BRANCH  22  32
ATOM     27  C   UNL     1       5.287   4.687  18.660  0.00  0.00    +0.000 A 
ATOM     28  C   UNL     1       4.695   3.647  19.380  0.00  0.00    +0.000 A 
ATOM     29  C   UNL     1       3.408   3.792  19.900  0.00  0.00    +0.000 A 
ATOM     30  C   UNL     1       2.711   4.985  19.710  0.00  0.00    +0.000 A 
ATOM     31  F   UNL     1       1.489   5.090  20.254  0.00  0.00    +0.000 F 
ATOM     32  C   UNL     1       3.276   6.045  18.999  0.00  0.00    +0.000 A 
ATOM     33  C   UNL     1       4.569   5.873  18.464  0.00  0.00    +0.000 A 
BRANCH  27  35
ATOM     34  C   UNL     1       6.746   4.537  16.645  0.00  0.00    +0.000 C 
ATOM     35  C   UNL     1       6.707   4.571  18.166  0.00  0.00    +0.000 C 
ENDBRANCH  27  35
ENDBRANCH  22  32
ENDBRANCH   1  24
TORSDOF 6
ENDMDL
MODEL 9
REMARK VINA RESULT:      -7.4      3.478     10.047
REMARK  Name = 
REMARK  8 active torsions:
REMARK  status: ('A' for Active; 'I' for Inactive)
REMARK    1  A    between atoms: C_1  and  C_2
REMARK    2  A    between atoms: C_2  and  C_3
REMARK    3  A    between atoms: C_8  and  C_9
REMARK    4  A    between atoms: C_11  and  C_12
REMARK    5  A    between atoms: N_14  and  C_15
REMARK    6  A    between atoms: N_18  and  C_19
REMARK    7  A    between atoms: C_20  and  C_21
REMARK    8  A    between atoms: C_24  and  N_25
REMARK                            x       y       z     vdW  Elec       q    Type
REMARK                         _______ _______ _______ _____ _____    ______ ____
ROOT
ATOM      1  C   UNL     1       2.570   8.168  18.196  0.00  0.00    +0.000 C 
ATOM      2  O   UNL     1       2.392   8.558  17.055  0.00  0.00    +0.000 OA
ATOM      3  N   UNL     1       3.529   7.243  18.585  0.00  0.00    +0.000 N 
ATOM      4  H   UNL     1       3.524   6.936  19.548  0.00  0.00    +0.000 HD
ENDROOT
BRANCH   3   5
ATOM      5  C   UNL     1       4.426   6.692  17.669  0.00  0.00    +0.000 A 
ATOM      6  C   UNL     1       5.498   7.325  17.004  0.00  0.00    +0.000 A 
ATOM      7  N   UNL     1       6.179   6.498  16.212  0.00  0.00    +0.000 NA
ATOM      8  N   UNL     1       5.553   5.318  16.371  0.00  0.00    +0.000 N 
ATOM      9  C   UNL     1       6.146   4.156  15.750  0.00  0.00    +0.000 C 
ATOM     10  C   UNL     1       4.441   5.388  17.188  0.00  0.00    +0.000 A 
BRANCH  10  11
ATOM     11  C   UNL     1       3.516   4.238  17.450  0.00  0.00    +0.000 C 
ATOM     12  C   UNL     1       2.176   4.704  18.032  0.00  0.00    +0.000 C 
ATOM     13  C   UNL     1       1.099   3.642  17.807  0.00  0.00    +0.000 C 
ATOM     14  C   UNL     1       1.049   2.557  18.894  0.00  0.00    +0.000 C 
ATOM     15  C   UNL     1       2.410   2.131  19.480  0.00  0.00    +0.000 C 
ATOM     16  F   UNL     1       2.753   3.010  20.470  0.00  0.00    +0.000 F 
ATOM     17  C   UNL     1       3.551   2.059  18.467  0.00  0.00    +0.000 C 
ATOM     18  O   UNL     1       4.201   3.317  18.285  0.00  0.00    +0.000 OA
BRANCH  14  19
ATOM     19  N   UNL     1       0.292   1.409  18.359  0.00  0.00    +0.000 NA
ATOM     20  H   UNL     1       0.054   1.557  17.379  0.00  0.00    +0.000 HD
ATOM     21  H   UNL     1      -0.600   1.332  18.852  0.00  0.00    +0.000 HD
ENDBRANCH  14  19
ENDBRANCH  10  11
ENDBRANCH   3   5
BRANCH   1  24
ATOM     22  C   UNL     1       0.287  10.023  20.319  0.00  0.00    +0.000 A 
ATOM     23  N   UNL     1       0.902   9.812  19.166  0.00  0.00    +0.000 NA
ATOM     24  C   UNL     1       1.726   8.694  19.274  0.00  0.00    +0.000 A 
ATOM     25  C   UNL     1       1.708   8.079  20.512  0.00  0.00    +0.000 A 
ATOM     26  S   UNL     1       0.664   8.889  21.570  0.00  0.00    +0.000 S 
BRANCH  22  32
ATOM     27  C   UNL     1      -1.337  12.960  22.090  0.00  0.00    +0.000 A 
ATOM     28  C   UNL     1      -2.306  13.322  21.153  0.00  0.00    +0.000 A 
ATOM     29  C   UNL     1      -2.444  12.602  19.965  0.00  0.00    +0.000 A 
ATOM     30  C   UNL     1      -1.606  11.518  19.708  0.00  0.00    +0.000 A 
ATOM     31  F   UNL     1      -1.755  10.874  18.541  0.00  0.00    +0.000 F 
ATOM     32  C   UNL     1      -0.624  11.132  20.622  0.00  0.00    +0.000 A 
ATOM     33  C   UNL     1      -0.512  11.860  21.824  0.00  0.00    +0.000 A 
BRANCH  27  35
ATOM     34  C   UNL     1      -2.458  14.155  23.969  0.00  0.00    +0.000 C 
ATOM     35  C   UNL     1      -1.125  13.782  23.336  0.00  0.00    +0.000 C 
ENDBRANCH  27  35
ENDBRANCH  22  32
ENDBRANCH   1  24
TORSDOF 6
ENDMDL
