MODEL 1
REMARK VINA RESULT:      -9.2      0.000      0.000
REMARK  Name = 
REMARK  4 active torsions:
REMARK  status: ('A' for Active; 'I' for Inactive)
REMARK    1  A    between atoms: C_2  and  C_3
REMARK    2  A    between atoms: N_5  and  C_6
REMARK    3  A    between atoms: C_14  and  C_15
REMARK    4  A    between atoms: C_15  and  C_16
REMARK                            x       y       z     vdW  Elec       q    Type
REMARK                         _______ _______ _______ _____ _____    ______ ____
ROOT
ATOM      1  C   UNL     1       4.254   2.323  19.724  0.00  0.00    +0.000 C 
ATOM      2  N   UNL     1       5.274   3.109  18.973  0.00  0.00    +0.000 NA
ATOM      3  N   UNL     1       4.692   4.416  18.799  0.00  0.00    +0.000 N 
ATOM      4  C   UNL     1       3.618   4.610  19.807  0.00  0.00    +0.000 C 
ATOM      5  C   UNL     1       2.511   5.664  19.599  0.00  0.00    +0.000 C 
ATOM      6  C   UNL     1       1.281   5.353  20.505  0.00  0.00    +0.000 C 
ATOM      7  C   UNL     1       0.794   3.907  20.459  0.00  0.00    +0.000 C 
ATOM      8  C   UNL     1       1.937   2.934  20.729  0.00  0.00    +0.000 C 
ATOM      9  C   UNL     1       3.013   3.201  19.695  0.00  0.00    +0.000 C 
ATOM     10  H   UNL     1       5.412   2.672  18.052  0.00  0.00    +0.000 HD
ENDROOT
BRANCH   3  11
ATOM     11  C   UNL     1       5.560   5.459  18.457  0.00  0.00    +0.000 A 
ATOM     12  C   UNL     1       6.783   5.582  19.131  0.00  0.00    +0.000 A 
ATOM     13  C   UNL     1       7.767   6.476  18.704  0.00  0.00    +0.000 A 
ATOM     14  C   UNL     1       7.488   7.337  17.655  0.00  0.00    +0.000 A 
ATOM     15  F   UNL     1       8.441   8.165  17.209  0.00  0.00    +0.000 F 
ATOM     16  C   UNL     1       6.231   7.347  17.065  0.00  0.00    +0.000 A 
ATOM     17  C   UNL     1       5.266   6.414  17.470  0.00  0.00    +0.000 A 
ENDBRANCH   3  11
BRANCH   1  19
ATOM     18  O   UNL     1       3.822   0.870  17.817  0.00  0.00    +0.000 OA
ATOM     19  C   UNL     1       3.996   0.999  19.027  0.00  0.00    +0.000 C 
ENDBRANCH   1  19
BRANCH   5  20
ATOM     20  C   UNL     1       2.897   7.147  19.844  0.00  0.00    +0.000 C 
BRANCH  20  21
ATOM     21  C   UNL     1       1.921   8.214  19.415  0.00  0.00    +0.000 A 
ATOM     22  C   UNL     1       1.651   8.475  18.069  0.00  0.00    +0.000 A 
ATOM     23  C   UNL     1       0.724   9.450  17.699  0.00  0.00    +0.000 A 
ATOM     24  C   UNL     1       0.022  10.172  18.676  0.00  0.00    +0.000 A 
ATOM     25  C   UNL     1      -0.919  11.150  18.335  0.00  0.00    +0.000 A 
ATOM     26  C   UNL     1      -1.622  11.833  19.329  0.00  0.00    +0.000 A 
ATOM     27  C   UNL     1      -1.394  11.544  20.672  0.00  0.00    +0.000 A 
ATOM     28  C   UNL     1      -0.453  10.578  21.024  0.00  0.00    +0.000 A 
ATOM     29  C   UNL     1       0.265   9.894  20.039  0.00  0.00    +0.000 A 
ATOM     30  C   UNL     1       1.214   8.929  20.391  0.00  0.00    +0.000 A 
ENDBRANCH  20  21
ENDBRANCH   5  20
TORSDOF 4
ENDMDL
MODEL 2
REMARK VINA RESULT:      -8.8      0.806      1.471
REMARK  Name = 
REMARK  4 active torsions:
REMARK  status: ('A' for Active; 'I' for Inactive)
REMARK    1  A    between atoms: C_2  and  C_3
REMARK    2  A    between atoms: N_5  and  C_6
REMARK    3  A    between atoms: C_14  and  C_15
REMARK    4  A    between atoms: C_15  and  C_16
REMARK                            x       y       z     vdW  Elec       q    Type
REMARK                         _______ _______ _______ _____ _____    ______ ____
ROOT
ATOM      1  C   UNL     1       4.312   2.410  20.045  0.00  0.00    +0.000 C 
ATOM      2  N   UNL     1       5.380   3.056  19.230  0.00  0.00    +0.000 NA
ATOM      3  N   UNL     1       4.841   4.337  18.849  0.00  0.00    +0.000 N 
ATOM      4  C   UNL     1       3.738   4.699  19.776  0.00  0.00    +0.000 C 
ATOM      5  C   UNL     1       2.669   5.737  19.377  0.00  0.00    +0.000 C 
ATOM      6  C   UNL     1       1.399   5.587  20.269  0.00  0.00    +0.000 C 
ATOM      7  C   UNL     1       0.873   4.161  20.410  0.00  0.00    +0.000 C 
ATOM      8  C   UNL     1       1.979   3.211  20.860  0.00  0.00    +0.000 C 
ATOM      9  C   UNL     1       3.098   3.302  19.842  0.00  0.00    +0.000 C 
ATOM     10  H   UNL     1       5.538   2.489  18.387  0.00  0.00    +0.000 HD
ENDROOT
BRANCH   3  11
ATOM     11  C   UNL     1       5.750   5.301  18.397  0.00  0.00    +0.000 A 
ATOM     12  C   UNL     1       5.431   6.067  17.267  0.00  0.00    +0.000 A 
ATOM     13  C   UNL     1       6.202   7.168  16.888  0.00  0.00    +0.000 A 
ATOM     14  C   UNL     1       7.368   7.446  17.582  0.00  0.00    +0.000 A 
ATOM     15  F   UNL     1       8.089   8.527  17.255  0.00  0.00    +0.000 F 
ATOM     16  C   UNL     1       7.794   6.616  18.610  0.00  0.00    +0.000 A 
ATOM     17  C   UNL     1       6.989   5.541  19.012  0.00  0.00    +0.000 A 
ENDBRANCH   3  11
BRANCH   1  19
ATOM     18  O   UNL     1       3.826   0.721  18.357  0.00  0.00    +0.000 OA
ATOM     19  C   UNL     1       4.042   1.005  19.533  0.00  0.00    +0.000 C 
ENDBRANCH   1  19
BRANCH   5  20
ATOM     20  C   UNL     1       3.087   7.230  19.423  0.00  0.00    +0.000 C 
BRANCH  20  21
ATOM     21  C   UNL     1       2.033   8.252  19.765  0.00  0.00    +0.000 A 
ATOM     22  C   UNL     1       1.395   9.017  18.784  0.00  0.00    +0.000 A 
ATOM     23  C   UNL     1       0.403   9.938  19.123  0.00  0.00    +0.000 A 
ATOM     24  C   UNL     1       0.007  10.095  20.461  0.00  0.00    +0.000 A 
ATOM     25  C   UNL     1      -0.990  11.005  20.830  0.00  0.00    +0.000 A 
ATOM     26  C   UNL     1      -1.383  11.121  22.165  0.00  0.00    +0.000 A 
ATOM     27  C   UNL     1      -0.786  10.328  23.142  0.00  0.00    +0.000 A 
ATOM     28  C   UNL     1       0.214   9.425  22.787  0.00  0.00    +0.000 A 
ATOM     29  C   UNL     1       0.623   9.306  21.456  0.00  0.00    +0.000 A 
ATOM     30  C   UNL     1       1.631   8.404  21.098  0.00  0.00    +0.000 A 
ENDBRANCH  20  21
ENDBRANCH   5  20
TORSDOF 4
ENDMDL
MODEL 3
REMARK VINA RESULT:      -8.7      0.508      1.346
REMARK  Name = 
REMARK  4 active torsions:
REMARK  status: ('A' for Active; 'I' for Inactive)
REMARK    1  A    between atoms: C_2  and  C_3
REMARK    2  A    between atoms: N_5  and  C_6
REMARK    3  A    between atoms: C_14  and  C_15
REMARK    4  A    between atoms: C_15  and  C_16
REMARK                            x       y       z     vdW  Elec       q    Type
REMARK                         _______ _______ _______ _____ _____    ______ ____
ROOT
ATOM      1  C   UNL     1       4.203   2.372  19.733  0.00  0.00    +0.000 C 
ATOM      2  N   UNL     1       5.234   3.138  18.976  0.00  0.00    +0.000 NA
ATOM      3  N   UNL     1       4.661   4.445  18.777  0.00  0.00    +0.000 N 
ATOM      4  C   UNL     1       3.582   4.664  19.775  0.00  0.00    +0.000 C 
ATOM      5  C   UNL     1       2.484   5.722  19.542  0.00  0.00    +0.000 C 
ATOM      6  C   UNL     1       1.245   5.434  20.445  0.00  0.00    +0.000 C 
ATOM      7  C   UNL     1       0.749   3.991  20.418  0.00  0.00    +0.000 C 
ATOM      8  C   UNL     1       1.884   3.014  20.712  0.00  0.00    +0.000 C 
ATOM      9  C   UNL     1       2.969   3.257  19.681  0.00  0.00    +0.000 C 
ATOM     10  H   UNL     1       5.375   2.685  18.064  0.00  0.00    +0.000 HD
ENDROOT
BRANCH   3  11
ATOM     11  C   UNL     1       5.539   5.477  18.425  0.00  0.00    +0.000 A 
ATOM     12  C   UNL     1       6.764   5.595  19.097  0.00  0.00    +0.000 A 
ATOM     13  C   UNL     1       7.755   6.476  18.660  0.00  0.00    +0.000 A 
ATOM     14  C   UNL     1       7.484   7.329  17.603  0.00  0.00    +0.000 A 
ATOM     15  F   UNL     1       8.445   8.144  17.148  0.00  0.00    +0.000 F 
ATOM     16  C   UNL     1       6.226   7.345  17.013  0.00  0.00    +0.000 A 
ATOM     17  C   UNL     1       5.254   6.425  17.429  0.00  0.00    +0.000 A 
ENDBRANCH   3  11
BRANCH   1  19
ATOM     18  O   UNL     1       3.777   0.890  17.846  0.00  0.00    +0.000 OA
ATOM     19  C   UNL     1       3.940   1.038  19.056  0.00  0.00    +0.000 C 
ENDBRANCH   1  19
BRANCH   5  20
ATOM     20  C   UNL     1       2.878   7.206  19.765  0.00  0.00    +0.000 C 
BRANCH  20  21
ATOM     21  C   UNL     1       1.779   8.195  20.058  0.00  0.00    +0.000 A 
ATOM     22  C   UNL     1       1.347   8.461  21.361  0.00  0.00    +0.000 A 
ATOM     23  C   UNL     1       0.346   9.400  21.608  0.00  0.00    +0.000 A 
ATOM     24  C   UNL     1      -0.230  10.120  20.550  0.00  0.00    +0.000 A 
ATOM     25  C   UNL     1      -1.230  11.075  20.768  0.00  0.00    +0.000 A 
ATOM     26  C   UNL     1      -1.767  11.795  19.699  0.00  0.00    +0.000 A 
ATOM     27  C   UNL     1      -1.307  11.571  18.404  0.00  0.00    +0.000 A 
ATOM     28  C   UNL     1      -0.318  10.617  18.173  0.00  0.00    +0.000 A 
ATOM     29  C   UNL     1       0.220   9.882  19.234  0.00  0.00    +0.000 A 
ATOM     30  C   UNL     1       1.209   8.920  19.004  0.00  0.00    +0.000 A 
ENDBRANCH  20  21
ENDBRANCH   5  20
TORSDOF 4
ENDMDL
MODEL 4
REMARK VINA RESULT:      -8.4      1.234      1.836
REMARK  Name = 
REMARK  4 active torsions:
REMARK  status: ('A' for Active; 'I' for Inactive)
REMARK    1  A    between atoms: C_2  and  C_3
REMARK    2  A    between atoms: N_5  and  C_6
REMARK    3  A    between atoms: C_14  and  C_15
REMARK    4  A    between atoms: C_15  and  C_16
REMARK                            x       y       z     vdW  Elec       q    Type
REMARK                         _______ _______ _______ _____ _____    ______ ____
ROOT
ATOM      1  C   UNL     1       4.347   2.614  20.131  0.00  0.00    +0.000 C 
ATOM      2  N   UNL     1       5.619   3.219  19.644  0.00  0.00    +0.000 NA
ATOM      3  N   UNL     1       5.217   4.235  18.704  0.00  0.00    +0.000 N 
ATOM      4  C   UNL     1       3.802   4.608  18.961  0.00  0.00    +0.000 C 
ATOM      5  C   UNL     1       2.948   5.290  17.873  0.00  0.00    +0.000 C 
ATOM      6  C   UNL     1       1.429   5.137  18.193  0.00  0.00    +0.000 C 
ATOM      7  C   UNL     1       0.984   3.722  18.553  0.00  0.00    +0.000 C 
ATOM      8  C   UNL     1       1.845   3.143  19.672  0.00  0.00    +0.000 C 
ATOM      9  C   UNL     1       3.286   3.180  19.201  0.00  0.00    +0.000 C 
ATOM     10  H   UNL     1       6.159   2.495  19.153  0.00  0.00    +0.000 HD
ENDROOT
BRANCH   3  11
ATOM     11  C   UNL     1       6.170   5.205  18.369  0.00  0.00    +0.000 A 
ATOM     12  C   UNL     1       6.201   5.713  17.063  0.00  0.00    +0.000 A 
ATOM     13  C   UNL     1       6.993   6.813  16.725  0.00  0.00    +0.000 A 
ATOM     14  C   UNL     1       7.847   7.347  17.675  0.00  0.00    +0.000 A 
ATOM     15  F   UNL     1       8.576   8.430  17.373  0.00  0.00    +0.000 F 
ATOM     16  C   UNL     1       7.955   6.770  18.933  0.00  0.00    +0.000 A 
ATOM     17  C   UNL     1       7.122   5.696  19.277  0.00  0.00    +0.000 A 
ENDBRANCH   3  11
BRANCH   1  19
ATOM     18  O   UNL     1       5.433   0.433  20.166  0.00  0.00    +0.000 OA
ATOM     19  C   UNL     1       4.411   1.101  20.020  0.00  0.00    +0.000 C 
ENDBRANCH   1  19
BRANCH   5  20
ATOM     20  C   UNL     1       3.211   6.796  17.612  0.00  0.00    +0.000 C 
BRANCH  20  21
ATOM     21  C   UNL     1       2.338   7.802  18.318  0.00  0.00    +0.000 A 
ATOM     22  C   UNL     1       1.668   8.817  17.629  0.00  0.00    +0.000 A 
ATOM     23  C   UNL     1       0.845   9.720  18.302  0.00  0.00    +0.000 A 
ATOM     24  C   UNL     1       0.652   9.609  19.688  0.00  0.00    +0.000 A 
ATOM     25  C   UNL     1      -0.174  10.495  20.389  0.00  0.00    +0.000 A 
ATOM     26  C   UNL     1      -0.368  10.345  21.764  0.00  0.00    +0.000 A 
ATOM     27  C   UNL     1       0.259   9.307  22.449  0.00  0.00    +0.000 A 
ATOM     28  C   UNL     1       1.090   8.424  21.764  0.00  0.00    +0.000 A 
ATOM     29  C   UNL     1       1.301   8.569  20.389  0.00  0.00    +0.000 A 
ATOM     30  C   UNL     1       2.139   7.688  19.700  0.00  0.00    +0.000 A 
ENDBRANCH  20  21
ENDBRANCH   5  20
TORSDOF 4
ENDMDL
MODEL 5
REMARK VINA RESULT:      -8.2      1.216      1.986
REMARK  Name = 
REMARK  4 active torsions:
REMARK  status: ('A' for Active; 'I' for Inactive)
REMARK    1  A    between atoms: C_2  and  C_3
REMARK    2  A    between atoms: N_5  and  C_6
REMARK    3  A    between atoms: C_14  and  C_15
REMARK    4  A    between atoms: C_15  and  C_16
REMARK                            x       y       z     vdW  Elec       q    Type
REMARK                         _______ _______ _______ _____ _____    ______ ____
ROOT
ATOM      1  C   UNL     1       4.511   2.428  20.042  0.00  0.00    +0.000 C 
ATOM      2  N   UNL     1       5.740   3.135  19.579  0.00  0.00    +0.000 NA
ATOM      3  N   UNL     1       5.273   4.138  18.656  0.00  0.00    +0.000 N 
ATOM      4  C   UNL     1       3.832   4.401  18.907  0.00  0.00    +0.000 C 
ATOM      5  C   UNL     1       2.939   5.041  17.825  0.00  0.00    +0.000 C 
ATOM      6  C   UNL     1       1.433   4.771  18.128  0.00  0.00    +0.000 C 
ATOM      7  C   UNL     1       1.090   3.320  18.454  0.00  0.00    +0.000 C 
ATOM      8  C   UNL     1       1.981   2.783  19.570  0.00  0.00    +0.000 C 
ATOM      9  C   UNL     1       3.419   2.934  19.114  0.00  0.00    +0.000 C 
ATOM     10  H   UNL     1       6.336   2.462  19.079  0.00  0.00    +0.000 HD
ENDROOT
BRANCH   3  11
ATOM     11  C   UNL     1       6.155   5.181  18.350  0.00  0.00    +0.000 A 
ATOM     12  C   UNL     1       6.042   5.834  17.114  0.00  0.00    +0.000 A 
ATOM     13  C   UNL     1       6.759   6.999  16.835  0.00  0.00    +0.000 A 
ATOM     14  C   UNL     1       7.682   7.462  17.758  0.00  0.00    +0.000 A 
ATOM     15  F   UNL     1       8.340   8.604  17.519  0.00  0.00    +0.000 F 
ATOM     16  C   UNL     1       7.930   6.753  18.926  0.00  0.00    +0.000 A 
ATOM     17  C   UNL     1       7.172   5.611  19.218  0.00  0.00    +0.000 A 
ENDBRANCH   3  11
BRANCH   1  19
ATOM     18  O   UNL     1       5.617   0.285  20.385  0.00  0.00    +0.000 OA
ATOM     19  C   UNL     1       4.687   0.926  19.901  0.00  0.00    +0.000 C 
ENDBRANCH   1  19
BRANCH   5  20
ATOM     20  C   UNL     1       3.093   6.568  17.597  0.00  0.00    +0.000 C 
BRANCH  20  21
ATOM     21  C   UNL     1       2.325   7.502  18.497  0.00  0.00    +0.000 A 
ATOM     22  C   UNL     1       2.241   7.299  19.877  0.00  0.00    +0.000 A 
ATOM     23  C   UNL     1       1.545   8.192  20.693  0.00  0.00    +0.000 A 
ATOM     24  C   UNL     1       0.937   9.331  20.143  0.00  0.00    +0.000 A 
ATOM     25  C   UNL     1       0.239  10.249  20.937  0.00  0.00    +0.000 A 
ATOM     26  C   UNL     1      -0.333  11.388  20.366  0.00  0.00    +0.000 A 
ATOM     27  C   UNL     1      -0.211  11.621  18.998  0.00  0.00    +0.000 A 
ATOM     28  C   UNL     1       0.473  10.710  18.197  0.00  0.00    +0.000 A 
ATOM     29  C   UNL     1       1.042   9.561  18.754  0.00  0.00    +0.000 A 
ATOM     30  C   UNL     1       1.724   8.642  17.950  0.00  0.00    +0.000 A 
ENDBRANCH  20  21
ENDBRANCH   5  20
TORSDOF 4
ENDMDL
MODEL 6
REMARK VINA RESULT:      -8.1      5.349      9.734
REMARK  Name = 
REMARK  4 active torsions:
REMARK  status: ('A' for Active; 'I' for Inactive)
REMARK    1  A    between atoms: C_2  and  C_3
REMARK    2  A    between atoms: N_5  and  C_6
REMARK    3  A    between atoms: C_14  and  C_15
REMARK    4  A    between atoms: C_15  and  C_16
REMARK                            x       y       z     vdW  Elec       q    Type
REMARK                         _______ _______ _______ _____ _____    ______ ____
ROOT
ATOM      1  C   UNL     1      -5.127  12.553  18.164  0.00  0.00    +0.000 C 
ATOM      2  N   UNL     1      -4.729  12.980  19.536  0.00  0.00    +0.000 NA
ATOM      3  N   UNL     1      -3.516  12.254  19.819  0.00  0.00    +0.000 N 
ATOM      4  C   UNL     1      -2.904  11.805  18.542  0.00  0.00    +0.000 C 
ATOM      5  C   UNL     1      -1.898  10.637  18.508  0.00  0.00    +0.000 C 
ATOM      6  C   UNL     1      -1.783  10.055  17.066  0.00  0.00    +0.000 C 
ATOM      7  C   UNL     1      -3.114   9.763  16.378  0.00  0.00    +0.000 C 
ATOM      8  C   UNL     1      -4.027  10.985  16.408  0.00  0.00    +0.000 C 
ATOM      9  C   UNL     1      -4.215  11.375  17.862  0.00  0.00    +0.000 C 
ATOM     10  H   UNL     1      -5.462  12.690  20.195  0.00  0.00    +0.000 HD
ENDROOT
BRANCH   3  11
ATOM     11  C   UNL     1      -2.724  12.725  20.873  0.00  0.00    +0.000 A 
ATOM     12  C   UNL     1      -2.136  13.994  20.775  0.00  0.00    +0.000 A 
ATOM     13  C   UNL     1      -1.503  14.593  21.866  0.00  0.00    +0.000 A 
ATOM     14  C   UNL     1      -1.360  13.875  23.042  0.00  0.00    +0.000 A 
ATOM     15  F   UNL     1      -0.796  14.459  24.107  0.00  0.00    +0.000 F 
ATOM     16  C   UNL     1      -1.796  12.559  23.124  0.00  0.00    +0.000 A 
ATOM     17  C   UNL     1      -2.471  11.984  22.038  0.00  0.00    +0.000 A 
ENDBRANCH   3  11
BRANCH   1  19
ATOM     18  O   UNL     1      -6.979  10.988  18.408  0.00  0.00    +0.000 OA
ATOM     19  C   UNL     1      -6.584  12.124  18.152  0.00  0.00    +0.000 C 
ENDBRANCH   1  19
BRANCH   5  20
ATOM     20  C   UNL     1      -0.457  10.935  18.998  0.00  0.00    +0.000 C 
BRANCH  20  21
ATOM     21  C   UNL     1       0.445   9.765  19.302  0.00  0.00    +0.000 A 
ATOM     22  C   UNL     1       0.401   9.092  20.526  0.00  0.00    +0.000 A 
ATOM     23  C   UNL     1       1.228   7.996  20.773  0.00  0.00    +0.000 A 
ATOM     24  C   UNL     1       2.106   7.531  19.782  0.00  0.00    +0.000 A 
ATOM     25  C   UNL     1       2.942   6.429  19.998  0.00  0.00    +0.000 A 
ATOM     26  C   UNL     1       3.787   5.971  18.984  0.00  0.00    +0.000 A 
ATOM     27  C   UNL     1       3.801   6.608  17.746  0.00  0.00    +0.000 A 
ATOM     28  C   UNL     1       2.980   7.711  17.522  0.00  0.00    +0.000 A 
ATOM     29  C   UNL     1       2.137   8.185  18.532  0.00  0.00    +0.000 A 
ATOM     30  C   UNL     1       1.316   9.296  18.311  0.00  0.00    +0.000 A 
ENDBRANCH  20  21
ENDBRANCH   5  20
TORSDOF 4
ENDMDL
MODEL 7
REMARK VINA RESULT:      -7.8      5.640      9.991
REMARK  Name = 
REMARK  4 active torsions:
REMARK  status: ('A' for Active; 'I' for Inactive)
REMARK    1  A    between atoms: C_2  and  C_3
REMARK    2  A    between atoms: N_5  and  C_6
REMARK    3  A    between atoms: C_14  and  C_15
REMARK    4  A    between atoms: C_15  and  C_16
REMARK                            x       y       z     vdW  Elec       q    Type
REMARK                         _______ _______ _______ _____ _____    ______ ____
ROOT
ATOM      1  C   UNL     1      -5.401  12.665  17.943  0.00  0.00    +0.000 C 
ATOM      2  N   UNL     1      -5.121  13.144  19.326  0.00  0.00    +0.000 NA
ATOM      3  N   UNL     1      -3.937  12.433  19.739  0.00  0.00    +0.000 N 
ATOM      4  C   UNL     1      -3.219  11.938  18.536  0.00  0.00    +0.000 C 
ATOM      5  C   UNL     1      -2.213  10.773  18.631  0.00  0.00    +0.000 C 
ATOM      6  C   UNL     1      -1.976  10.139  17.226  0.00  0.00    +0.000 C 
ATOM      7  C   UNL     1      -3.244   9.817  16.440  0.00  0.00    +0.000 C 
ATOM      8  C   UNL     1      -4.156  11.036  16.347  0.00  0.00    +0.000 C 
ATOM      9  C   UNL     1      -4.467  11.480  17.763  0.00  0.00    +0.000 C 
ATOM     10  H   UNL     1      -5.908  12.876  19.932  0.00  0.00    +0.000 HD
ENDROOT
BRANCH   3  11
ATOM     11  C   UNL     1      -3.237  12.946  20.838  0.00  0.00    +0.000 A 
ATOM     12  C   UNL     1      -3.433  12.373  22.102  0.00  0.00    +0.000 A 
ATOM     13  C   UNL     1      -2.624  12.710  23.190  0.00  0.00    +0.000 A 
ATOM     14  C   UNL     1      -1.676  13.709  23.044  0.00  0.00    +0.000 A 
ATOM     15  F   UNL     1      -0.866  14.006  24.068  0.00  0.00    +0.000 F 
ATOM     16  C   UNL     1      -1.561  14.404  21.847  0.00  0.00    +0.000 A 
ATOM     17  C   UNL     1      -2.345  14.026  20.748  0.00  0.00    +0.000 A 
ENDBRANCH   3  11
BRANCH   1  19
ATOM     18  O   UNL     1      -7.818  12.975  17.987  0.00  0.00    +0.000 OA
ATOM     19  C   UNL     1      -6.852  12.231  17.823  0.00  0.00    +0.000 C 
ENDBRANCH   1  19
BRANCH   5  20
ATOM     20  C   UNL     1      -0.819  11.094  19.230  0.00  0.00    +0.000 C 
BRANCH  20  21
ATOM     21  C   UNL     1       0.122   9.945  19.492  0.00  0.00    +0.000 A 
ATOM     22  C   UNL     1       0.110   9.236  20.696  0.00  0.00    +0.000 A 
ATOM     23  C   UNL     1       0.973   8.160  20.905  0.00  0.00    +0.000 A 
ATOM     24  C   UNL     1       1.856   7.751  19.893  0.00  0.00    +0.000 A 
ATOM     25  C   UNL     1       2.728   6.670  20.071  0.00  0.00    +0.000 A 
ATOM     26  C   UNL     1       3.577   6.268  19.037  0.00  0.00    +0.000 A 
ATOM     27  C   UNL     1       3.560   6.940  17.817  0.00  0.00    +0.000 A 
ATOM     28  C   UNL     1       2.703   8.023  17.632  0.00  0.00    +0.000 A 
ATOM     29  C   UNL     1       1.855   8.441  18.662  0.00  0.00    +0.000 A 
ATOM     30  C   UNL     1       0.998   9.532  18.481  0.00  0.00    +0.000 A 
ENDBRANCH  20  21
ENDBRANCH   5  20
TORSDOF 4
ENDMDL
MODEL 8
REMARK VINA RESULT:      -7.7      2.794      4.562
REMARK  Name = 
REMARK  4 active torsions:
REMARK  status: ('A' for Active; 'I' for Inactive)
REMARK    1  A    between atoms: C_2  and  C_3
REMARK    2  A    between atoms: N_5  and  C_6
REMARK    3  A    between atoms: C_14  and  C_15
REMARK    4  A    between atoms: C_15  and  C_16
REMARK                            x       y       z     vdW  Elec       q    Type
REMARK                         _______ _______ _______ _____ _____    ______ ____
ROOT
ATOM      1  C   UNL     1       5.362   4.124  16.495  0.00  0.00    +0.000 C 
ATOM      2  N   UNL     1       4.861   3.240  17.586  0.00  0.00    +0.000 NA
ATOM      3  N   UNL     1       4.116   4.109  18.463  0.00  0.00    +0.000 N 
ATOM      4  C   UNL     1       3.730   5.337  17.721  0.00  0.00    +0.000 C 
ATOM      5  C   UNL     1       3.357   6.634  18.468  0.00  0.00    +0.000 C 
ATOM      6  C   UNL     1       3.468   7.865  17.516  0.00  0.00    +0.000 C 
ATOM      7  C   UNL     1       4.763   7.947  16.714  0.00  0.00    +0.000 C 
ATOM      8  C   UNL     1       5.028   6.645  15.964  0.00  0.00    +0.000 C 
ATOM      9  C   UNL     1       5.069   5.530  16.991  0.00  0.00    +0.000 C 
ATOM     10  H   UNL     1       5.668   2.855  18.093  0.00  0.00    +0.000 HD
ENDROOT
BRANCH   3  11
ATOM     11  C   UNL     1       3.233   3.500  19.362  0.00  0.00    +0.000 A 
ATOM     12  C   UNL     1       3.736   2.947  20.548  0.00  0.00    +0.000 A 
ATOM     13  C   UNL     1       2.888   2.505  21.566  0.00  0.00    +0.000 A 
ATOM     14  C   UNL     1       1.519   2.515  21.356  0.00  0.00    +0.000 A 
ATOM     15  F   UNL     1       0.697   2.137  22.344  0.00  0.00    +0.000 F 
ATOM     16  C   UNL     1       0.994   2.912  20.134  0.00  0.00    +0.000 A 
ATOM     17  C   UNL     1       1.851   3.398  19.136  0.00  0.00    +0.000 A 
ENDBRANCH   3  11
BRANCH   1  19
ATOM     18  O   UNL     1       7.727   4.477  16.964  0.00  0.00    +0.000 OA
ATOM     19  C   UNL     1       6.855   3.920  16.301  0.00  0.00    +0.000 C 
ENDBRANCH   1  19
BRANCH   5  20
ATOM     20  C   UNL     1       1.954   6.689  19.127  0.00  0.00    +0.000 C 
BRANCH  20  21
ATOM     21  C   UNL     1       1.457   8.021  19.629  0.00  0.00    +0.000 A 
ATOM     22  C   UNL     1       1.475   9.169  18.832  0.00  0.00    +0.000 A 
ATOM     23  C   UNL     1       0.985  10.384  19.310  0.00  0.00    +0.000 A 
ATOM     24  C   UNL     1       0.439  10.472  20.600  0.00  0.00    +0.000 A 
ATOM     25  C   UNL     1      -0.067  11.675  21.105  0.00  0.00    +0.000 A 
ATOM     26  C   UNL     1      -0.630  11.726  22.382  0.00  0.00    +0.000 A 
ATOM     27  C   UNL     1      -0.695  10.576  23.164  0.00  0.00    +0.000 A 
ATOM     28  C   UNL     1      -0.187   9.374  22.676  0.00  0.00    +0.000 A 
ATOM     29  C   UNL     1       0.388   9.312  21.403  0.00  0.00    +0.000 A 
ATOM     30  C   UNL     1       0.904   8.108  20.913  0.00  0.00    +0.000 A 
ENDBRANCH  20  21
ENDBRANCH   5  20
TORSDOF 4
ENDMDL
MODEL 9
REMARK VINA RESULT:      -7.7      2.980      4.961
REMARK  Name = 
REMARK  4 active torsions:
REMARK  status: ('A' for Active; 'I' for Inactive)
REMARK    1  A    between atoms: C_2  and  C_3
REMARK    2  A    between atoms: N_5  and  C_6
REMARK    3  A    between atoms: C_14  and  C_15
REMARK    4  A    between atoms: C_15  and  C_16
REMARK                            x       y       z     vdW  Elec       q    Type
REMARK                         _______ _______ _______ _____ _____    ______ ____
ROOT
ATOM      1  C   UNL     1       5.654   4.674  14.788  0.00  0.00    +0.000 C 
ATOM      2  N   UNL     1       4.549   3.753  15.178  0.00  0.00    +0.000 NA
ATOM      3  N   UNL     1       4.437   3.883  16.609  0.00  0.00    +0.000 N 
ATOM      4  C   UNL     1       5.057   5.164  17.034  0.00  0.00    +0.000 C 
ATOM      5  C   UNL     1       5.521   5.382  18.489  0.00  0.00    +0.000 C 
ATOM      6  C   UNL     1       6.542   6.557  18.568  0.00  0.00    +0.000 C 
ATOM      7  C   UNL     1       7.674   6.501  17.546  0.00  0.00    +0.000 C 
ATOM      8  C   UNL     1       7.127   6.340  16.131  0.00  0.00    +0.000 C 
ATOM      9  C   UNL     1       6.284   5.080  16.110  0.00  0.00    +0.000 C 
ATOM     10  H   UNL     1       4.825   2.790  14.944  0.00  0.00    +0.000 HD
ENDROOT
BRANCH   3  11
ATOM     11  C   UNL     1       3.254   3.422  17.200  0.00  0.00    +0.000 A 
ATOM     12  C   UNL     1       3.233   2.150  17.790  0.00  0.00    +0.000 A 
ATOM     13  C   UNL     1       2.151   1.719  18.560  0.00  0.00    +0.000 A 
ATOM     14  C   UNL     1       1.027   2.524  18.655  0.00  0.00    +0.000 A 
ATOM     15  F   UNL     1       0.004   2.139  19.429  0.00  0.00    +0.000 F 
ATOM     16  C   UNL     1       0.954   3.722  17.957  0.00  0.00    +0.000 A 
ATOM     17  C   UNL     1       2.064   4.166  17.225  0.00  0.00    +0.000 A 
ENDBRANCH   3  11
BRANCH   1  19
ATOM     18  O   UNL     1       6.433   3.553  12.770  0.00  0.00    +0.000 OA
ATOM     19  C   UNL     1       6.659   3.944  13.913  0.00  0.00    +0.000 C 
ENDBRANCH   1  19
BRANCH   5  20
ATOM     20  C   UNL     1       4.419   5.660  19.545  0.00  0.00    +0.000 C 
BRANCH  20  21
ATOM     21  C   UNL     1       3.435   6.768  19.269  0.00  0.00    +0.000 A 
ATOM     22  C   UNL     1       3.334   7.376  18.014  0.00  0.00    +0.000 A 
ATOM     23  C   UNL     1       2.397   8.381  17.776  0.00  0.00    +0.000 A 
ATOM     24  C   UNL     1       1.515   8.786  18.791  0.00  0.00    +0.000 A 
ATOM     25  C   UNL     1       0.559   9.786  18.580  0.00  0.00    +0.000 A 
ATOM     26  C   UNL     1      -0.323  10.149  19.599  0.00  0.00    +0.000 A 
ATOM     27  C   UNL     1      -0.260   9.514  20.837  0.00  0.00    +0.000 A 
ATOM     28  C   UNL     1       0.692   8.523  21.062  0.00  0.00    +0.000 A 
ATOM     29  C   UNL     1       1.588   8.157  20.053  0.00  0.00    +0.000 A 
ATOM     30  C   UNL     1       2.549   7.166  20.278  0.00  0.00    +0.000 A 
ENDBRANCH  20  21
ENDBRANCH   5  20
TORSDOF 4
ENDMDL
