MODEL 1
REMARK VINA RESULT:      -8.2      0.000      0.000
REMARK  Name = 
REMARK  8 active torsions:
REMARK  status: ('A' for Active; 'I' for Inactive)
REMARK    1  A    between atoms: C_1  and  S_2
REMARK    2  A    between atoms: S_2  and  C_3
REMARK    3  A    between atoms: C_6  and  C_7
REMARK    4  A    between atoms: C_7  and  N_8
REMARK    5  A    between atoms: C_15  and  C_16
REMARK    6  A    between atoms: C_16  and  N_17
REMARK    7  A    between atoms: C_22  and  C_23
REMARK    8  A    between atoms: C_23  and  O_24
REMARK                            x       y       z     vdW  Elec       q    Type
REMARK                         _______ _______ _______ _____ _____    ______ ____
ROOT
ATOM      1  N   UNL     1      -0.168  11.001  22.061  0.00  0.00    +0.000 NA
ATOM      2  C   UNL     1      -0.663  11.874  20.908  0.00  0.00    +0.000 C 
ATOM      3  C   UNL     1       0.184  11.442  19.784  0.00  0.00    +0.000 C 
ATOM      4  O   UNL     1       0.327  10.863  18.549  0.00  0.00    +0.000 OA
ATOM      5  C   UNL     1       1.038   9.688  18.870  0.00  0.00    +0.000 A 
ATOM      6  C   UNL     1       1.700   9.247  17.724  0.00  0.00    +0.000 A 
ATOM      7  C   UNL     1       2.450   8.097  17.763  0.00  0.00    +0.000 A 
ATOM      8  C   UNL     1       2.544   7.341  18.935  0.00  0.00    +0.000 A 
ATOM      9  C   UNL     1       1.865   7.808  20.145  0.00  0.00    +0.000 A 
ATOM     10  C   UNL     1       1.106   9.036  20.179  0.00  0.00    +0.000 A 
ATOM     11  C   UNL     1       0.236   9.497  21.620  0.00  0.00    +0.000 C 
ENDROOT
BRANCH   1  12
ATOM     12  C   UNL     1      -1.297  11.249  23.022  0.00  0.00    +0.000 C 
BRANCH  12  16
ATOM     13  C   UNL     1      -3.537  14.838  24.026  0.00  0.00    +0.000 A 
ATOM     14  C   UNL     1      -4.220  13.701  23.560  0.00  0.00    +0.000 A 
ATOM     15  C   UNL     1      -3.533  12.532  23.163  0.00  0.00    +0.000 A 
ATOM     16  C   UNL     1      -2.143  12.489  23.199  0.00  0.00    +0.000 A 
ATOM     17  C   UNL     1      -1.471  13.636  23.707  0.00  0.00    +0.000 A 
ATOM     18  C   UNL     1      -2.152  14.789  24.105  0.00  0.00    +0.000 A 
BRANCH  13  20
ATOM     19  C   UNL     1      -6.074  15.987  23.992  0.00  0.00    +0.000 C 
ATOM     20  S   UNL     1      -4.366  16.354  24.481  0.00  0.00    +0.000 S 
ENDBRANCH  13  20
ENDBRANCH  12  16
ENDBRANCH   1  12
BRANCH   8  21
ATOM     21  C   UNL     1       3.252   5.982  18.728  0.00  0.00    +0.000 C 
BRANCH  21  22
ATOM     22  N   UNL     1       2.484   4.795  19.239  0.00  0.00    +0.000 NA
ATOM     23  C   UNL     1       1.620   4.254  18.187  0.00  0.00    +0.000 C 
ATOM     24  C   UNL     1       0.818   3.008  18.585  0.00  0.00    +0.000 C 
ATOM     25  C   UNL     1       1.728   1.932  19.148  0.00  0.00    +0.000 C 
ATOM     26  C   UNL     1       2.448   2.509  20.357  0.00  0.00    +0.000 C 
ATOM     27  C   UNL     1       3.274   3.779  19.997  0.00  0.00    +0.000 C 
BRANCH  27  28
ATOM     28  C   UNL     1       4.635   3.359  19.390  0.00  0.00    +0.000 C 
BRANCH  28  29
ATOM     29  O   UNL     1       5.131   2.150  19.973  0.00  0.00    +0.000 OA
ATOM     30  H   UNL     1       6.089   2.259  20.117  0.00  0.00    +0.000 HD
ENDBRANCH  28  29
ENDBRANCH  27  28
ENDBRANCH  21  22
ENDBRANCH   8  21
TORSDOF 7
ENDMDL
MODEL 2
REMARK VINA RESULT:      -8.1      1.172      1.346
REMARK  Name = 
REMARK  8 active torsions:
REMARK  status: ('A' for Active; 'I' for Inactive)
REMARK    1  A    between atoms: C_1  and  S_2
REMARK    2  A    between atoms: S_2  and  C_3
REMARK    3  A    between atoms: C_6  and  C_7
REMARK    4  A    between atoms: C_7  and  N_8
REMARK    5  A    between atoms: C_15  and  C_16
REMARK    6  A    between atoms: C_16  and  N_17
REMARK    7  A    between atoms: C_22  and  C_23
REMARK    8  A    between atoms: C_23  and  O_24
REMARK                            x       y       z     vdW  Elec       q    Type
REMARK                         _______ _______ _______ _____ _____    ______ ____
ROOT
ATOM      1  N   UNL     1      -0.413  11.108  22.133  0.00  0.00    +0.000 NA
ATOM      2  C   UNL     1      -0.931  11.884  20.922  0.00  0.00    +0.000 C 
ATOM      3  C   UNL     1      -0.060  11.411  19.834  0.00  0.00    +0.000 C 
ATOM      4  O   UNL     1       0.113  10.758  18.641  0.00  0.00    +0.000 OA
ATOM      5  C   UNL     1       0.865   9.634  19.042  0.00  0.00    +0.000 A 
ATOM      6  C   UNL     1       1.552   9.144  17.931  0.00  0.00    +0.000 A 
ATOM      7  C   UNL     1       2.344   8.028  18.050  0.00  0.00    +0.000 A 
ATOM      8  C   UNL     1       2.458   7.355  19.270  0.00  0.00    +0.000 A 
ATOM      9  C   UNL     1       1.752   7.875  20.443  0.00  0.00    +0.000 A 
ATOM     10  C   UNL     1       0.948   9.073  20.392  0.00  0.00    +0.000 A 
ATOM     11  C   UNL     1       0.050   9.595  21.794  0.00  0.00    +0.000 C 
ENDROOT
BRANCH   1  12
ATOM     12  C   UNL     1      -1.558  11.376  23.070  0.00  0.00    +0.000 C 
BRANCH  12  16
ATOM     13  C   UNL     1      -3.535  15.079  24.208  0.00  0.00    +0.000 A 
ATOM     14  C   UNL     1      -4.305  13.983  23.779  0.00  0.00    +0.000 A 
ATOM     15  C   UNL     1      -3.708  12.780  23.341  0.00  0.00    +0.000 A 
ATOM     16  C   UNL     1      -2.322  12.661  23.297  0.00  0.00    +0.000 A 
ATOM     17  C   UNL     1      -1.560  13.766  23.769  0.00  0.00    +0.000 A 
ATOM     18  C   UNL     1      -2.152  14.953  24.207  0.00  0.00    +0.000 A 
BRANCH  13  20
ATOM     19  C   UNL     1      -2.994  17.810  24.139  0.00  0.00    +0.000 C 
ATOM     20  S   UNL     1      -4.251  16.635  24.713  0.00  0.00    +0.000 S 
ENDBRANCH  13  20
ENDBRANCH  12  16
ENDBRANCH   1  12
BRANCH   8  21
ATOM     21  C   UNL     1       3.217   6.013  19.157  0.00  0.00    +0.000 C 
BRANCH  21  22
ATOM     22  N   UNL     1       2.345   4.828  18.849  0.00  0.00    +0.000 NA
ATOM     23  C   UNL     1       3.071   3.858  18.027  0.00  0.00    +0.000 C 
ATOM     24  C   UNL     1       2.290   2.582  17.688  0.00  0.00    +0.000 C 
ATOM     25  C   UNL     1       1.743   1.929  18.943  0.00  0.00    +0.000 C 
ATOM     26  C   UNL     1       0.841   2.933  19.643  0.00  0.00    +0.000 C 
ATOM     27  C   UNL     1       1.596   4.247  20.004  0.00  0.00    +0.000 C 
BRANCH  27  28
ATOM     28  C   UNL     1       2.389   4.046  21.319  0.00  0.00    +0.000 C 
BRANCH  28  29
ATOM     29  O   UNL     1       1.791   3.053  22.158  0.00  0.00    +0.000 OA
ATOM     30  H   UNL     1       2.476   2.727  22.770  0.00  0.00    +0.000 HD
ENDBRANCH  28  29
ENDBRANCH  27  28
ENDBRANCH  21  22
ENDBRANCH   8  21
TORSDOF 7
ENDMDL
MODEL 3
REMARK VINA RESULT:      -7.6      1.754      2.782
REMARK  Name = 
REMARK  8 active torsions:
REMARK  status: ('A' for Active; 'I' for Inactive)
REMARK    1  A    between atoms: C_1  and  S_2
REMARK    2  A    between atoms: S_2  and  C_3
REMARK    3  A    between atoms: C_6  and  C_7
REMARK    4  A    between atoms: C_7  and  N_8
REMARK    5  A    between atoms: C_15  and  C_16
REMARK    6  A    between atoms: C_16  and  N_17
REMARK    7  A    between atoms: C_22  and  C_23
REMARK    8  A    between atoms: C_23  and  O_24
REMARK                            x       y       z     vdW  Elec       q    Type
REMARK                         _______ _______ _______ _____ _____    ______ ____
ROOT
ATOM      1  N   UNL     1      -0.075  10.732  22.083  0.00  0.00    +0.000 NA
ATOM      2  C   UNL     1      -0.555  11.614  20.932  0.00  0.00    +0.000 C 
ATOM      3  C   UNL     1       0.313  11.198  19.817  0.00  0.00    +0.000 C 
ATOM      4  O   UNL     1       0.478  10.633  18.579  0.00  0.00    +0.000 OA
ATOM      5  C   UNL     1       1.190   9.457  18.899  0.00  0.00    +0.000 A 
ATOM      6  C   UNL     1       1.873   9.032  17.760  0.00  0.00    +0.000 A 
ATOM      7  C   UNL     1       2.628   7.885  17.800  0.00  0.00    +0.000 A 
ATOM      8  C   UNL     1       2.707   7.118  18.965  0.00  0.00    +0.000 A 
ATOM      9  C   UNL     1       2.006   7.569  20.168  0.00  0.00    +0.000 A 
ATOM     10  C   UNL     1       1.240   8.793  20.203  0.00  0.00    +0.000 A 
ATOM     11  C   UNL     1       0.345   9.235  21.634  0.00  0.00    +0.000 C 
ENDROOT
BRANCH   1  12
ATOM     12  C   UNL     1      -1.220  10.964  23.029  0.00  0.00    +0.000 C 
BRANCH  12  16
ATOM     13  C   UNL     1      -3.406  14.644  23.798  0.00  0.00    +0.000 A 
ATOM     14  C   UNL     1      -2.012  14.689  23.617  0.00  0.00    +0.000 A 
ATOM     15  C   UNL     1      -1.249  13.516  23.425  0.00  0.00    +0.000 A 
ATOM     16  C   UNL     1      -1.866  12.268  23.440  0.00  0.00    +0.000 A 
ATOM     17  C   UNL     1      -3.281  12.245  23.589  0.00  0.00    +0.000 A 
ATOM     18  C   UNL     1      -4.034  13.406  23.772  0.00  0.00    +0.000 A 
BRANCH  13  20
ATOM     19  C   UNL     1      -3.234  17.134  25.034  0.00  0.00    +0.000 C 
ATOM     20  S   UNL     1      -4.396  16.099  24.101  0.00  0.00    +0.000 S 
ENDBRANCH  13  20
ENDBRANCH  12  16
ENDBRANCH   1  12
BRANCH   8  21
ATOM     21  C   UNL     1       3.425   5.764  18.756  0.00  0.00    +0.000 C 
BRANCH  21  22
ATOM     22  N   UNL     1       4.831   5.878  18.238  0.00  0.00    +0.000 NA
ATOM     23  C   UNL     1       5.789   5.436  19.254  0.00  0.00    +0.000 C 
ATOM     24  C   UNL     1       7.259   5.467  18.817  0.00  0.00    +0.000 C 
ATOM     25  C   UNL     1       7.457   4.710  17.518  0.00  0.00    +0.000 C 
ATOM     26  C   UNL     1       6.574   5.352  16.458  0.00  0.00    +0.000 C 
ATOM     27  C   UNL     1       5.071   5.342  16.864  0.00  0.00    +0.000 C 
BRANCH  27  28
ATOM     28  C   UNL     1       4.453   3.960  16.538  0.00  0.00    +0.000 C 
BRANCH  28  29
ATOM     29  O   UNL     1       4.830   2.966  17.495  0.00  0.00    +0.000 OA
ATOM     30  H   UNL     1       4.955   3.410  18.353  0.00  0.00    +0.000 HD
ENDBRANCH  28  29
ENDBRANCH  27  28
ENDBRANCH  21  22
ENDBRANCH   8  21
TORSDOF 7
ENDMDL
MODEL 4
REMARK VINA RESULT:      -7.5      1.801      2.404
REMARK  Name = 
REMARK  8 active torsions:
REMARK  status: ('A' for Active; 'I' for Inactive)
REMARK    1  A    between atoms: C_1  and  S_2
REMARK    2  A    between atoms: S_2  and  C_3
REMARK    3  A    between atoms: C_6  and  C_7
REMARK    4  A    between atoms: C_7  and  N_8
REMARK    5  A    between atoms: C_15  and  C_16
REMARK    6  A    between atoms: C_16  and  N_17
REMARK    7  A    between atoms: C_22  and  C_23
REMARK    8  A    between atoms: C_23  and  O_24
REMARK                            x       y       z     vdW  Elec       q    Type
REMARK                         _______ _______ _______ _____ _____    ______ ____
ROOT
ATOM      1  N   UNL     1       0.498  12.504  21.583  0.00  0.00    +0.000 NA
ATOM      2  C   UNL     1       0.421  13.117  20.185  0.00  0.00    +0.000 C 
ATOM      3  C   UNL     1       1.120  12.123  19.354  0.00  0.00    +0.000 C 
ATOM      4  O   UNL     1       1.115  11.198  18.342  0.00  0.00    +0.000 OA
ATOM      5  C   UNL     1       1.333  10.000  19.055  0.00  0.00    +0.000 A 
ATOM      6  C   UNL     1       1.857   9.053  18.176  0.00  0.00    +0.000 A 
ATOM      7  C   UNL     1       2.136   7.783  18.620  0.00  0.00    +0.000 A 
ATOM      8  C   UNL     1       1.882   7.414  19.943  0.00  0.00    +0.000 A 
ATOM      9  C   UNL     1       1.347   8.408  20.874  0.00  0.00    +0.000 A 
ATOM     10  C   UNL     1       1.083   9.772  20.480  0.00  0.00    +0.000 A 
ATOM     11  C   UNL     1       0.356  10.892  21.603  0.00  0.00    +0.000 C 
ENDROOT
BRANCH   1  12
ATOM     12  C   UNL     1      -0.519  13.379  22.261  0.00  0.00    +0.000 C 
BRANCH  12  16
ATOM     13  C   UNL     1      -4.770  13.119  23.145  0.00  0.00    +0.000 A 
ATOM     14  C   UNL     1      -3.867  12.277  23.819  0.00  0.00    +0.000 A 
ATOM     15  C   UNL     1      -2.486  12.280  23.524  0.00  0.00    +0.000 A 
ATOM     16  C   UNL     1      -1.983  13.109  22.525  0.00  0.00    +0.000 A 
ATOM     17  C   UNL     1      -2.906  13.980  21.880  0.00  0.00    +0.000 A 
ATOM     18  C   UNL     1      -4.270  13.980  22.176  0.00  0.00    +0.000 A 
BRANCH  13  20
ATOM     19  C   UNL     1      -7.141  12.277  21.953  0.00  0.00    +0.000 C 
ATOM     20  S   UNL     1      -6.530  13.102  23.448  0.00  0.00    +0.000 S 
ENDBRANCH  13  20
ENDBRANCH  12  16
ENDBRANCH   1  12
BRANCH   8  21
ATOM     21  C   UNL     1       2.060   5.898  20.197  0.00  0.00    +0.000 C 
BRANCH  21  22
ATOM     22  N   UNL     1       2.657   5.140  19.046  0.00  0.00    +0.000 NA
ATOM     23  C   UNL     1       3.975   4.614  19.407  0.00  0.00    +0.000 C 
ATOM     24  C   UNL     1       4.662   3.780  18.316  0.00  0.00    +0.000 C 
ATOM     25  C   UNL     1       3.750   2.672  17.824  0.00  0.00    +0.000 C 
ATOM     26  C   UNL     1       2.480   3.310  17.284  0.00  0.00    +0.000 C 
ATOM     27  C   UNL     1       1.752   4.168  18.360  0.00  0.00    +0.000 C 
BRANCH  27  28
ATOM     28  C   UNL     1       0.900   3.249  19.270  0.00  0.00    +0.000 C 
BRANCH  28  29
ATOM     29  O   UNL     1       0.304   2.174  18.536  0.00  0.00    +0.000 OA
ATOM     30  H   UNL     1      -0.523   1.927  18.986  0.00  0.00    +0.000 HD
ENDBRANCH  28  29
ENDBRANCH  27  28
ENDBRANCH  21  22
ENDBRANCH   8  21
TORSDOF 7
ENDMDL
MODEL 5
REMARK VINA RESULT:      -7.5      1.886      2.341
REMARK  Name = 
REMARK  8 active torsions:
REMARK  status: ('A' for Active; 'I' for Inactive)
REMARK    1  A    between atoms: C_1  and  S_2
REMARK    2  A    between atoms: S_2  and  C_3
REMARK    3  A    between atoms: C_6  and  C_7
REMARK    4  A    between atoms: C_7  and  N_8
REMARK    5  A    between atoms: C_15  and  C_16
REMARK    6  A    between atoms: C_16  and  N_17
REMARK    7  A    between atoms: C_22  and  C_23
REMARK    8  A    between atoms: C_23  and  O_24
REMARK                            x       y       z     vdW  Elec       q    Type
REMARK                         _______ _______ _______ _____ _____    ______ ____
ROOT
ATOM      1  N   UNL     1       0.481  12.209  21.383  0.00  0.00    +0.000 NA
ATOM      2  C   UNL     1       0.435  12.717  19.942  0.00  0.00    +0.000 C 
ATOM      3  C   UNL     1       1.174  11.678  19.206  0.00  0.00    +0.000 C 
ATOM      4  O   UNL     1       1.215  10.681  18.265  0.00  0.00    +0.000 OA
ATOM      5  C   UNL     1       1.431   9.543  19.070  0.00  0.00    +0.000 A 
ATOM      6  C   UNL     1       1.997   8.544  18.278  0.00  0.00    +0.000 A 
ATOM      7  C   UNL     1       2.285   7.316  18.822  0.00  0.00    +0.000 A 
ATOM      8  C   UNL     1       1.999   7.040  20.162  0.00  0.00    +0.000 A 
ATOM      9  C   UNL     1       1.420   8.090  21.002  0.00  0.00    +0.000 A 
ATOM     10  C   UNL     1       1.145   9.416  20.500  0.00  0.00    +0.000 A 
ATOM     11  C   UNL     1       0.367  10.601  21.517  0.00  0.00    +0.000 C 
ENDROOT
BRANCH   1  12
ATOM     12  C   UNL     1      -0.569  13.112  21.966  0.00  0.00    +0.000 C 
BRANCH  12  16
ATOM     13  C   UNL     1      -4.891  12.858  22.382  0.00  0.00    +0.000 A 
ATOM     14  C   UNL     1      -4.069  12.580  23.489  0.00  0.00    +0.000 A 
ATOM     15  C   UNL     1      -2.660  12.589  23.389  0.00  0.00    +0.000 A 
ATOM     16  C   UNL     1      -2.045  12.850  22.168  0.00  0.00    +0.000 A 
ATOM     17  C   UNL     1      -2.892  13.165  21.069  0.00  0.00    +0.000 A 
ATOM     18  C   UNL     1      -4.285  13.161  21.171  0.00  0.00    +0.000 A 
BRANCH  13  20
ATOM     19  C   UNL     1      -7.076  12.118  20.822  0.00  0.00    +0.000 C 
ATOM     20  S   UNL     1      -6.675  12.800  22.455  0.00  0.00    +0.000 S 
ENDBRANCH  13  20
ENDBRANCH  12  16
ENDBRANCH   1  12
BRANCH   8  21
ATOM     21  C   UNL     1       2.196   5.551  20.532  0.00  0.00    +0.000 C 
BRANCH  21  22
ATOM     22  N   UNL     1       1.804   4.583  19.451  0.00  0.00    +0.000 NA
ATOM     23  C   UNL     1       2.863   4.482  18.445  0.00  0.00    +0.000 C 
ATOM     24  C   UNL     1       2.589   3.484  17.313  0.00  0.00    +0.000 C 
ATOM     25  C   UNL     1       2.232   2.117  17.866  0.00  0.00    +0.000 C 
ATOM     26  C   UNL     1       1.003   2.271  18.747  0.00  0.00    +0.000 C 
ATOM     27  C   UNL     1       1.239   3.279  19.911  0.00  0.00    +0.000 C 
BRANCH  27  28
ATOM     28  C   UNL     1       1.978   2.569  21.072  0.00  0.00    +0.000 C 
BRANCH  28  29
ATOM     29  O   UNL     1       1.192   2.536  22.267  0.00  0.00    +0.000 OA
ATOM     30  H   UNL     1       0.927   3.450  22.475  0.00  0.00    +0.000 HD
ENDBRANCH  28  29
ENDBRANCH  27  28
ENDBRANCH  21  22
ENDBRANCH   8  21
TORSDOF 7
ENDMDL
MODEL 6
REMARK VINA RESULT:      -7.5      1.546      2.370
REMARK  Name = 
REMARK  8 active torsions:
REMARK  status: ('A' for Active; 'I' for Inactive)
REMARK    1  A    between atoms: C_1  and  S_2
REMARK    2  A    between atoms: S_2  and  C_3
REMARK    3  A    between atoms: C_6  and  C_7
REMARK    4  A    between atoms: C_7  and  N_8
REMARK    5  A    between atoms: C_15  and  C_16
REMARK    6  A    between atoms: C_16  and  N_17
REMARK    7  A    between atoms: C_22  and  C_23
REMARK    8  A    between atoms: C_23  and  O_24
REMARK                            x       y       z     vdW  Elec       q    Type
REMARK                         _______ _______ _______ _____ _____    ______ ____
ROOT
ATOM      1  N   UNL     1      -0.056  10.994  22.157  0.00  0.00    +0.000 NA
ATOM      2  C   UNL     1      -0.486  11.840  20.959  0.00  0.00    +0.000 C 
ATOM      3  C   UNL     1       0.366  11.327  19.873  0.00  0.00    +0.000 C 
ATOM      4  O   UNL     1       0.510  10.693  18.666  0.00  0.00    +0.000 OA
ATOM      5  C   UNL     1       1.160   9.501  19.050  0.00  0.00    +0.000 A 
ATOM      6  C   UNL     1       1.827   8.985  17.939  0.00  0.00    +0.000 A 
ATOM      7  C   UNL     1       2.523   7.806  18.041  0.00  0.00    +0.000 A 
ATOM      8  C   UNL     1       2.558   7.095  19.244  0.00  0.00    +0.000 A 
ATOM      9  C   UNL     1       1.873   7.640  20.418  0.00  0.00    +0.000 A 
ATOM     10  C   UNL     1       1.170   8.901  20.385  0.00  0.00    +0.000 A 
ATOM     11  C   UNL     1       0.290   9.458  21.785  0.00  0.00    +0.000 C 
ENDROOT
BRANCH   1  12
ATOM     12  C   UNL     1      -1.194  11.330  23.080  0.00  0.00    +0.000 C 
BRANCH  12  16
ATOM     13  C   UNL     1      -3.861  14.750  23.404  0.00  0.00    +0.000 A 
ATOM     14  C   UNL     1      -4.371  13.509  22.984  0.00  0.00    +0.000 A 
ATOM     15  C   UNL     1      -3.535  12.384  22.805  0.00  0.00    +0.000 A 
ATOM     16  C   UNL     1      -2.163  12.488  23.015  0.00  0.00    +0.000 A 
ATOM     17  C   UNL     1      -1.671  13.742  23.474  0.00  0.00    +0.000 A 
ATOM     18  C   UNL     1      -2.499  14.851  23.657  0.00  0.00    +0.000 A 
BRANCH  13  20
ATOM     19  C   UNL     1      -4.255  16.881  25.153  0.00  0.00    +0.000 C 
ATOM     20  S   UNL     1      -4.875  16.209  23.586  0.00  0.00    +0.000 S 
ENDBRANCH  13  20
ENDBRANCH  12  16
ENDBRANCH   1  12
BRANCH   8  21
ATOM     21  C   UNL     1       3.209   5.698  19.108  0.00  0.00    +0.000 C 
BRANCH  21  22
ATOM     22  N   UNL     1       4.394   5.651  18.185  0.00  0.00    +0.000 NA
ATOM     23  C   UNL     1       5.637   5.555  18.953  0.00  0.00    +0.000 C 
ATOM     24  C   UNL     1       6.915   5.455  18.109  0.00  0.00    +0.000 C 
ATOM     25  C   UNL     1       6.812   4.328  17.098  0.00  0.00    +0.000 C 
ATOM     26  C   UNL     1       5.609   4.600  16.209  0.00  0.00    +0.000 C 
ATOM     27  C   UNL     1       4.288   4.711  17.029  0.00  0.00    +0.000 C 
BRANCH  27  28
ATOM     28  C   UNL     1       3.742   3.293  17.330  0.00  0.00    +0.000 C 
BRANCH  28  29
ATOM     29  O   UNL     1       4.505   2.630  18.342  0.00  0.00    +0.000 OA
ATOM     30  H   UNL     1       5.013   1.917  17.915  0.00  0.00    +0.000 HD
ENDBRANCH  28  29
ENDBRANCH  27  28
ENDBRANCH  21  22
ENDBRANCH   8  21
TORSDOF 7
ENDMDL
MODEL 7
REMARK VINA RESULT:      -7.4      1.696      2.631
REMARK  Name = 
REMARK  8 active torsions:
REMARK  status: ('A' for Active; 'I' for Inactive)
REMARK    1  A    between atoms: C_1  and  S_2
REMARK    2  A    between atoms: S_2  and  C_3
REMARK    3  A    between atoms: C_6  and  C_7
REMARK    4  A    between atoms: C_7  and  N_8
REMARK    5  A    between atoms: C_15  and  C_16
REMARK    6  A    between atoms: C_16  and  N_17
REMARK    7  A    between atoms: C_22  and  C_23
REMARK    8  A    between atoms: C_23  and  O_24
REMARK                            x       y       z     vdW  Elec       q    Type
REMARK                         _______ _______ _______ _____ _____    ______ ____
ROOT
ATOM      1  N   UNL     1      -0.602  11.289  22.034  0.00  0.00    +0.000 NA
ATOM      2  C   UNL     1      -0.971  12.054  20.763  0.00  0.00    +0.000 C 
ATOM      3  C   UNL     1      -0.024  11.517  19.772  0.00  0.00    +0.000 C 
ATOM      4  O   UNL     1       0.230  10.826  18.615  0.00  0.00    +0.000 OA
ATOM      5  C   UNL     1       0.891   9.682  19.110  0.00  0.00    +0.000 A 
ATOM      6  C   UNL     1       1.656   9.135  18.080  0.00  0.00    +0.000 A 
ATOM      7  C   UNL     1       2.383   7.990  18.298  0.00  0.00    +0.000 A 
ATOM      8  C   UNL     1       2.353   7.346  19.537  0.00  0.00    +0.000 A 
ATOM      9  C   UNL     1       1.565   7.925  20.627  0.00  0.00    +0.000 A 
ATOM     10  C   UNL     1       0.823   9.154  20.474  0.00  0.00    +0.000 A 
ATOM     11  C   UNL     1      -0.177   9.750  21.774  0.00  0.00    +0.000 C 
ENDROOT
BRANCH   1  12
ATOM     12  C   UNL     1      -1.816  11.630  22.853  0.00  0.00    +0.000 C 
BRANCH  12  16
ATOM     13  C   UNL     1      -3.207  15.463  24.365  0.00  0.00    +0.000 A 
ATOM     14  C   UNL     1      -1.837  15.271  24.116  0.00  0.00    +0.000 A 
ATOM     15  C   UNL     1      -1.327  14.026  23.683  0.00  0.00    +0.000 A 
ATOM     16  C   UNL     1      -2.180  12.938  23.518  0.00  0.00    +0.000 A 
ATOM     17  C   UNL     1      -3.568  13.161  23.740  0.00  0.00    +0.000 A 
ATOM     18  C   UNL     1      -4.070  14.394  24.162  0.00  0.00    +0.000 A 
BRANCH  13  20
ATOM     19  C   UNL     1      -2.370  17.967  25.249  0.00  0.00    +0.000 C 
ATOM     20  S   UNL     1      -3.881  17.003  24.969  0.00  0.00    +0.000 S 
ENDBRANCH  13  20
ENDBRANCH  12  16
ENDBRANCH   1  12
BRANCH   8  21
ATOM     21  C   UNL     1       3.060   5.970  19.525  0.00  0.00    +0.000 C 
BRANCH  21  22
ATOM     22  N   UNL     1       4.103   5.815  18.455  0.00  0.00    +0.000 NA
ATOM     23  C   UNL     1       5.415   5.555  19.053  0.00  0.00    +0.000 C 
ATOM     24  C   UNL     1       6.553   5.335  18.048  0.00  0.00    +0.000 C 
ATOM     25  C   UNL     1       6.191   4.258  17.043  0.00  0.00    +0.000 C 
ATOM     26  C   UNL     1       4.924   4.691  16.323  0.00  0.00    +0.000 C 
ATOM     27  C   UNL     1       3.742   4.928  17.309  0.00  0.00    +0.000 C 
BRANCH  27  28
ATOM     28  C   UNL     1       3.077   3.574  17.658  0.00  0.00    +0.000 C 
BRANCH  28  29
ATOM     29  O   UNL     1       1.764   3.462  17.099  0.00  0.00    +0.000 OA
ATOM     30  H   UNL     1       1.200   3.005  17.749  0.00  0.00    +0.000 HD
ENDBRANCH  28  29
ENDBRANCH  27  28
ENDBRANCH  21  22
ENDBRANCH   8  21
TORSDOF 7
ENDMDL
MODEL 8
REMARK VINA RESULT:      -7.3      4.341     10.886
REMARK  Name = 
REMARK  8 active torsions:
REMARK  status: ('A' for Active; 'I' for Inactive)
REMARK    1  A    between atoms: C_1  and  S_2
REMARK    2  A    between atoms: S_2  and  C_3
REMARK    3  A    between atoms: C_6  and  C_7
REMARK    4  A    between atoms: C_7  and  N_8
REMARK    5  A    between atoms: C_15  and  C_16
REMARK    6  A    between atoms: C_16  and  N_17
REMARK    7  A    between atoms: C_22  and  C_23
REMARK    8  A    between atoms: C_23  and  O_24
REMARK                            x       y       z     vdW  Elec       q    Type
REMARK                         _______ _______ _______ _____ _____    ______ ____
ROOT
ATOM      1  N   UNL     1       1.446   9.265  19.126  0.00  0.00    +0.000 NA
ATOM      2  C   UNL     1       1.764   8.283  20.253  0.00  0.00    +0.000 C 
ATOM      3  C   UNL     1       1.210   8.957  21.439  0.00  0.00    +0.000 C 
ATOM      4  O   UNL     1       0.319   9.001  22.480  0.00  0.00    +0.000 OA
ATOM      5  C   UNL     1      -0.490  10.097  22.112  0.00  0.00    +0.000 A 
ATOM      6  C   UNL     1      -1.102  10.597  23.261  0.00  0.00    +0.000 A 
ATOM      7  C   UNL     1      -1.968  11.659  23.171  0.00  0.00    +0.000 A 
ATOM      8  C   UNL     1      -2.266  12.239  21.935  0.00  0.00    +0.000 A 
ATOM      9  C   UNL     1      -1.614  11.728  20.728  0.00  0.00    +0.000 A 
ATOM     10  C   UNL     1      -0.655  10.649  20.767  0.00  0.00    +0.000 A 
ATOM     11  C   UNL     1       0.021  10.014  19.289  0.00  0.00    +0.000 C 
ENDROOT
BRANCH   1  12
ATOM     12  C   UNL     1       1.713   8.354  17.960  0.00  0.00    +0.000 C 
BRANCH  12  16
ATOM     13  C   UNL     1       4.680   5.296  17.090  0.00  0.00    +0.000 A 
ATOM     14  C   UNL     1       3.432   4.922  17.618  0.00  0.00    +0.000 A 
ATOM     15  C   UNL     1       2.458   5.881  17.975  0.00  0.00    +0.000 A 
ATOM     16  C   UNL     1       2.727   7.240  17.835  0.00  0.00    +0.000 A 
ATOM     17  C   UNL     1       3.981   7.598  17.265  0.00  0.00    +0.000 A 
ATOM     18  C   UNL     1       4.941   6.648  16.908  0.00  0.00    +0.000 A 
BRANCH  13  20
ATOM     19  C   UNL     1       6.081   4.331  14.886  0.00  0.00    +0.000 C 
ATOM     20  S   UNL     1       5.958   4.117  16.683  0.00  0.00    +0.000 S 
ENDBRANCH  13  20
ENDBRANCH  12  16
ENDBRANCH   1  12
BRANCH   8  21
ATOM     21  C   UNL     1      -3.413  13.275  22.008  0.00  0.00    +0.000 C 
BRANCH  21  22
ATOM     22  N   UNL     1      -4.757  12.693  22.344  0.00  0.00    +0.000 NA
ATOM     23  C   UNL     1      -5.311  13.338  23.537  0.00  0.00    +0.000 C 
ATOM     24  C   UNL     1      -6.707  12.851  23.948  0.00  0.00    +0.000 C 
ATOM     25  C   UNL     1      -7.677  12.935  22.785  0.00  0.00    +0.000 C 
ATOM     26  C   UNL     1      -7.130  12.082  21.651  0.00  0.00    +0.000 C 
ATOM     27  C   UNL     1      -5.710  12.542  21.204  0.00  0.00    +0.000 C 
BRANCH  27  28
ATOM     28  C   UNL     1      -5.835  13.743  20.235  0.00  0.00    +0.000 C 
BRANCH  28  29
ATOM     29  O   UNL     1      -5.277  13.454  18.950  0.00  0.00    +0.000 OA
ATOM     30  H   UNL     1      -5.004  12.519  18.946  0.00  0.00    +0.000 HD
ENDBRANCH  28  29
ENDBRANCH  27  28
ENDBRANCH  21  22
ENDBRANCH   8  21
TORSDOF 7
ENDMDL
MODEL 9
REMARK VINA RESULT:      -7.3      4.099      5.951
REMARK  Name = 
REMARK  8 active torsions:
REMARK  status: ('A' for Active; 'I' for Inactive)
REMARK    1  A    between atoms: C_1  and  S_2
REMARK    2  A    between atoms: S_2  and  C_3
REMARK    3  A    between atoms: C_6  and  C_7
REMARK    4  A    between atoms: C_7  and  N_8
REMARK    5  A    between atoms: C_15  and  C_16
REMARK    6  A    between atoms: C_16  and  N_17
REMARK    7  A    between atoms: C_22  and  C_23
REMARK    8  A    between atoms: C_23  and  O_24
REMARK                            x       y       z     vdW  Elec       q    Type
REMARK                         _______ _______ _______ _____ _____    ______ ____
ROOT
ATOM      1  N   UNL     1       0.391  11.813  18.929  0.00  0.00    +0.000 NA
ATOM      2  C   UNL     1       0.059  11.779  20.420  0.00  0.00    +0.000 C 
ATOM      3  C   UNL     1       0.141  10.344  20.741  0.00  0.00    +0.000 C 
ATOM      4  O   UNL     1       0.724   9.303  21.415  0.00  0.00    +0.000 OA
ATOM      5  C   UNL     1       1.313   8.577  20.358  0.00  0.00    +0.000 A 
ATOM      6  C   UNL     1       1.500   7.261  20.777  0.00  0.00    +0.000 A 
ATOM      7  C   UNL     1       2.085   6.348  19.935  0.00  0.00    +0.000 A 
ATOM      8  C   UNL     1       2.520   6.723  18.660  0.00  0.00    +0.000 A 
ATOM      9  C   UNL     1       2.311   8.099  18.209  0.00  0.00    +0.000 A 
ATOM     10  C   UNL     1       1.655   9.090  19.030  0.00  0.00    +0.000 A 
ATOM     11  C   UNL     1       1.517  10.741  18.482  0.00  0.00    +0.000 C 
ENDROOT
BRANCH   1  12
ATOM     12  C   UNL     1       0.631  13.291  18.792  0.00  0.00    +0.000 C 
BRANCH  12  16
ATOM     13  C   UNL     1       4.536  15.119  19.357  0.00  0.00    +0.000 A 
ATOM     14  C   UNL     1       3.637  15.053  20.436  0.00  0.00    +0.000 A 
ATOM     15  C   UNL     1       2.335  14.525  20.289  0.00  0.00    +0.000 A 
ATOM     16  C   UNL     1       1.897  14.077  19.046  0.00  0.00    +0.000 A 
ATOM     17  C   UNL     1       2.832  14.118  17.974  0.00  0.00    +0.000 A 
ATOM     18  C   UNL     1       4.121  14.635  18.123  0.00  0.00    +0.000 A 
BRANCH  13  20
ATOM     19  C   UNL     1       7.140  14.696  18.464  0.00  0.00    +0.000 C 
ATOM     20  S   UNL     1       6.168  15.833  19.490  0.00  0.00    +0.000 S 
ENDBRANCH  13  20
ENDBRANCH  12  16
ENDBRANCH   1  12
BRANCH   8  21
ATOM     21  C   UNL     1       3.338   5.620  17.947  0.00  0.00    +0.000 C 
BRANCH  21  22
ATOM     22  N   UNL     1       4.818   5.873  17.903  0.00  0.00    +0.000 NA
ATOM     23  C   UNL     1       5.456   5.394  19.132  0.00  0.00    +0.000 C 
ATOM     24  C   UNL     1       6.980   5.560  19.179  0.00  0.00    +0.000 C 
ATOM     25  C   UNL     1       7.632   4.948  17.954  0.00  0.00    +0.000 C 
ATOM     26  C   UNL     1       7.061   5.633  16.723  0.00  0.00    +0.000 C 
ATOM     27  C   UNL     1       5.513   5.489  16.637  0.00  0.00    +0.000 C 
BRANCH  27  28
ATOM     28  C   UNL     1       5.151   4.110  16.034  0.00  0.00    +0.000 C 
BRANCH  28  29
ATOM     29  O   UNL     1       6.059   3.725  14.997  0.00  0.00    +0.000 OA
ATOM     30  H   UNL     1       6.344   2.810  15.175  0.00  0.00    +0.000 HD
ENDBRANCH  28  29
ENDBRANCH  27  28
ENDBRANCH  21  22
ENDBRANCH   8  21
TORSDOF 7
ENDMDL
