MODEL 1
REMARK VINA RESULT:      -7.8      0.000      0.000
REMARK  Name = 
REMARK  1 active torsions:
REMARK  status: ('A' for Active; 'I' for Inactive)
REMARK    1  A    between atoms: C_13  and  C_14
REMARK                            x       y       z     vdW  Elec       q    Type
REMARK                         _______ _______ _______ _____ _____    ______ ____
ROOT
ATOM      1  O   UNL     1       0.678   8.817  20.867  0.00  0.00    +0.000 OA
ATOM      2  C   UNL     1       1.391   8.158  20.124  0.00  0.00    +0.000 C 
ATOM      3  N   UNL     1       1.863   6.903  20.429  0.00  0.00    +0.000 NA
ATOM      4  C   UNL     1       2.629   6.393  19.521  0.00  0.00    +0.000 C 
ATOM      5  N   UNL     1       3.168   5.132  19.588  0.00  0.00    +0.000 N 
ATOM      6  C   UNL     1       4.345   4.671  18.841  0.00  0.00    +0.000 C 
ATOM      7  C   UNL     1       4.164   3.199  18.438  0.00  0.00    +0.000 C 
ATOM      8  O   UNL     1       3.868   2.366  19.570  0.00  0.00    +0.000 OA
ATOM      9  C   UNL     1       2.682   2.824  20.238  0.00  0.00    +0.000 C 
ATOM     10  C   UNL     1       2.854   4.263  20.735  0.00  0.00    +0.000 C 
ATOM     11  S   UNL     1       2.895   7.405  18.115  0.00  0.00    +0.000 S 
ATOM     12  C   UNL     1       1.841   8.598  18.771  0.00  0.00    +0.000 C 
ATOM     13  C   UNL     1       1.511   9.714  18.109  0.00  0.00    +0.000 C 
ENDROOT
BRANCH  13  14
ATOM     14  C   UNL     1       0.631  10.772  18.624  0.00  0.00    +0.000 A 
ATOM     15  C   UNL     1       1.219  11.775  19.409  0.00  0.00    +0.000 A 
ATOM     16  C   UNL     1       0.433  12.771  19.977  0.00  0.00    +0.000 A 
ATOM     17  C   UNL     1      -0.943  12.775  19.761  0.00  0.00    +0.000 A 
ATOM     18  C   UNL     1      -1.552  11.800  18.955  0.00  0.00    +0.000 A 
ATOM     19  C   UNL     1      -2.937  11.837  18.727  0.00  0.00    +0.000 A 
ATOM     20  C   UNL     1      -3.558  10.888  17.918  0.00  0.00    +0.000 A 
ATOM     21  C   UNL     1      -2.802   9.884  17.327  0.00  0.00    +0.000 A 
ATOM     22  C   UNL     1      -1.425   9.828  17.552  0.00  0.00    +0.000 A 
ATOM     23  C   UNL     1      -0.766  10.780  18.367  0.00  0.00    +0.000 A 
ENDBRANCH  13  14
TORSDOF 1
ENDMDL
MODEL 2
REMARK VINA RESULT:      -7.7      2.262      7.675
REMARK  Name = 
REMARK  1 active torsions:
REMARK  status: ('A' for Active; 'I' for Inactive)
REMARK    1  A    between atoms: C_13  and  C_14
REMARK                            x       y       z     vdW  Elec       q    Type
REMARK                         _______ _______ _______ _____ _____    ______ ____
ROOT
ATOM      1  O   UNL     1       2.225   6.856  20.651  0.00  0.00    +0.000 OA
ATOM      2  C   UNL     1       1.892   7.807  19.959  0.00  0.00    +0.000 C 
ATOM      3  N   UNL     1       1.115   8.848  20.410  0.00  0.00    +0.000 NA
ATOM      4  C   UNL     1       0.849   9.736  19.508  0.00  0.00    +0.000 C 
ATOM      5  N   UNL     1       0.137  10.886  19.746  0.00  0.00    +0.000 N 
ATOM      6  C   UNL     1      -0.548  11.687  18.723  0.00  0.00    +0.000 C 
ATOM      7  C   UNL     1      -0.451  13.179  19.080  0.00  0.00    +0.000 C 
ATOM      8  O   UNL     1      -0.936  13.446  20.406  0.00  0.00    +0.000 OA
ATOM      9  C   UNL     1      -0.204  12.678  21.375  0.00  0.00    +0.000 C 
ATOM     10  C   UNL     1      -0.347  11.178  21.106  0.00  0.00    +0.000 C 
ATOM     11  S   UNL     1       1.532   9.420  17.925  0.00  0.00    +0.000 S 
ATOM     12  C   UNL     1       2.291   7.999  18.534  0.00  0.00    +0.000 C 
ATOM     13  C   UNL     1       3.108   7.241  17.792  0.00  0.00    +0.000 C 
ENDROOT
BRANCH  13  14
ATOM     14  C   UNL     1       3.770   6.013  18.252  0.00  0.00    +0.000 A 
ATOM     15  C   UNL     1       5.118   6.109  18.630  0.00  0.00    +0.000 A 
ATOM     16  C   UNL     1       5.821   4.974  19.016  0.00  0.00    +0.000 A 
ATOM     17  C   UNL     1       5.181   3.737  19.032  0.00  0.00    +0.000 A 
ATOM     18  C   UNL     1       3.826   3.617  18.688  0.00  0.00    +0.000 A 
ATOM     19  C   UNL     1       3.192   2.365  18.737  0.00  0.00    +0.000 A 
ATOM     20  C   UNL     1       1.843   2.228  18.413  0.00  0.00    +0.000 A 
ATOM     21  C   UNL     1       1.109   3.343  18.032  0.00  0.00    +0.000 A 
ATOM     22  C   UNL     1       1.727   4.594  17.969  0.00  0.00    +0.000 A 
ATOM     23  C   UNL     1       3.095   4.763  18.294  0.00  0.00    +0.000 A 
ENDBRANCH  13  14
TORSDOF 1
ENDMDL
MODEL 3
REMARK VINA RESULT:      -7.4      2.801      7.775
REMARK  Name = 
REMARK  1 active torsions:
REMARK  status: ('A' for Active; 'I' for Inactive)
REMARK    1  A    between atoms: C_13  and  C_14
REMARK                            x       y       z     vdW  Elec       q    Type
REMARK                         _______ _______ _______ _____ _____    ______ ____
ROOT
ATOM      1  O   UNL     1       1.607   8.349  17.744  0.00  0.00    +0.000 OA
ATOM      2  C   UNL     1       1.264   8.796  18.830  0.00  0.00    +0.000 C 
ATOM      3  N   UNL     1       0.528   9.947  18.986  0.00  0.00    +0.000 NA
ATOM      4  C   UNL     1       0.301  10.264  20.219  0.00  0.00    +0.000 C 
ATOM      5  N   UNL     1      -0.457  11.340  20.611  0.00  0.00    +0.000 N 
ATOM      6  C   UNL     1      -0.397  11.986  21.928  0.00  0.00    +0.000 C 
ATOM      7  C   UNL     1      -1.800  12.456  22.342  0.00  0.00    +0.000 C 
ATOM      8  O   UNL     1      -2.401  13.295  21.343  0.00  0.00    +0.000 OA
ATOM      9  C   UNL     1      -2.484  12.604  20.086  0.00  0.00    +0.000 C 
ATOM     10  C   UNL     1      -1.093  12.194  19.594  0.00  0.00    +0.000 C 
ATOM     11  S   UNL     1       0.976   9.167  21.407  0.00  0.00    +0.000 S 
ATOM     12  C   UNL     1       1.569   8.158  20.144  0.00  0.00    +0.000 C 
ATOM     13  C   UNL     1       2.186   6.993  20.377  0.00  0.00    +0.000 C 
ENDROOT
BRANCH  13  14
ATOM     14  C   UNL     1       2.725   6.101  19.342  0.00  0.00    +0.000 A 
ATOM     15  C   UNL     1       3.762   6.598  18.539  0.00  0.00    +0.000 A 
ATOM     16  C   UNL     1       4.275   5.828  17.501  0.00  0.00    +0.000 A 
ATOM     17  C   UNL     1       3.760   4.556  17.263  0.00  0.00    +0.000 A 
ATOM     18  C   UNL     1       2.743   4.024  18.070  0.00  0.00    +0.000 A 
ATOM     19  C   UNL     1       2.256   2.729  17.831  0.00  0.00    +0.000 A 
ATOM     20  C   UNL     1       1.257   2.177  18.630  0.00  0.00    +0.000 A 
ATOM     21  C   UNL     1       0.728   2.914  19.681  0.00  0.00    +0.000 A 
ATOM     22  C   UNL     1       1.195   4.207  19.926  0.00  0.00    +0.000 A 
ATOM     23  C   UNL     1       2.210   4.793  19.132  0.00  0.00    +0.000 A 
ENDBRANCH  13  14
TORSDOF 1
ENDMDL
MODEL 4
REMARK VINA RESULT:      -7.4      2.614      8.208
REMARK  Name = 
REMARK  1 active torsions:
REMARK  status: ('A' for Active; 'I' for Inactive)
REMARK    1  A    between atoms: C_13  and  C_14
REMARK                            x       y       z     vdW  Elec       q    Type
REMARK                         _______ _______ _______ _____ _____    ______ ____
ROOT
ATOM      1  O   UNL     1       2.660   7.726  17.421  0.00  0.00    +0.000 OA
ATOM      2  C   UNL     1       2.183   7.995  18.514  0.00  0.00    +0.000 C 
ATOM      3  N   UNL     1       1.528   9.172  18.794  0.00  0.00    +0.000 NA
ATOM      4  C   UNL     1       1.130   9.274  20.020  0.00  0.00    +0.000 C 
ATOM      5  N   UNL     1       0.409  10.335  20.510  0.00  0.00    +0.000 N 
ATOM      6  C   UNL     1       0.306  10.710  21.926  0.00  0.00    +0.000 C 
ATOM      7  C   UNL     1      -1.103  11.249  22.220  0.00  0.00    +0.000 C 
ATOM      8  O   UNL     1      -1.461  12.325  21.338  0.00  0.00    +0.000 OA
ATOM      9  C   UNL     1      -1.394  11.897  19.968  0.00  0.00    +0.000 C 
ATOM     10  C   UNL     1       0.021  11.433  19.608  0.00  0.00    +0.000 C 
ATOM     11  S   UNL     1       1.509   7.903  21.044  0.00  0.00    +0.000 S 
ATOM     12  C   UNL     1       2.215   7.091  19.700  0.00  0.00    +0.000 C 
ATOM     13  C   UNL     1       2.688   5.841  19.777  0.00  0.00    +0.000 C 
ENDROOT
BRANCH  13  14
ATOM     14  C   UNL     1       3.313   5.105  18.671  0.00  0.00    +0.000 A 
ATOM     15  C   UNL     1       2.466   4.385  17.814  0.00  0.00    +0.000 A 
ATOM     16  C   UNL     1       2.998   3.618  16.785  0.00  0.00    +0.000 A 
ATOM     17  C   UNL     1       4.378   3.568  16.600  0.00  0.00    +0.000 A 
ATOM     18  C   UNL     1       5.246   4.301  17.424  0.00  0.00    +0.000 A 
ATOM     19  C   UNL     1       6.632   4.259  17.206  0.00  0.00    +0.000 A 
ATOM     20  C   UNL     1       7.509   4.992  18.003  0.00  0.00    +0.000 A 
ATOM     21  C   UNL     1       7.011   5.777  19.035  0.00  0.00    +0.000 A 
ATOM     22  C   UNL     1       5.635   5.822  19.272  0.00  0.00    +0.000 A 
ATOM     23  C   UNL     1       4.721   5.090  18.477  0.00  0.00    +0.000 A 
ENDBRANCH  13  14
TORSDOF 1
ENDMDL
MODEL 5
REMARK VINA RESULT:      -7.1      2.447      8.082
REMARK  Name = 
REMARK  1 active torsions:
REMARK  status: ('A' for Active; 'I' for Inactive)
REMARK    1  A    between atoms: C_13  and  C_14
REMARK                            x       y       z     vdW  Elec       q    Type
REMARK                         _______ _______ _______ _____ _____    ______ ____
ROOT
ATOM      1  O   UNL     1       2.118   6.983  20.400  0.00  0.00    +0.000 OA
ATOM      2  C   UNL     1       1.776   8.000  19.812  0.00  0.00    +0.000 C 
ATOM      3  N   UNL     1       1.101   9.038  20.409  0.00  0.00    +0.000 NA
ATOM      4  C   UNL     1       0.803  10.004  19.603  0.00  0.00    +0.000 C 
ATOM      5  N   UNL     1       0.179  11.165  19.990  0.00  0.00    +0.000 N 
ATOM      6  C   UNL     1      -0.552  12.074  19.097  0.00  0.00    +0.000 C 
ATOM      7  C   UNL     1      -0.343  13.527  19.550  0.00  0.00    +0.000 C 
ATOM      8  O   UNL     1      -0.690  13.714  20.931  0.00  0.00    +0.000 OA
ATOM      9  C   UNL     1       0.085  12.841  21.769  0.00  0.00    +0.000 C 
ATOM     10  C   UNL     1      -0.163  11.373  21.407  0.00  0.00    +0.000 C 
ATOM     11  S   UNL     1       1.320   9.779  17.944  0.00  0.00    +0.000 S 
ATOM     12  C   UNL     1       2.053   8.281  18.373  0.00  0.00    +0.000 C 
ATOM     13  C   UNL     1       2.758   7.545  17.505  0.00  0.00    +0.000 C 
ENDROOT
BRANCH  13  14
ATOM     14  C   UNL     1       3.391   6.255  17.810  0.00  0.00    +0.000 A 
ATOM     15  C   UNL     1       2.546   5.173  18.098  0.00  0.00    +0.000 A 
ATOM     16  C   UNL     1       3.081   3.941  18.455  0.00  0.00    +0.000 A 
ATOM     17  C   UNL     1       4.463   3.780  18.521  0.00  0.00    +0.000 A 
ATOM     18  C   UNL     1       5.331   4.837  18.209  0.00  0.00    +0.000 A 
ATOM     19  C   UNL     1       6.722   4.648  18.255  0.00  0.00    +0.000 A 
ATOM     20  C   UNL     1       7.600   5.680  17.934  0.00  0.00    +0.000 A 
ATOM     21  C   UNL     1       7.100   6.922  17.564  0.00  0.00    +0.000 A 
ATOM     22  C   UNL     1       5.720   7.130  17.523  0.00  0.00    +0.000 A 
ATOM     23  C   UNL     1       4.803   6.099  17.841  0.00  0.00    +0.000 A 
ENDBRANCH  13  14
TORSDOF 1
ENDMDL
MODEL 6
REMARK VINA RESULT:      -7.0      1.993      2.514
REMARK  Name = 
REMARK  1 active torsions:
REMARK  status: ('A' for Active; 'I' for Inactive)
REMARK    1  A    between atoms: C_13  and  C_14
REMARK                            x       y       z     vdW  Elec       q    Type
REMARK                         _______ _______ _______ _____ _____    ______ ____
ROOT
ATOM      1  O   UNL     1       1.844  10.169  17.466  0.00  0.00    +0.000 OA
ATOM      2  C   UNL     1       2.195   9.092  17.926  0.00  0.00    +0.000 C 
ATOM      3  N   UNL     1       3.095   8.254  17.309  0.00  0.00    +0.000 NA
ATOM      4  C   UNL     1       3.304   7.147  17.945  0.00  0.00    +0.000 C 
ATOM      5  N   UNL     1       4.200   6.187  17.545  0.00  0.00    +0.000 N 
ATOM      6  C   UNL     1       4.174   4.777  17.955  0.00  0.00    +0.000 C 
ATOM      7  C   UNL     1       5.611   4.253  18.106  0.00  0.00    +0.000 C 
ATOM      8  O   UNL     1       6.388   4.466  16.917  0.00  0.00    +0.000 OA
ATOM      9  C   UNL     1       6.426   5.863  16.583  0.00  0.00    +0.000 C 
ATOM     10  C   UNL     1       5.015   6.406  16.338  0.00  0.00    +0.000 C 
ATOM     11  S   UNL     1       2.403   6.962  19.437  0.00  0.00    +0.000 S 
ATOM     12  C   UNL     1       1.725   8.531  19.226  0.00  0.00    +0.000 C 
ATOM     13  C   UNL     1       0.921   9.100  20.133  0.00  0.00    +0.000 C 
ENDROOT
BRANCH  13  14
ATOM     14  C   UNL     1       0.303  10.425  20.000  0.00  0.00    +0.000 A 
ATOM     15  C   UNL     1       0.904  11.489  20.689  0.00  0.00    +0.000 A 
ATOM     16  C   UNL     1       0.335  12.757  20.656  0.00  0.00    +0.000 A 
ATOM     17  C   UNL     1      -0.834  12.971  19.930  0.00  0.00    +0.000 A 
ATOM     18  C   UNL     1      -1.439  11.932  19.207  0.00  0.00    +0.000 A 
ATOM     19  C   UNL     1      -2.603  12.174  18.460  0.00  0.00    +0.000 A 
ATOM     20  C   UNL     1      -3.210  11.158  17.724  0.00  0.00    +0.000 A 
ATOM     21  C   UNL     1      -2.663   9.882  17.727  0.00  0.00    +0.000 A 
ATOM     22  C   UNL     1      -1.512   9.622  18.474  0.00  0.00    +0.000 A 
ATOM     23  C   UNL     1      -0.872  10.635  19.229  0.00  0.00    +0.000 A 
ENDBRANCH  13  14
TORSDOF 1
ENDMDL
MODEL 7
REMARK VINA RESULT:      -6.8      1.008      2.651
REMARK  Name = 
REMARK  1 active torsions:
REMARK  status: ('A' for Active; 'I' for Inactive)
REMARK    1  A    between atoms: C_13  and  C_14
REMARK                            x       y       z     vdW  Elec       q    Type
REMARK                         _______ _______ _______ _____ _____    ______ ____
ROOT
ATOM      1  O   UNL     1       0.710   9.008  20.834  0.00  0.00    +0.000 OA
ATOM      2  C   UNL     1       1.379   8.272  20.123  0.00  0.00    +0.000 C 
ATOM      3  N   UNL     1       1.861   7.049  20.526  0.00  0.00    +0.000 NA
ATOM      4  C   UNL     1       2.574   6.444  19.633  0.00  0.00    +0.000 C 
ATOM      5  N   UNL     1       3.110   5.190  19.796  0.00  0.00    +0.000 N 
ATOM      6  C   UNL     1       4.244   4.647  19.037  0.00  0.00    +0.000 C 
ATOM      7  C   UNL     1       4.034   3.144  18.792  0.00  0.00    +0.000 C 
ATOM      8  O   UNL     1       3.797   2.430  20.016  0.00  0.00    +0.000 OA
ATOM      9  C   UNL     1       2.650   2.964  20.698  0.00  0.00    +0.000 C 
ATOM     10  C   UNL     1       2.856   4.443  21.038  0.00  0.00    +0.000 C 
ATOM     11  S   UNL     1       2.768   7.309  18.121  0.00  0.00    +0.000 S 
ATOM     12  C   UNL     1       1.756   8.572  18.711  0.00  0.00    +0.000 C 
ATOM     13  C   UNL     1       1.396   9.620  17.960  0.00  0.00    +0.000 C 
ENDROOT
BRANCH  13  14
ATOM     14  C   UNL     1       0.550  10.732  18.413  0.00  0.00    +0.000 A 
ATOM     15  C   UNL     1      -0.813  10.465  18.614  0.00  0.00    +0.000 A 
ATOM     16  C   UNL     1      -1.680  11.487  18.983  0.00  0.00    +0.000 A 
ATOM     17  C   UNL     1      -1.192  12.779  19.159  0.00  0.00    +0.000 A 
ATOM     18  C   UNL     1       0.171  13.067  18.994  0.00  0.00    +0.000 A 
ATOM     19  C   UNL     1       0.649  14.371  19.202  0.00  0.00    +0.000 A 
ATOM     20  C   UNL     1       2.002  14.674  19.058  0.00  0.00    +0.000 A 
ATOM     21  C   UNL     1       2.897  13.675  18.699  0.00  0.00    +0.000 A 
ATOM     22  C   UNL     1       2.437  12.376  18.478  0.00  0.00    +0.000 A 
ATOM     23  C   UNL     1       1.069  12.038  18.620  0.00  0.00    +0.000 A 
ENDBRANCH  13  14
TORSDOF 1
ENDMDL
MODEL 8
REMARK VINA RESULT:      -6.5      1.106      2.805
REMARK  Name = 
REMARK  1 active torsions:
REMARK  status: ('A' for Active; 'I' for Inactive)
REMARK    1  A    between atoms: C_13  and  C_14
REMARK                            x       y       z     vdW  Elec       q    Type
REMARK                         _______ _______ _______ _____ _____    ______ ____
ROOT
ATOM      1  O   UNL     1       0.527   9.073  20.970  0.00  0.00    +0.000 OA
ATOM      2  C   UNL     1       1.225   8.569  20.101  0.00  0.00    +0.000 C 
ATOM      3  N   UNL     1       1.860   7.357  20.238  0.00  0.00    +0.000 NA
ATOM      4  C   UNL     1       2.577   7.020  19.216  0.00  0.00    +0.000 C 
ATOM      5  N   UNL     1       3.254   5.830  19.109  0.00  0.00    +0.000 N 
ATOM      6  C   UNL     1       4.390   5.577  18.213  0.00  0.00    +0.000 C 
ATOM      7  C   UNL     1       4.328   4.134  17.689  0.00  0.00    +0.000 C 
ATOM      8  O   UNL     1       4.246   3.178  18.759  0.00  0.00    +0.000 OA
ATOM      9  C   UNL     1       3.095   3.435  19.578  0.00  0.00    +0.000 C 
ATOM     10  C   UNL     1       3.161   4.837  20.192  0.00  0.00    +0.000 C 
ATOM     11  S   UNL     1       2.580   8.171  17.895  0.00  0.00    +0.000 S 
ATOM     12  C   UNL     1       1.478   9.172  18.760  0.00  0.00    +0.000 C 
ATOM     13  C   UNL     1       0.960  10.293  18.244  0.00  0.00    +0.000 C 
ENDROOT
BRANCH  13  14
ATOM     14  C   UNL     1       0.029  11.192  18.939  0.00  0.00    +0.000 A 
ATOM     15  C   UNL     1      -1.343  10.958  18.767  0.00  0.00    +0.000 A 
ATOM     16  C   UNL     1      -2.278  11.808  19.347  0.00  0.00    +0.000 A 
ATOM     17  C   UNL     1      -1.848  12.893  20.108  0.00  0.00    +0.000 A 
ATOM     18  C   UNL     1      -0.481  13.133  20.320  0.00  0.00    +0.000 A 
ATOM     19  C   UNL     1      -0.068  14.216  21.112  0.00  0.00    +0.000 A 
ATOM     20  C   UNL     1       1.283  14.462  21.347  0.00  0.00    +0.000 A 
ATOM     21  C   UNL     1       2.243  13.627  20.791  0.00  0.00    +0.000 A 
ATOM     22  C   UNL     1       1.849  12.551  19.993  0.00  0.00    +0.000 A 
ATOM     23  C   UNL     1       0.484  12.276  19.738  0.00  0.00    +0.000 A 
ENDBRANCH  13  14
TORSDOF 1
ENDMDL
MODEL 9
REMARK VINA RESULT:      -6.5      2.729      7.996
REMARK  Name = 
REMARK  1 active torsions:
REMARK  status: ('A' for Active; 'I' for Inactive)
REMARK    1  A    between atoms: C_13  and  C_14
REMARK                            x       y       z     vdW  Elec       q    Type
REMARK                         _______ _______ _______ _____ _____    ______ ____
ROOT
ATOM      1  O   UNL     1       1.728   7.846  17.208  0.00  0.00    +0.000 OA
ATOM      2  C   UNL     1       1.544   8.366  18.300  0.00  0.00    +0.000 C 
ATOM      3  N   UNL     1       0.966   9.602  18.471  0.00  0.00    +0.000 NA
ATOM      4  C   UNL     1       0.896   9.983  19.705  0.00  0.00    +0.000 C 
ATOM      5  N   UNL     1       0.309  11.155  20.116  0.00  0.00    +0.000 N 
ATOM      6  C   UNL     1       0.569  11.832  21.393  0.00  0.00    +0.000 C 
ATOM      7  C   UNL     1      -0.725  12.480  21.911  0.00  0.00    +0.000 C 
ATOM      8  O   UNL     1      -1.315  13.353  20.934  0.00  0.00    +0.000 OA
ATOM      9  C   UNL     1      -1.597  12.636  19.721  0.00  0.00    +0.000 C 
ATOM     10  C   UNL     1      -0.316  12.046  19.124  0.00  0.00    +0.000 C 
ATOM     11  S   UNL     1       1.547   8.852  20.874  0.00  0.00    +0.000 S 
ATOM     12  C   UNL     1       1.896   7.739  19.607  0.00  0.00    +0.000 C 
ATOM     13  C   UNL     1       2.392   6.517  19.834  0.00  0.00    +0.000 C 
ENDROOT
BRANCH  13  14
ATOM     14  C   UNL     1       2.722   5.533  18.796  0.00  0.00    +0.000 A 
ATOM     15  C   UNL     1       1.813   4.485  18.586  0.00  0.00    +0.000 A 
ATOM     16  C   UNL     1       2.095   3.486  17.661  0.00  0.00    +0.000 A 
ATOM     17  C   UNL     1       3.283   3.531  16.935  0.00  0.00    +0.000 A 
ATOM     18  C   UNL     1       4.196   4.583  17.104  0.00  0.00    +0.000 A 
ATOM     19  C   UNL     1       5.375   4.624  16.343  0.00  0.00    +0.000 A 
ATOM     20  C   UNL     1       6.287   5.668  16.485  0.00  0.00    +0.000 A 
ATOM     21  C   UNL     1       6.033   6.687  17.393  0.00  0.00    +0.000 A 
ATOM     22  C   UNL     1       4.869   6.656  18.164  0.00  0.00    +0.000 A 
ATOM     23  C   UNL     1       3.924   5.609  18.040  0.00  0.00    +0.000 A 
ENDBRANCH  13  14
TORSDOF 1
ENDMDL
