MODEL 1
REMARK VINA RESULT:      -7.3      0.000      0.000
REMARK  Name = 
REMARK  19 active torsions:
REMARK  status: ('A' for Active; 'I' for Inactive)
REMARK    1  A    between atoms: C_1  and  C_2
REMARK    2  A    between atoms: C_2  and  C_3
REMARK    3  A    between atoms: C_2  and  C_4
REMARK    4  A    between atoms: C_4  and  C_5
REMARK    5  A    between atoms: C_5  and  N_6
REMARK    6  A    between atoms: C_5  and  C_26
REMARK    7  A    between atoms: C_7  and  C_9
REMARK    8  A    between atoms: C_13  and  C_14
REMARK    9  A    between atoms: N_16  and  C_17
REMARK   10  A    between atoms: C_17  and  C_18
REMARK   11  A    between atoms: C_17  and  C_19
REMARK   12  A    between atoms: C_19  and  O_21
REMARK   13  A    between atoms: O_21  and  C_22
REMARK   14  A    between atoms: C_22  and  C_23
REMARK   15  A    between atoms: C_22  and  C_24
REMARK   16  A    between atoms: C_22  and  C_25
REMARK   17  A    between atoms: C_26  and  O_28
REMARK   18  A    between atoms: O_28  and  C_29
REMARK   19  A    between atoms: C_29  and  C_30
REMARK                            x       y       z     vdW  Elec       q    Type
REMARK                         _______ _______ _______ _____ _____    ______ ____
ROOT
ATOM      1  N   UNL     1       4.331   6.397  17.787  0.00  0.00    +0.000 N 
ATOM      2  C   UNL     1       3.289   7.300  17.786  0.00  0.00    +0.000 C 
ATOM      3  O   UNL     1       2.966   7.900  16.768  0.00  0.00    +0.000 OA
ATOM      4  H   UNL     1       4.578   5.893  18.627  0.00  0.00    +0.000 HD
ENDROOT
BRANCH   2   5
ATOM      5  C   UNL     1       2.600   7.416  19.051  0.00  0.00    +0.000 A 
ATOM      6  N   UNL     1       2.582   6.457  20.042  0.00  0.00    +0.000 N 
ATOM      7  C   UNL     1       1.799   6.895  21.067  0.00  0.00    +0.000 A 
ATOM      8  N   UNL     1       1.242   8.045  20.779  0.00  0.00    +0.000 NA
ATOM      9  C   UNL     1       1.724   8.388  19.518  0.00  0.00    +0.000 A 
ATOM     10  H   UNL     1       3.017   5.546  19.990  0.00  0.00    +0.000 HD
BRANCH   9  11
ATOM     11  C   UNL     1       1.281   9.610  18.836  0.00  0.00    +0.000 C 
ATOM     12  O   UNL     1       2.009  10.322  18.161  0.00  0.00    +0.000 OA
ATOM     13  N   UNL     1      -0.061   9.864  19.040  0.00  0.00    +0.000 N 
ATOM     14  H   UNL     1      -0.524   9.311  19.759  0.00  0.00    +0.000 HD
BRANCH  13  15
ATOM     15  C   UNL     1      -0.772  10.986  18.444  0.00  0.00    +0.000 C 
ATOM     16  C   UNL     1      -1.865  10.530  17.475  0.00  0.00    +0.000 C 
BRANCH  15  17
ATOM     17  C   UNL     1      -1.433  11.898  19.490  0.00  0.00    +0.000 C 
ATOM     18  O   UNL     1      -2.590  12.289  19.387  0.00  0.00    +0.000 OA
BRANCH  17  19
ATOM     19  O   UNL     1      -0.594  12.197  20.530  0.00  0.00    +0.000 OA
BRANCH  19  20
ATOM     20  C   UNL     1       0.229  13.395  20.463  0.00  0.00    +0.000 C 
ATOM     21  C   UNL     1       1.715  13.032  20.353  0.00  0.00    +0.000 C 
ATOM     22  C   UNL     1      -0.190  14.145  19.185  0.00  0.00    +0.000 C 
ATOM     23  C   UNL     1      -0.043  14.323  21.653  0.00  0.00    +0.000 C 
ENDBRANCH  19  20
ENDBRANCH  17  19
ENDBRANCH  15  17
ENDBRANCH  13  15
ENDBRANCH   9  11
ENDBRANCH   2   5
BRANCH   1  24
ATOM     24  C   UNL     1       5.066   6.015  16.570  0.00  0.00    +0.000 C 
BRANCH  24  25
ATOM     25  C   UNL     1       5.091   4.480  16.444  0.00  0.00    +0.000 C 
ATOM     26  O   UNL     1       5.340   3.879  15.406  0.00  0.00    +0.000 OA
BRANCH  25  27
ATOM     27  O   UNL     1       4.805   3.860  17.632  0.00  0.00    +0.000 OA
BRANCH  27  28
ATOM     28  C   UNL     1       3.770   2.869  17.576  0.00  0.00    +0.000 C 
BRANCH  28  29
ATOM     29  C   UNL     1       2.915   2.983  18.808  0.00  0.00    +0.000 A 
ATOM     30  C   UNL     1       1.544   3.260  18.712  0.00  0.00    +0.000 A 
ATOM     31  C   UNL     1       0.756   3.338  19.863  0.00  0.00    +0.000 A 
ATOM     32  C   UNL     1       1.329   3.133  21.118  0.00  0.00    +0.000 A 
ATOM     33  C   UNL     1       2.686   2.839  21.225  0.00  0.00    +0.000 A 
ATOM     34  C   UNL     1       3.475   2.761  20.076  0.00  0.00    +0.000 A 
ENDBRANCH  28  29
ENDBRANCH  27  28
ENDBRANCH  25  27
ENDBRANCH  24  25
BRANCH  24  35
ATOM     35  C   UNL     1       6.495   6.610  16.576  0.00  0.00    +0.000 C 
BRANCH  35  37
ATOM     36  C   UNL     1       7.759   6.005  18.723  0.00  0.00    +0.000 C 
ATOM     37  C   UNL     1       7.020   7.097  17.951  0.00  0.00    +0.000 C 
ATOM     38  C   UNL     1       7.939   8.314  17.796  0.00  0.00    +0.000 C 
ENDBRANCH  35  37
ENDBRANCH  24  35
ENDBRANCH   1  24
TORSDOF 13
ENDMDL
MODEL 2
REMARK VINA RESULT:      -7.1      2.235      8.436
REMARK  Name = 
REMARK  19 active torsions:
REMARK  status: ('A' for Active; 'I' for Inactive)
REMARK    1  A    between atoms: C_1  and  C_2
REMARK    2  A    between atoms: C_2  and  C_3
REMARK    3  A    between atoms: C_2  and  C_4
REMARK    4  A    between atoms: C_4  and  C_5
REMARK    5  A    between atoms: C_5  and  N_6
REMARK    6  A    between atoms: C_5  and  C_26
REMARK    7  A    between atoms: C_7  and  C_9
REMARK    8  A    between atoms: C_13  and  C_14
REMARK    9  A    between atoms: N_16  and  C_17
REMARK   10  A    between atoms: C_17  and  C_18
REMARK   11  A    between atoms: C_17  and  C_19
REMARK   12  A    between atoms: C_19  and  O_21
REMARK   13  A    between atoms: O_21  and  C_22
REMARK   14  A    between atoms: C_22  and  C_23
REMARK   15  A    between atoms: C_22  and  C_24
REMARK   16  A    between atoms: C_22  and  C_25
REMARK   17  A    between atoms: C_26  and  O_28
REMARK   18  A    between atoms: O_28  and  C_29
REMARK   19  A    between atoms: C_29  and  C_30
REMARK                            x       y       z     vdW  Elec       q    Type
REMARK                         _______ _______ _______ _____ _____    ______ ____
ROOT
ATOM      1  N   UNL     1       2.539   6.074  20.101  0.00  0.00    +0.000 N 
ATOM      2  C   UNL     1       1.994   4.834  20.355  0.00  0.00    +0.000 C 
ATOM      3  O   UNL     1       0.784   4.682  20.480  0.00  0.00    +0.000 OA
ATOM      4  H   UNL     1       3.536   6.186  19.981  0.00  0.00    +0.000 HD
ENDROOT
BRANCH   2   5
ATOM      5  C   UNL     1       2.956   3.756  20.394  0.00  0.00    +0.000 A 
ATOM      6  N   UNL     1       2.937   2.699  21.280  0.00  0.00    +0.000 N 
ATOM      7  C   UNL     1       4.020   1.906  21.046  0.00  0.00    +0.000 A 
ATOM      8  N   UNL     1       4.789   2.418  20.117  0.00  0.00    +0.000 NA
ATOM      9  C   UNL     1       4.146   3.581  19.697  0.00  0.00    +0.000 A 
ATOM     10  H   UNL     1       2.271   2.568  22.028  0.00  0.00    +0.000 HD
BRANCH   9  11
ATOM     11  C   UNL     1       4.737   4.458  18.680  0.00  0.00    +0.000 C 
ATOM     12  O   UNL     1       4.149   4.845  17.682  0.00  0.00    +0.000 OA
ATOM     13  N   UNL     1       6.040   4.803  18.984  0.00  0.00    +0.000 N 
ATOM     14  H   UNL     1       6.484   4.284  19.738  0.00  0.00    +0.000 HD
BRANCH  13  15
ATOM     15  C   UNL     1       6.849   5.699  18.170  0.00  0.00    +0.000 C 
ATOM     16  C   UNL     1       7.857   6.490  19.007  0.00  0.00    +0.000 C 
BRANCH  15  17
ATOM     17  C   UNL     1       7.634   4.964  17.073  0.00  0.00    +0.000 C 
ATOM     18  O   UNL     1       8.273   3.941  17.293  0.00  0.00    +0.000 OA
BRANCH  17  19
ATOM     19  O   UNL     1       7.520   5.569  15.850  0.00  0.00    +0.000 OA
BRANCH  19  20
ATOM     20  C   UNL     1       6.570   5.046  14.881  0.00  0.00    +0.000 C 
ATOM     21  C   UNL     1       7.210   4.941  13.490  0.00  0.00    +0.000 C 
ATOM     22  C   UNL     1       6.189   3.632  15.356  0.00  0.00    +0.000 C 
ATOM     23  C   UNL     1       5.286   5.886  14.853  0.00  0.00    +0.000 C 
ENDBRANCH  19  20
ENDBRANCH  17  19
ENDBRANCH  15  17
ENDBRANCH  13  15
ENDBRANCH   9  11
ENDBRANCH   2   5
BRANCH   1  24
ATOM     24  C   UNL     1       1.726   7.279  19.870  0.00  0.00    +0.000 C 
BRANCH  24  25
ATOM     25  C   UNL     1       2.258   8.031  18.635  0.00  0.00    +0.000 C 
ATOM     26  O   UNL     1       2.547   7.492  17.573  0.00  0.00    +0.000 OA
BRANCH  25  27
ATOM     27  O   UNL     1       2.368   9.378  18.859  0.00  0.00    +0.000 OA
BRANCH  27  28
ATOM     28  C   UNL     1       1.851  10.219  17.817  0.00  0.00    +0.000 C 
BRANCH  28  29
ATOM     29  C   UNL     1       0.528  10.784  18.255  0.00  0.00    +0.000 A 
ATOM     30  C   UNL     1      -0.658  10.052  18.096  0.00  0.00    +0.000 A 
ATOM     31  C   UNL     1      -1.877  10.578  18.529  0.00  0.00    +0.000 A 
ATOM     32  C   UNL     1      -1.922  11.833  19.133  0.00  0.00    +0.000 A 
ATOM     33  C   UNL     1      -0.750  12.563  19.314  0.00  0.00    +0.000 A 
ATOM     34  C   UNL     1       0.471  12.039  18.881  0.00  0.00    +0.000 A 
ENDBRANCH  28  29
ENDBRANCH  27  28
ENDBRANCH  25  27
ENDBRANCH  24  25
BRANCH  24  35
ATOM     35  C   UNL     1       1.709   8.185  21.125  0.00  0.00    +0.000 C 
BRANCH  35  37
ATOM     36  C   UNL     1      -0.725   8.271  21.927  0.00  0.00    +0.000 C 
ATOM     37  C   UNL     1       0.439   9.053  21.318  0.00  0.00    +0.000 C 
ATOM     38  C   UNL     1       0.731  10.280  22.188  0.00  0.00    +0.000 C 
ENDBRANCH  35  37
ENDBRANCH  24  35
ENDBRANCH   1  24
TORSDOF 13
ENDMDL
MODEL 3
REMARK VINA RESULT:      -7.0      3.301      6.382
REMARK  Name = 
REMARK  19 active torsions:
REMARK  status: ('A' for Active; 'I' for Inactive)
REMARK    1  A    between atoms: C_1  and  C_2
REMARK    2  A    between atoms: C_2  and  C_3
REMARK    3  A    between atoms: C_2  and  C_4
REMARK    4  A    between atoms: C_4  and  C_5
REMARK    5  A    between atoms: C_5  and  N_6
REMARK    6  A    between atoms: C_5  and  C_26
REMARK    7  A    between atoms: C_7  and  C_9
REMARK    8  A    between atoms: C_13  and  C_14
REMARK    9  A    between atoms: N_16  and  C_17
REMARK   10  A    between atoms: C_17  and  C_18
REMARK   11  A    between atoms: C_17  and  C_19
REMARK   12  A    between atoms: C_19  and  O_21
REMARK   13  A    between atoms: O_21  and  C_22
REMARK   14  A    between atoms: C_22  and  C_23
REMARK   15  A    between atoms: C_22  and  C_24
REMARK   16  A    between atoms: C_22  and  C_25
REMARK   17  A    between atoms: C_26  and  O_28
REMARK   18  A    between atoms: O_28  and  C_29
REMARK   19  A    between atoms: C_29  and  C_30
REMARK                            x       y       z     vdW  Elec       q    Type
REMARK                         _______ _______ _______ _____ _____    ______ ____
ROOT
ATOM      1  N   UNL     1      -0.559  10.641  18.769  0.00  0.00    +0.000 N 
ATOM      2  C   UNL     1      -1.148  11.809  18.334  0.00  0.00    +0.000 C 
ATOM      3  O   UNL     1      -0.556  12.881  18.388  0.00  0.00    +0.000 OA
ATOM      4  H   UNL     1      -1.048   9.759  18.703  0.00  0.00    +0.000 HD
ENDROOT
BRANCH   2   5
ATOM      5  C   UNL     1      -2.466  11.637  17.767  0.00  0.00    +0.000 A 
ATOM      6  N   UNL     1      -2.734  11.292  16.459  0.00  0.00    +0.000 N 
ATOM      7  C   UNL     1      -4.084  11.264  16.277  0.00  0.00    +0.000 A 
ATOM      8  N   UNL     1      -4.716  11.642  17.360  0.00  0.00    +0.000 NA
ATOM      9  C   UNL     1      -3.722  11.887  18.306  0.00  0.00    +0.000 A 
ATOM     10  H   UNL     1      -2.046  11.154  15.731  0.00  0.00    +0.000 HD
BRANCH   9  11
ATOM     11  C   UNL     1      -4.049  12.376  19.650  0.00  0.00    +0.000 C 
ATOM     12  O   UNL     1      -4.943  11.922  20.348  0.00  0.00    +0.000 OA
ATOM     13  N   UNL     1      -3.222  13.410  20.044  0.00  0.00    +0.000 N 
ATOM     14  H   UNL     1      -2.636  13.824  19.321  0.00  0.00    +0.000 HD
BRANCH  13  15
ATOM     15  C   UNL     1      -3.295  14.052  21.348  0.00  0.00    +0.000 C 
ATOM     16  C   UNL     1      -1.974  14.716  21.742  0.00  0.00    +0.000 C 
BRANCH  15  17
ATOM     17  C   UNL     1      -4.392  15.126  21.425  0.00  0.00    +0.000 C 
ATOM     18  O   UNL     1      -4.224  16.270  21.020  0.00  0.00    +0.000 OA
BRANCH  17  19
ATOM     19  O   UNL     1      -5.554  14.651  21.972  0.00  0.00    +0.000 OA
BRANCH  19  20
ATOM     20  C   UNL     1      -5.661  14.519  23.416  0.00  0.00    +0.000 C 
ATOM     21  C   UNL     1      -5.095  13.172  23.885  0.00  0.00    +0.000 C 
ATOM     22  C   UNL     1      -4.811  15.649  24.026  0.00  0.00    +0.000 C 
ATOM     23  C   UNL     1      -7.107  14.722  23.887  0.00  0.00    +0.000 C 
ENDBRANCH  19  20
ENDBRANCH  17  19
ENDBRANCH  15  17
ENDBRANCH  13  15
ENDBRANCH   9  11
ENDBRANCH   2   5
BRANCH   1  24
ATOM     24  C   UNL     1       0.834  10.568  19.239  0.00  0.00    +0.000 C 
BRANCH  24  25
ATOM     25  C   UNL     1       1.567   9.431  18.502  0.00  0.00    +0.000 C 
ATOM     26  O   UNL     1       1.921   9.486  17.331  0.00  0.00    +0.000 OA
BRANCH  25  27
ATOM     27  O   UNL     1       1.784   8.347  19.312  0.00  0.00    +0.000 OA
BRANCH  27  28
ATOM     28  C   UNL     1       2.693   7.365  18.794  0.00  0.00    +0.000 C 
BRANCH  28  29
ATOM     29  C   UNL     1       2.136   5.994  19.063  0.00  0.00    +0.000 A 
ATOM     30  C   UNL     1       1.993   5.057  18.029  0.00  0.00    +0.000 A 
ATOM     31  C   UNL     1       1.498   3.779  18.296  0.00  0.00    +0.000 A 
ATOM     32  C   UNL     1       1.151   3.421  19.598  0.00  0.00    +0.000 A 
ATOM     33  C   UNL     1       1.305   4.336  20.637  0.00  0.00    +0.000 A 
ATOM     34  C   UNL     1       1.799   5.615  20.372  0.00  0.00    +0.000 A 
ENDBRANCH  28  29
ENDBRANCH  27  28
ENDBRANCH  25  27
ENDBRANCH  24  25
BRANCH  24  35
ATOM     35  C   UNL     1       0.892  10.382  20.775  0.00  0.00    +0.000 C 
BRANCH  35  37
ATOM     36  C   UNL     1      -0.420   8.599  22.068  0.00  0.00    +0.000 C 
ATOM     37  C   UNL     1      -0.444  10.001  21.462  0.00  0.00    +0.000 C 
ATOM     38  C   UNL     1      -0.817  11.014  22.551  0.00  0.00    +0.000 C 
ENDBRANCH  35  37
ENDBRANCH  24  35
ENDBRANCH   1  24
TORSDOF 13
ENDMDL
MODEL 4
REMARK VINA RESULT:      -7.0      1.279      1.639
REMARK  Name = 
REMARK  19 active torsions:
REMARK  status: ('A' for Active; 'I' for Inactive)
REMARK    1  A    between atoms: C_1  and  C_2
REMARK    2  A    between atoms: C_2  and  C_3
REMARK    3  A    between atoms: C_2  and  C_4
REMARK    4  A    between atoms: C_4  and  C_5
REMARK    5  A    between atoms: C_5  and  N_6
REMARK    6  A    between atoms: C_5  and  C_26
REMARK    7  A    between atoms: C_7  and  C_9
REMARK    8  A    between atoms: C_13  and  C_14
REMARK    9  A    between atoms: N_16  and  C_17
REMARK   10  A    between atoms: C_17  and  C_18
REMARK   11  A    between atoms: C_17  and  C_19
REMARK   12  A    between atoms: C_19  and  O_21
REMARK   13  A    between atoms: O_21  and  C_22
REMARK   14  A    between atoms: C_22  and  C_23
REMARK   15  A    between atoms: C_22  and  C_24
REMARK   16  A    between atoms: C_22  and  C_25
REMARK   17  A    between atoms: C_26  and  O_28
REMARK   18  A    between atoms: O_28  and  C_29
REMARK   19  A    between atoms: C_29  and  C_30
REMARK                            x       y       z     vdW  Elec       q    Type
REMARK                         _______ _______ _______ _____ _____    ______ ____
ROOT
ATOM      1  N   UNL     1       4.121   6.638  17.902  0.00  0.00    +0.000 N 
ATOM      2  C   UNL     1       3.079   7.538  17.978  0.00  0.00    +0.000 C 
ATOM      3  O   UNL     1       2.767   8.235  17.020  0.00  0.00    +0.000 OA
ATOM      4  H   UNL     1       4.359   6.054  18.692  0.00  0.00    +0.000 HD
ENDROOT
BRANCH   2   5
ATOM      5  C   UNL     1       2.376   7.530  19.241  0.00  0.00    +0.000 A 
ATOM      6  N   UNL     1       2.342   6.476  20.130  0.00  0.00    +0.000 N 
ATOM      7  C   UNL     1       1.550   6.813  21.186  0.00  0.00    +0.000 A 
ATOM      8  N   UNL     1       1.002   7.990  21.009  0.00  0.00    +0.000 NA
ATOM      9  C   UNL     1       1.500   8.456  19.794  0.00  0.00    +0.000 A 
ATOM     10  H   UNL     1       2.772   5.572  19.991  0.00  0.00    +0.000 HD
BRANCH   9  11
ATOM     11  C   UNL     1       1.073   9.743  19.235  0.00  0.00    +0.000 C 
ATOM     12  O   UNL     1       0.523   9.874  18.151  0.00  0.00    +0.000 OA
ATOM     13  N   UNL     1       1.358  10.799  20.080  0.00  0.00    +0.000 N 
ATOM     14  H   UNL     1       1.972  10.598  20.866  0.00  0.00    +0.000 HD
BRANCH  13  15
ATOM     15  C   UNL     1       1.002  12.181  19.795  0.00  0.00    +0.000 C 
ATOM     16  C   UNL     1       1.547  12.654  18.445  0.00  0.00    +0.000 C 
BRANCH  15  17
ATOM     17  C   UNL     1      -0.516  12.418  19.788  0.00  0.00    +0.000 C 
ATOM     18  O   UNL     1      -1.050  13.251  19.065  0.00  0.00    +0.000 OA
BRANCH  17  19
ATOM     19  O   UNL     1      -1.180  11.593  20.656  0.00  0.00    +0.000 OA
BRANCH  19  20
ATOM     20  C   UNL     1      -1.476  12.060  22.001  0.00  0.00    +0.000 C 
ATOM     21  C   UNL     1      -1.164  10.972  23.038  0.00  0.00    +0.000 C 
ATOM     22  C   UNL     1      -0.554  13.265  22.261  0.00  0.00    +0.000 C 
ATOM     23  C   UNL     1      -2.924  12.553  22.113  0.00  0.00    +0.000 C 
ENDBRANCH  19  20
ENDBRANCH  17  19
ENDBRANCH  15  17
ENDBRANCH  13  15
ENDBRANCH   9  11
ENDBRANCH   2   5
BRANCH   1  24
ATOM     24  C   UNL     1       4.870   6.376  16.662  0.00  0.00    +0.000 C 
BRANCH  24  25
ATOM     25  C   UNL     1       4.654   4.913  16.229  0.00  0.00    +0.000 C 
ATOM     26  O   UNL     1       5.360   4.324  15.420  0.00  0.00    +0.000 OA
BRANCH  25  27
ATOM     27  O   UNL     1       3.580   4.342  16.859  0.00  0.00    +0.000 OA
BRANCH  27  28
ATOM     28  C   UNL     1       3.859   3.131  17.575  0.00  0.00    +0.000 C 
BRANCH  28  29
ATOM     29  C   UNL     1       2.994   3.078  18.804  0.00  0.00    +0.000 A 
ATOM     30  C   UNL     1       1.601   3.208  18.712  0.00  0.00    +0.000 A 
ATOM     31  C   UNL     1       0.806   3.132  19.858  0.00  0.00    +0.000 A 
ATOM     32  C   UNL     1       1.394   2.917  21.104  0.00  0.00    +0.000 A 
ATOM     33  C   UNL     1       2.775   2.768  21.207  0.00  0.00    +0.000 A 
ATOM     34  C   UNL     1       3.572   2.844  20.062  0.00  0.00    +0.000 A 
ENDBRANCH  28  29
ENDBRANCH  27  28
ENDBRANCH  25  27
ENDBRANCH  24  25
BRANCH  24  35
ATOM     35  C   UNL     1       6.372   6.702  16.843  0.00  0.00    +0.000 C 
BRANCH  35  37
ATOM     36  C   UNL     1       7.643   4.759  17.930  0.00  0.00    +0.000 C 
ATOM     37  C   UNL     1       7.036   6.147  18.129  0.00  0.00    +0.000 C 
ATOM     38  C   UNL     1       8.118   7.100  18.651  0.00  0.00    +0.000 C 
ENDBRANCH  35  37
ENDBRANCH  24  35
ENDBRANCH   1  24
TORSDOF 13
ENDMDL
MODEL 5
REMARK VINA RESULT:      -6.9      2.125      2.993
REMARK  Name = 
REMARK  19 active torsions:
REMARK  status: ('A' for Active; 'I' for Inactive)
REMARK    1  A    between atoms: C_1  and  C_2
REMARK    2  A    between atoms: C_2  and  C_3
REMARK    3  A    between atoms: C_2  and  C_4
REMARK    4  A    between atoms: C_4  and  C_5
REMARK    5  A    between atoms: C_5  and  N_6
REMARK    6  A    between atoms: C_5  and  C_26
REMARK    7  A    between atoms: C_7  and  C_9
REMARK    8  A    between atoms: C_13  and  C_14
REMARK    9  A    between atoms: N_16  and  C_17
REMARK   10  A    between atoms: C_17  and  C_18
REMARK   11  A    between atoms: C_17  and  C_19
REMARK   12  A    between atoms: C_19  and  O_21
REMARK   13  A    between atoms: O_21  and  C_22
REMARK   14  A    between atoms: C_22  and  C_23
REMARK   15  A    between atoms: C_22  and  C_24
REMARK   16  A    between atoms: C_22  and  C_25
REMARK   17  A    between atoms: C_26  and  O_28
REMARK   18  A    between atoms: O_28  and  C_29
REMARK   19  A    between atoms: C_29  and  C_30
REMARK                            x       y       z     vdW  Elec       q    Type
REMARK                         _______ _______ _______ _____ _____    ______ ____
ROOT
ATOM      1  N   UNL     1       4.007   6.475  19.044  0.00  0.00    +0.000 N 
ATOM      2  C   UNL     1       2.699   6.777  18.729  0.00  0.00    +0.000 C 
ATOM      3  O   UNL     1       2.190   6.397  17.682  0.00  0.00    +0.000 OA
ATOM      4  H   UNL     1       4.412   6.778  19.918  0.00  0.00    +0.000 HD
ENDROOT
BRANCH   2   5
ATOM      5  C   UNL     1       1.994   7.511  19.755  0.00  0.00    +0.000 A 
ATOM      6  N   UNL     1       1.487   6.971  20.918  0.00  0.00    +0.000 N 
ATOM      7  C   UNL     1       0.853   7.951  21.621  0.00  0.00    +0.000 A 
ATOM      8  N   UNL     1       0.845   9.080  20.958  0.00  0.00    +0.000 NA
ATOM      9  C   UNL     1       1.550   8.828  19.782  0.00  0.00    +0.000 A 
ATOM     10  H   UNL     1       1.515   5.995  21.177  0.00  0.00    +0.000 HD
BRANCH   9  11
ATOM     11  C   UNL     1       1.716   9.860  18.753  0.00  0.00    +0.000 C 
ATOM     12  O   UNL     1       1.952   9.627  17.577  0.00  0.00    +0.000 OA
ATOM     13  N   UNL     1       1.569  11.135  19.265  0.00  0.00    +0.000 N 
ATOM     14  H   UNL     1       1.555  11.218  20.280  0.00  0.00    +0.000 HD
BRANCH  13  15
ATOM     15  C   UNL     1       1.640  12.344  18.457  0.00  0.00    +0.000 C 
ATOM     16  C   UNL     1       0.271  13.004  18.281  0.00  0.00    +0.000 C 
BRANCH  15  17
ATOM     17  C   UNL     1       2.590  13.400  19.045  0.00  0.00    +0.000 C 
ATOM     18  O   UNL     1       2.852  13.458  20.241  0.00  0.00    +0.000 OA
BRANCH  17  19
ATOM     19  O   UNL     1       3.104  14.234  18.088  0.00  0.00    +0.000 OA
BRANCH  19  20
ATOM     20  C   UNL     1       3.046  15.673  18.288  0.00  0.00    +0.000 C 
ATOM     21  C   UNL     1       1.814  16.059  19.119  0.00  0.00    +0.000 C 
ATOM     22  C   UNL     1       4.312  16.060  19.075  0.00  0.00    +0.000 C 
ATOM     23  C   UNL     1       3.086  16.422  16.950  0.00  0.00    +0.000 C 
ENDBRANCH  19  20
ENDBRANCH  17  19
ENDBRANCH  15  17
ENDBRANCH  13  15
ENDBRANCH   9  11
ENDBRANCH   2   5
BRANCH   1  24
ATOM     24  C   UNL     1       4.855   5.608  18.210  0.00  0.00    +0.000 C 
BRANCH  24  25
ATOM     25  C   UNL     1       5.910   4.915  19.094  0.00  0.00    +0.000 C 
ATOM     26  O   UNL     1       7.075   5.278  19.187  0.00  0.00    +0.000 OA
BRANCH  25  27
ATOM     27  O   UNL     1       5.390   3.843  19.771  0.00  0.00    +0.000 OA
BRANCH  27  28
ATOM     28  C   UNL     1       4.675   2.894  18.966  0.00  0.00    +0.000 C 
BRANCH  28  29
ATOM     29  C   UNL     1       3.216   2.948  19.327  0.00  0.00    +0.000 A 
ATOM     30  C   UNL     1       2.807   3.203  20.644  0.00  0.00    +0.000 A 
ATOM     31  C   UNL     1       1.449   3.275  20.961  0.00  0.00    +0.000 A 
ATOM     32  C   UNL     1       0.488   3.101  19.966  0.00  0.00    +0.000 A 
ATOM     33  C   UNL     1       0.881   2.865  18.651  0.00  0.00    +0.000 A 
ATOM     34  C   UNL     1       2.239   2.792  18.331  0.00  0.00    +0.000 A 
ENDBRANCH  28  29
ENDBRANCH  27  28
ENDBRANCH  25  27
ENDBRANCH  24  25
BRANCH  24  35
ATOM     35  C   UNL     1       5.513   6.414  17.063  0.00  0.00    +0.000 C 
BRANCH  35  37
ATOM     36  C   UNL     1       7.163   5.177  15.540  0.00  0.00    +0.000 C 
ATOM     37  C   UNL     1       5.722   5.649  15.731  0.00  0.00    +0.000 C 
ATOM     38  C   UNL     1       4.780   4.445  15.627  0.00  0.00    +0.000 C 
ENDBRANCH  35  37
ENDBRANCH  24  35
ENDBRANCH   1  24
TORSDOF 13
ENDMDL
MODEL 6
REMARK VINA RESULT:      -6.9      3.635      6.655
REMARK  Name = 
REMARK  19 active torsions:
REMARK  status: ('A' for Active; 'I' for Inactive)
REMARK    1  A    between atoms: C_1  and  C_2
REMARK    2  A    between atoms: C_2  and  C_3
REMARK    3  A    between atoms: C_2  and  C_4
REMARK    4  A    between atoms: C_4  and  C_5
REMARK    5  A    between atoms: C_5  and  N_6
REMARK    6  A    between atoms: C_5  and  C_26
REMARK    7  A    between atoms: C_7  and  C_9
REMARK    8  A    between atoms: C_13  and  C_14
REMARK    9  A    between atoms: N_16  and  C_17
REMARK   10  A    between atoms: C_17  and  C_18
REMARK   11  A    between atoms: C_17  and  C_19
REMARK   12  A    between atoms: C_19  and  O_21
REMARK   13  A    between atoms: O_21  and  C_22
REMARK   14  A    between atoms: C_22  and  C_23
REMARK   15  A    between atoms: C_22  and  C_24
REMARK   16  A    between atoms: C_22  and  C_25
REMARK   17  A    between atoms: C_26  and  O_28
REMARK   18  A    between atoms: O_28  and  C_29
REMARK   19  A    between atoms: C_29  and  C_30
REMARK                            x       y       z     vdW  Elec       q    Type
REMARK                         _______ _______ _______ _____ _____    ______ ____
ROOT
ATOM      1  N   UNL     1      -0.852  10.338  18.594  0.00  0.00    +0.000 N 
ATOM      2  C   UNL     1      -1.378  11.539  18.170  0.00  0.00    +0.000 C 
ATOM      3  O   UNL     1      -0.856  12.606  18.470  0.00  0.00    +0.000 OA
ATOM      4  H   UNL     1      -1.279   9.462  18.326  0.00  0.00    +0.000 HD
ENDROOT
BRANCH   2   5
ATOM      5  C   UNL     1      -2.534  11.413  17.311  0.00  0.00    +0.000 A 
ATOM      6  N   UNL     1      -2.498  11.233  15.944  0.00  0.00    +0.000 N 
ATOM      7  C   UNL     1      -3.775  11.200  15.469  0.00  0.00    +0.000 A 
ATOM      8  N   UNL     1      -4.642  11.424  16.425  0.00  0.00    +0.000 NA
ATOM      9  C   UNL     1      -3.887  11.567  17.588  0.00  0.00    +0.000 A 
ATOM     10  H   UNL     1      -1.664  11.203  15.375  0.00  0.00    +0.000 HD
BRANCH   9  11
ATOM     11  C   UNL     1      -4.518  11.874  18.876  0.00  0.00    +0.000 C 
ATOM     12  O   UNL     1      -5.543  11.348  19.282  0.00  0.00    +0.000 OA
ATOM     13  N   UNL     1      -3.815  12.828  19.587  0.00  0.00    +0.000 N 
ATOM     14  H   UNL     1      -3.084  13.324  19.081  0.00  0.00    +0.000 HD
BRANCH  13  15
ATOM     15  C   UNL     1      -4.192  13.287  20.916  0.00  0.00    +0.000 C 
ATOM     16  C   UNL     1      -3.040  13.996  21.632  0.00  0.00    +0.000 C 
BRANCH  15  17
ATOM     17  C   UNL     1      -5.388  14.252  20.898  0.00  0.00    +0.000 C 
ATOM     18  O   UNL     1      -5.369  15.313  20.285  0.00  0.00    +0.000 OA
BRANCH  17  19
ATOM     19  O   UNL     1      -6.453  13.781  21.619  0.00  0.00    +0.000 OA
BRANCH  19  20
ATOM     20  C   UNL     1      -6.925  14.535  22.769  0.00  0.00    +0.000 C 
ATOM     21  C   UNL     1      -7.893  15.644  22.336  0.00  0.00    +0.000 C 
ATOM     22  C   UNL     1      -7.686  13.540  23.665  0.00  0.00    +0.000 C 
ATOM     23  C   UNL     1      -5.754  15.091  23.588  0.00  0.00    +0.000 C 
ENDBRANCH  19  20
ENDBRANCH  17  19
ENDBRANCH  15  17
ENDBRANCH  13  15
ENDBRANCH   9  11
ENDBRANCH   2   5
BRANCH   1  24
ATOM     24  C   UNL     1       0.408  10.232  19.348  0.00  0.00    +0.000 C 
BRANCH  24  25
ATOM     25  C   UNL     1       1.489   9.589  18.458  0.00  0.00    +0.000 C 
ATOM     26  O   UNL     1       1.982  10.130  17.476  0.00  0.00    +0.000 OA
BRANCH  25  27
ATOM     27  O   UNL     1       1.839   8.339  18.894  0.00  0.00    +0.000 OA
BRANCH  27  28
ATOM     28  C   UNL     1       2.760   7.629  18.053  0.00  0.00    +0.000 C 
BRANCH  28  29
ATOM     29  C   UNL     1       3.007   6.266  18.638  0.00  0.00    +0.000 A 
ATOM     30  C   UNL     1       3.913   5.377  18.041  0.00  0.00    +0.000 A 
ATOM     31  C   UNL     1       4.151   4.123  18.607  0.00  0.00    +0.000 A 
ATOM     32  C   UNL     1       3.494   3.749  19.779  0.00  0.00    +0.000 A 
ATOM     33  C   UNL     1       2.605   4.628  20.391  0.00  0.00    +0.000 A 
ATOM     34  C   UNL     1       2.365   5.883  19.826  0.00  0.00    +0.000 A 
ENDBRANCH  28  29
ENDBRANCH  27  28
ENDBRANCH  25  27
ENDBRANCH  24  25
BRANCH  24  35
ATOM     35  C   UNL     1       0.203   9.436  20.661  0.00  0.00    +0.000 C 
BRANCH  35  37
ATOM     36  C   UNL     1      -0.254  11.671  21.833  0.00  0.00    +0.000 C 
ATOM     37  C   UNL     1       0.306  10.256  21.973  0.00  0.00    +0.000 C 
ATOM     38  C   UNL     1      -0.406   9.544  23.129  0.00  0.00    +0.000 C 
ENDBRANCH  35  37
ENDBRANCH  24  35
ENDBRANCH   1  24
TORSDOF 13
ENDMDL
MODEL 7
REMARK VINA RESULT:      -6.8      1.865      2.444
REMARK  Name = 
REMARK  19 active torsions:
REMARK  status: ('A' for Active; 'I' for Inactive)
REMARK    1  A    between atoms: C_1  and  C_2
REMARK    2  A    between atoms: C_2  and  C_3
REMARK    3  A    between atoms: C_2  and  C_4
REMARK    4  A    between atoms: C_4  and  C_5
REMARK    5  A    between atoms: C_5  and  N_6
REMARK    6  A    between atoms: C_5  and  C_26
REMARK    7  A    between atoms: C_7  and  C_9
REMARK    8  A    between atoms: C_13  and  C_14
REMARK    9  A    between atoms: N_16  and  C_17
REMARK   10  A    between atoms: C_17  and  C_18
REMARK   11  A    between atoms: C_17  and  C_19
REMARK   12  A    between atoms: C_19  and  O_21
REMARK   13  A    between atoms: O_21  and  C_22
REMARK   14  A    between atoms: C_22  and  C_23
REMARK   15  A    between atoms: C_22  and  C_24
REMARK   16  A    between atoms: C_22  and  C_25
REMARK   17  A    between atoms: C_26  and  O_28
REMARK   18  A    between atoms: O_28  and  C_29
REMARK   19  A    between atoms: C_29  and  C_30
REMARK                            x       y       z     vdW  Elec       q    Type
REMARK                         _______ _______ _______ _____ _____    ______ ____
ROOT
ATOM      1  N   UNL     1       3.785   6.524  19.133  0.00  0.00    +0.000 N 
ATOM      2  C   UNL     1       2.534   7.010  18.816  0.00  0.00    +0.000 C 
ATOM      3  O   UNL     1       2.007   6.763  17.738  0.00  0.00    +0.000 OA
ATOM      4  H   UNL     1       4.203   6.717  20.032  0.00  0.00    +0.000 HD
ENDROOT
BRANCH   2   5
ATOM      5  C   UNL     1       1.902   7.762  19.876  0.00  0.00    +0.000 A 
ATOM      6  N   UNL     1       1.530   7.256  21.104  0.00  0.00    +0.000 N 
ATOM      7  C   UNL     1       0.928   8.243  21.825  0.00  0.00    +0.000 A 
ATOM      8  N   UNL     1       0.813   9.341  21.121  0.00  0.00    +0.000 NA
ATOM      9  C   UNL     1       1.411   9.063  19.893  0.00  0.00    +0.000 A 
ATOM     10  H   UNL     1       1.620   6.293  21.397  0.00  0.00    +0.000 HD
BRANCH   9  11
ATOM     11  C   UNL     1       1.438  10.055  18.813  0.00  0.00    +0.000 C 
ATOM     12  O   UNL     1       1.622   9.784  17.636  0.00  0.00    +0.000 OA
ATOM     13  N   UNL     1       1.226  11.338  19.278  0.00  0.00    +0.000 N 
ATOM     14  H   UNL     1       1.264  11.468  20.287  0.00  0.00    +0.000 HD
BRANCH  13  15
ATOM     15  C   UNL     1       1.157  12.509  18.417  0.00  0.00    +0.000 C 
ATOM     16  C   UNL     1      -0.278  13.006  18.227  0.00  0.00    +0.000 C 
BRANCH  15  17
ATOM     17  C   UNL     1       1.988  13.689  18.945  0.00  0.00    +0.000 C 
ATOM     18  O   UNL     1       2.873  13.549  19.782  0.00  0.00    +0.000 OA
BRANCH  17  19
ATOM     19  O   UNL     1       1.636  14.880  18.368  0.00  0.00    +0.000 OA
BRANCH  19  20
ATOM     20  C   UNL     1       1.294  16.011  19.216  0.00  0.00    +0.000 C 
ATOM     21  C   UNL     1       2.485  16.970  19.354  0.00  0.00    +0.000 C 
ATOM     22  C   UNL     1       0.142  16.755  18.514  0.00  0.00    +0.000 C 
ATOM     23  C   UNL     1       0.778  15.545  20.583  0.00  0.00    +0.000 C 
ENDBRANCH  19  20
ENDBRANCH  17  19
ENDBRANCH  15  17
ENDBRANCH  13  15
ENDBRANCH   9  11
ENDBRANCH   2   5
BRANCH   1  24
ATOM     24  C   UNL     1       4.537   5.609  18.259  0.00  0.00    +0.000 C 
BRANCH  24  25
ATOM     25  C   UNL     1       5.482   4.741  19.112  0.00  0.00    +0.000 C 
ATOM     26  O   UNL     1       6.304   5.190  19.901  0.00  0.00    +0.000 OA
BRANCH  25  27
ATOM     27  O   UNL     1       5.293   3.402  18.891  0.00  0.00    +0.000 OA
BRANCH  27  28
ATOM     28  C   UNL     1       4.659   2.685  19.959  0.00  0.00    +0.000 C 
BRANCH  28  29
ATOM     29  C   UNL     1       3.167   2.826  19.826  0.00  0.00    +0.000 A 
ATOM     30  C   UNL     1       2.471   2.182  18.793  0.00  0.00    +0.000 A 
ATOM     31  C   UNL     1       1.083   2.301  18.694  0.00  0.00    +0.000 A 
ATOM     32  C   UNL     1       0.377   3.055  19.631  0.00  0.00    +0.000 A 
ATOM     33  C   UNL     1       1.055   3.684  20.673  0.00  0.00    +0.000 A 
ATOM     34  C   UNL     1       2.443   3.568  20.773  0.00  0.00    +0.000 A 
ENDBRANCH  28  29
ENDBRANCH  27  28
ENDBRANCH  25  27
ENDBRANCH  24  25
BRANCH  24  35
ATOM     35  C   UNL     1       5.311   6.393  17.171  0.00  0.00    +0.000 C 
BRANCH  35  37
ATOM     36  C   UNL     1       7.210   5.418  15.752  0.00  0.00    +0.000 C 
ATOM     37  C   UNL     1       6.828   6.093  17.068  0.00  0.00    +0.000 C 
ATOM     38  C   UNL     1       7.660   7.369  17.240  0.00  0.00    +0.000 C 
ENDBRANCH  35  37
ENDBRANCH  24  35
ENDBRANCH   1  24
TORSDOF 13
ENDMDL
MODEL 8
REMARK VINA RESULT:      -6.8      2.022      3.153
REMARK  Name = 
REMARK  19 active torsions:
REMARK  status: ('A' for Active; 'I' for Inactive)
REMARK    1  A    between atoms: C_1  and  C_2
REMARK    2  A    between atoms: C_2  and  C_3
REMARK    3  A    between atoms: C_2  and  C_4
REMARK    4  A    between atoms: C_4  and  C_5
REMARK    5  A    between atoms: C_5  and  N_6
REMARK    6  A    between atoms: C_5  and  C_26
REMARK    7  A    between atoms: C_7  and  C_9
REMARK    8  A    between atoms: C_13  and  C_14
REMARK    9  A    between atoms: N_16  and  C_17
REMARK   10  A    between atoms: C_17  and  C_18
REMARK   11  A    between atoms: C_17  and  C_19
REMARK   12  A    between atoms: C_19  and  O_21
REMARK   13  A    between atoms: O_21  and  C_22
REMARK   14  A    between atoms: C_22  and  C_23
REMARK   15  A    between atoms: C_22  and  C_24
REMARK   16  A    between atoms: C_22  and  C_25
REMARK   17  A    between atoms: C_26  and  O_28
REMARK   18  A    between atoms: O_28  and  C_29
REMARK   19  A    between atoms: C_29  and  C_30
REMARK                            x       y       z     vdW  Elec       q    Type
REMARK                         _______ _______ _______ _____ _____    ______ ____
ROOT
ATOM      1  N   UNL     1       3.046   6.766  18.896  0.00  0.00    +0.000 N 
ATOM      2  C   UNL     1       2.267   7.889  18.713  0.00  0.00    +0.000 C 
ATOM      3  O   UNL     1       2.036   8.331  17.595  0.00  0.00    +0.000 OA
ATOM      4  H   UNL     1       3.215   6.397  19.821  0.00  0.00    +0.000 HD
ENDROOT
BRANCH   2   5
ATOM      5  C   UNL     1       1.717   8.436  19.933  0.00  0.00    +0.000 A 
ATOM      6  N   UNL     1       1.885   7.904  21.194  0.00  0.00    +0.000 N 
ATOM      7  C   UNL     1       1.190   8.662  22.089  0.00  0.00    +0.000 A 
ATOM      8  N   UNL     1       0.517   9.609  21.485  0.00  0.00    +0.000 NA
ATOM      9  C   UNL     1       0.826   9.484  20.132  0.00  0.00    +0.000 A 
ATOM     10  H   UNL     1       2.380   7.052  21.415  0.00  0.00    +0.000 HD
BRANCH   9  11
ATOM     11  C   UNL     1       0.218  10.359  19.124  0.00  0.00    +0.000 C 
ATOM     12  O   UNL     1       0.843  11.150  18.434  0.00  0.00    +0.000 OA
ATOM     13  N   UNL     1      -1.149  10.182  19.037  0.00  0.00    +0.000 N 
ATOM     14  H   UNL     1      -1.585   9.634  19.777  0.00  0.00    +0.000 HD
BRANCH  13  15
ATOM     15  C   UNL     1      -1.998  10.889  18.089  0.00  0.00    +0.000 C 
ATOM     16  C   UNL     1      -2.572   9.958  17.019  0.00  0.00    +0.000 C 
BRANCH  15  17
ATOM     17  C   UNL     1      -3.180  11.604  18.762  0.00  0.00    +0.000 C 
ATOM     18  O   UNL     1      -3.050  12.654  19.381  0.00  0.00    +0.000 OA
BRANCH  17  19
ATOM     19  O   UNL     1      -4.367  10.947  18.574  0.00  0.00    +0.000 OA
BRANCH  19  20
ATOM     20  C   UNL     1      -5.591  11.715  18.411  0.00  0.00    +0.000 C 
ATOM     21  C   UNL     1      -5.679  12.831  19.461  0.00  0.00    +0.000 C 
ATOM     22  C   UNL     1      -5.523  12.359  17.014  0.00  0.00    +0.000 C 
ATOM     23  C   UNL     1      -6.825  10.806  18.442  0.00  0.00    +0.000 C 
ENDBRANCH  19  20
ENDBRANCH  17  19
ENDBRANCH  15  17
ENDBRANCH  13  15
ENDBRANCH   9  11
ENDBRANCH   2   5
BRANCH   1  24
ATOM     24  C   UNL     1       3.576   5.965  17.780  0.00  0.00    +0.000 C 
BRANCH  24  25
ATOM     25  C   UNL     1       2.585   4.836  17.439  0.00  0.00    +0.000 C 
ATOM     26  O   UNL     1       1.368   4.975  17.407  0.00  0.00    +0.000 OA
BRANCH  25  27
ATOM     27  O   UNL     1       3.222   3.653  17.169  0.00  0.00    +0.000 OA
BRANCH  27  28
ATOM     28  C   UNL     1       2.547   2.472  17.625  0.00  0.00    +0.000 C 
BRANCH  28  29
ATOM     29  C   UNL     1       2.415   2.531  19.122  0.00  0.00    +0.000 A 
ATOM     30  C   UNL     1       3.540   2.416  19.951  0.00  0.00    +0.000 A 
ATOM     31  C   UNL     1       3.407   2.497  21.339  0.00  0.00    +0.000 A 
ATOM     32  C   UNL     1       2.152   2.702  21.910  0.00  0.00    +0.000 A 
ATOM     33  C   UNL     1       1.029   2.835  21.098  0.00  0.00    +0.000 A 
ATOM     34  C   UNL     1       1.159   2.754  19.709  0.00  0.00    +0.000 A 
ENDBRANCH  28  29
ENDBRANCH  27  28
ENDBRANCH  25  27
ENDBRANCH  24  25
BRANCH  24  35
ATOM     35  C   UNL     1       4.981   5.407  18.118  0.00  0.00    +0.000 C 
BRANCH  35  37
ATOM     36  C   UNL     1       6.813   7.053  17.407  0.00  0.00    +0.000 C 
ATOM     37  C   UNL     1       6.103   5.736  17.100  0.00  0.00    +0.000 C 
ATOM     38  C   UNL     1       7.139   4.609  17.033  0.00  0.00    +0.000 C 
ENDBRANCH  35  37
ENDBRANCH  24  35
ENDBRANCH   1  24
TORSDOF 13
ENDMDL
MODEL 9
REMARK VINA RESULT:      -6.8      3.523      6.980
REMARK  Name = 
REMARK  19 active torsions:
REMARK  status: ('A' for Active; 'I' for Inactive)
REMARK    1  A    between atoms: C_1  and  C_2
REMARK    2  A    between atoms: C_2  and  C_3
REMARK    3  A    between atoms: C_2  and  C_4
REMARK    4  A    between atoms: C_4  and  C_5
REMARK    5  A    between atoms: C_5  and  N_6
REMARK    6  A    between atoms: C_5  and  C_26
REMARK    7  A    between atoms: C_7  and  C_9
REMARK    8  A    between atoms: C_13  and  C_14
REMARK    9  A    between atoms: N_16  and  C_17
REMARK   10  A    between atoms: C_17  and  C_18
REMARK   11  A    between atoms: C_17  and  C_19
REMARK   12  A    between atoms: C_19  and  O_21
REMARK   13  A    between atoms: O_21  and  C_22
REMARK   14  A    between atoms: C_22  and  C_23
REMARK   15  A    between atoms: C_22  and  C_24
REMARK   16  A    between atoms: C_22  and  C_25
REMARK   17  A    between atoms: C_26  and  O_28
REMARK   18  A    between atoms: O_28  and  C_29
REMARK   19  A    between atoms: C_29  and  C_30
REMARK                            x       y       z     vdW  Elec       q    Type
REMARK                         _______ _______ _______ _____ _____    ______ ____
ROOT
ATOM      1  N   UNL     1      -1.154  10.555  18.567  0.00  0.00    +0.000 N 
ATOM      2  C   UNL     1      -2.292  11.274  18.268  0.00  0.00    +0.000 C 
ATOM      3  O   UNL     1      -2.703  12.157  19.011  0.00  0.00    +0.000 OA
ATOM      4  H   UNL     1      -0.813   9.842  17.938  0.00  0.00    +0.000 HD
ENDROOT
BRANCH   2   5
ATOM      5  C   UNL     1      -2.894  10.935  16.999  0.00  0.00    +0.000 A 
ATOM      6  N   UNL     1      -2.223  10.428  15.906  0.00  0.00    +0.000 N 
ATOM      7  C   UNL     1      -3.105  10.271  14.879  0.00  0.00    +0.000 A 
ATOM      8  N   UNL     1      -4.293  10.715  15.204  0.00  0.00    +0.000 NA
ATOM      9  C   UNL     1      -4.185  11.142  16.526  0.00  0.00    +0.000 A 
ATOM     10  H   UNL     1      -1.227  10.266  15.847  0.00  0.00    +0.000 HD
BRANCH   9  11
ATOM     11  C   UNL     1      -5.320  11.749  17.230  0.00  0.00    +0.000 C 
ATOM     12  O   UNL     1      -5.862  12.789  16.890  0.00  0.00    +0.000 OA
ATOM     13  N   UNL     1      -5.713  11.003  18.325  0.00  0.00    +0.000 N 
ATOM     14  H   UNL     1      -5.083  10.259  18.618  0.00  0.00    +0.000 HD
BRANCH  13  15
ATOM     15  C   UNL     1      -6.842  11.350  19.176  0.00  0.00    +0.000 C 
ATOM     16  C   UNL     1      -7.192  10.231  20.159  0.00  0.00    +0.000 C 
BRANCH  15  17
ATOM     17  C   UNL     1      -6.601  12.627  19.997  0.00  0.00    +0.000 C 
ATOM     18  O   UNL     1      -7.373  13.578  19.977  0.00  0.00    +0.000 OA
BRANCH  17  19
ATOM     19  O   UNL     1      -5.456  12.561  20.745  0.00  0.00    +0.000 OA
BRANCH  19  20
ATOM     20  C   UNL     1      -5.448  13.117  22.089  0.00  0.00    +0.000 C 
ATOM     21  C   UNL     1      -4.196  12.672  22.857  0.00  0.00    +0.000 C 
ATOM     22  C   UNL     1      -5.410  14.648  21.932  0.00  0.00    +0.000 C 
ATOM     23  C   UNL     1      -6.735  12.762  22.844  0.00  0.00    +0.000 C 
ENDBRANCH  19  20
ENDBRANCH  17  19
ENDBRANCH  15  17
ENDBRANCH  13  15
ENDBRANCH   9  11
ENDBRANCH   2   5
BRANCH   1  24
ATOM     24  C   UNL     1      -0.303  10.844  19.733  0.00  0.00    +0.000 C 
BRANCH  24  25
ATOM     25  C   UNL     1       1.150  11.063  19.268  0.00  0.00    +0.000 C 
ATOM     26  O   UNL     1       1.596  12.138  18.889  0.00  0.00    +0.000 OA
BRANCH  25  27
ATOM     27  O   UNL     1       1.890   9.912  19.332  0.00  0.00    +0.000 OA
BRANCH  27  28
ATOM     28  C   UNL     1       2.038   9.206  18.091  0.00  0.00    +0.000 C 
BRANCH  28  29
ATOM     29  C   UNL     1       2.636   7.853  18.366  0.00  0.00    +0.000 A 
ATOM     30  C   UNL     1       2.248   7.107  19.488  0.00  0.00    +0.000 A 
ATOM     31  C   UNL     1       2.793   5.842  19.718  0.00  0.00    +0.000 A 
ATOM     32  C   UNL     1       3.722   5.307  18.826  0.00  0.00    +0.000 A 
ATOM     33  C   UNL     1       4.102   6.030  17.698  0.00  0.00    +0.000 A 
ATOM     34  C   UNL     1       3.559   7.296  17.466  0.00  0.00    +0.000 A 
ENDBRANCH  28  29
ENDBRANCH  27  28
ENDBRANCH  25  27
ENDBRANCH  24  25
BRANCH  24  35
ATOM     35  C   UNL     1      -0.401   9.712  20.785  0.00  0.00    +0.000 C 
BRANCH  35  37
ATOM     36  C   UNL     1       0.101   9.496  23.290  0.00  0.00    +0.000 C 
ATOM     37  C   UNL     1      -0.774  10.154  22.223  0.00  0.00    +0.000 C 
ATOM     38  C   UNL     1      -0.694  11.677  22.374  0.00  0.00    +0.000 C 
ENDBRANCH  35  37
ENDBRANCH  24  35
ENDBRANCH   1  24
TORSDOF 13
ENDMDL
