MODEL 1
REMARK VINA RESULT:      -8.3      0.000      0.000
REMARK  Name = 
REMARK  4 active torsions:
REMARK  status: ('A' for Active; 'I' for Inactive)
REMARK    1  A    between atoms: C_1  and  C_2
REMARK    2  A    between atoms: C_2  and  C_19
REMARK    3  A    between atoms: N_3  and  N_4
REMARK    4  A    between atoms: C_11  and  C_13
REMARK                            x       y       z     vdW  Elec       q    Type
REMARK                         _______ _______ _______ _____ _____    ______ ____
ROOT
ATOM      1  N   UNL     1       4.751   3.236  18.191  0.00  0.00    +0.000 NA
ATOM      2  C   UNL     1       3.492   3.430  18.413  0.00  0.00    +0.000 C 
ATOM      3  S   UNL     1       2.425   2.215  17.730  0.00  0.00    +0.000 S 
ATOM      4  C   UNL     1       1.017   2.818  18.646  0.00  0.00    +0.000 C 
ATOM      5  C   UNL     1       1.470   4.063  19.354  0.00  0.00    +0.000 C 
ATOM      6  O   UNL     1       0.718   4.637  20.133  0.00  0.00    +0.000 OA
ATOM      7  N   UNL     1       2.777   4.409  19.073  0.00  0.00    +0.000 N 
ATOM      8  C   UNL     1       3.293   5.591  19.603  0.00  0.00    +0.000 C 
ATOM      9  O   UNL     1       4.239   5.646  20.382  0.00  0.00    +0.000 OA
ENDROOT
BRANCH   8  10
ATOM     10  C   UNL     1       2.506   6.867  19.403  0.00  0.00    +0.000 A 
ATOM     11  C   UNL     1       2.443   7.389  18.100  0.00  0.00    +0.000 A 
ATOM     12  C   UNL     1       1.796   8.597  17.839  0.00  0.00    +0.000 A 
ATOM     13  C   UNL     1       1.199   9.301  18.880  0.00  0.00    +0.000 A 
ATOM     14  C   UNL     1       1.229   8.786  20.176  0.00  0.00    +0.000 A 
ATOM     15  C   UNL     1       1.866   7.565  20.439  0.00  0.00    +0.000 A 
ENDBRANCH   8  10
BRANCH   1  18
ATOM     16  C   UNL     1       7.546   5.542  18.669  0.00  0.00    +0.000 C 
ATOM     17  C   UNL     1       6.515   4.664  17.978  0.00  0.00    +0.000 C 
ATOM     18  N   UNL     1       5.629   4.119  18.762  0.00  0.00    +0.000 NA
BRANCH  17  19
ATOM     19  C   UNL     1       6.631   4.543  16.490  0.00  0.00    +0.000 A 
ATOM     20  C   UNL     1       5.775   3.734  15.741  0.00  0.00    +0.000 A 
ATOM     21  C   UNL     1       5.810   3.778  14.349  0.00  0.00    +0.000 A 
ATOM     22  C   UNL     1       6.702   4.643  13.739  0.00  0.00    +0.000 A 
ATOM     23  N   UNL     1       7.574   5.415  14.421  0.00  0.00    +0.000 NA
ATOM     24  C   UNL     1       7.523   5.340  15.777  0.00  0.00    +0.000 A 
ENDBRANCH  17  19
ENDBRANCH   1  18
TORSDOF 3
ENDMDL
MODEL 2
REMARK VINA RESULT:      -8.1      2.536      6.925
REMARK  Name = 
REMARK  4 active torsions:
REMARK  status: ('A' for Active; 'I' for Inactive)
REMARK    1  A    between atoms: C_1  and  C_2
REMARK    2  A    between atoms: C_2  and  C_19
REMARK    3  A    between atoms: N_3  and  N_4
REMARK    4  A    between atoms: C_11  and  C_13
REMARK                            x       y       z     vdW  Elec       q    Type
REMARK                         _______ _______ _______ _____ _____    ______ ____
ROOT
ATOM      1  N   UNL     1       1.982   6.291  20.461  0.00  0.00    +0.000 NA
ATOM      2  C   UNL     1       2.438   5.114  20.183  0.00  0.00    +0.000 C 
ATOM      3  S   UNL     1       2.193   3.909  21.437  0.00  0.00    +0.000 S 
ATOM      4  C   UNL     1       2.659   2.569  20.355  0.00  0.00    +0.000 C 
ATOM      5  C   UNL     1       3.119   3.197  19.070  0.00  0.00    +0.000 C 
ATOM      6  O   UNL     1       3.415   2.493  18.112  0.00  0.00    +0.000 OA
ATOM      7  N   UNL     1       3.102   4.578  19.098  0.00  0.00    +0.000 N 
ATOM      8  C   UNL     1       3.584   5.282  17.996  0.00  0.00    +0.000 C 
ATOM      9  O   UNL     1       2.906   6.039  17.307  0.00  0.00    +0.000 OA
ENDROOT
BRANCH   8  10
ATOM     10  C   UNL     1       4.953   4.925  17.462  0.00  0.00    +0.000 A 
ATOM     11  C   UNL     1       6.041   5.047  18.344  0.00  0.00    +0.000 A 
ATOM     12  C   UNL     1       7.346   4.803  17.914  0.00  0.00    +0.000 A 
ATOM     13  C   UNL     1       7.581   4.430  16.595  0.00  0.00    +0.000 A 
ATOM     14  C   UNL     1       6.512   4.280  15.712  0.00  0.00    +0.000 A 
ATOM     15  C   UNL     1       5.198   4.510  16.144  0.00  0.00    +0.000 A 
ENDBRANCH   8  10
BRANCH   1  18
ATOM     16  C   UNL     1       1.604   9.414  18.601  0.00  0.00    +0.000 C 
ATOM     17  C   UNL     1       1.576   8.418  19.749  0.00  0.00    +0.000 C 
ATOM     18  N   UNL     1       2.086   7.248  19.487  0.00  0.00    +0.000 NA
BRANCH  17  19
ATOM     19  C   UNL     1       0.984   8.901  21.037  0.00  0.00    +0.000 A 
ATOM     20  C   UNL     1      -0.394   8.943  21.251  0.00  0.00    +0.000 A 
ATOM     21  C   UNL     1      -0.898   9.240  22.516  0.00  0.00    +0.000 A 
ATOM     22  C   UNL     1      -0.000   9.480  23.542  0.00  0.00    +0.000 A 
ATOM     23  N   UNL     1       1.338   9.488  23.373  0.00  0.00    +0.000 NA
ATOM     24  C   UNL     1       1.796   9.207  22.125  0.00  0.00    +0.000 A 
ENDBRANCH  17  19
ENDBRANCH   1  18
TORSDOF 3
ENDMDL
MODEL 3
REMARK VINA RESULT:      -8.1      2.677      7.003
REMARK  Name = 
REMARK  4 active torsions:
REMARK  status: ('A' for Active; 'I' for Inactive)
REMARK    1  A    between atoms: C_1  and  C_2
REMARK    2  A    between atoms: C_2  and  C_19
REMARK    3  A    between atoms: N_3  and  N_4
REMARK    4  A    between atoms: C_11  and  C_13
REMARK                            x       y       z     vdW  Elec       q    Type
REMARK                         _______ _______ _______ _____ _____    ______ ____
ROOT
ATOM      1  N   UNL     1       1.887   6.738  20.282  0.00  0.00    +0.000 NA
ATOM      2  C   UNL     1       2.341   5.558  20.009  0.00  0.00    +0.000 C 
ATOM      3  S   UNL     1       1.940   4.320  21.188  0.00  0.00    +0.000 S 
ATOM      4  C   UNL     1       2.482   3.003  20.111  0.00  0.00    +0.000 C 
ATOM      5  C   UNL     1       3.085   3.661  18.902  0.00  0.00    +0.000 C 
ATOM      6  O   UNL     1       3.460   2.981  17.954  0.00  0.00    +0.000 OA
ATOM      7  N   UNL     1       3.099   5.040  18.978  0.00  0.00    +0.000 N 
ATOM      8  C   UNL     1       3.708   5.767  17.956  0.00  0.00    +0.000 C 
ATOM      9  O   UNL     1       3.122   6.565  17.230  0.00  0.00    +0.000 OA
ENDROOT
BRANCH   8  10
ATOM     10  C   UNL     1       5.115   5.390  17.551  0.00  0.00    +0.000 A 
ATOM     11  C   UNL     1       5.332   5.063  16.202  0.00  0.00    +0.000 A 
ATOM     12  C   UNL     1       6.584   4.638  15.757  0.00  0.00    +0.000 A 
ATOM     13  C   UNL     1       7.640   4.535  16.657  0.00  0.00    +0.000 A 
ATOM     14  C   UNL     1       7.450   4.879  17.996  0.00  0.00    +0.000 A 
ATOM     15  C   UNL     1       6.196   5.320  18.443  0.00  0.00    +0.000 A 
ENDBRANCH   8  10
BRANCH   1  18
ATOM     16  C   UNL     1       1.697   9.891  18.446  0.00  0.00    +0.000 C 
ATOM     17  C   UNL     1       1.519   8.865  19.553  0.00  0.00    +0.000 C 
ATOM     18  N   UNL     1       2.114   7.723  19.359  0.00  0.00    +0.000 NA
BRANCH  17  19
ATOM     19  C   UNL     1       0.698   9.291  20.731  0.00  0.00    +0.000 A 
ATOM     20  C   UNL     1       1.008   8.897  22.034  0.00  0.00    +0.000 A 
ATOM     21  C   UNL     1       0.321   9.448  23.114  0.00  0.00    +0.000 A 
ATOM     22  C   UNL     1      -0.659  10.391  22.860  0.00  0.00    +0.000 A 
ATOM     23  N   UNL     1      -1.019  10.774  21.617  0.00  0.00    +0.000 NA
ATOM     24  C   UNL     1      -0.338  10.210  20.585  0.00  0.00    +0.000 A 
ENDBRANCH  17  19
ENDBRANCH   1  18
TORSDOF 3
ENDMDL
MODEL 4
REMARK VINA RESULT:      -7.8      2.732      7.074
REMARK  Name = 
REMARK  4 active torsions:
REMARK  status: ('A' for Active; 'I' for Inactive)
REMARK    1  A    between atoms: C_1  and  C_2
REMARK    2  A    between atoms: C_2  and  C_19
REMARK    3  A    between atoms: N_3  and  N_4
REMARK    4  A    between atoms: C_11  and  C_13
REMARK                            x       y       z     vdW  Elec       q    Type
REMARK                         _______ _______ _______ _____ _____    ______ ____
ROOT
ATOM      1  N   UNL     1       1.805   6.826  20.241  0.00  0.00    +0.000 NA
ATOM      2  C   UNL     1       2.205   5.641  19.911  0.00  0.00    +0.000 C 
ATOM      3  S   UNL     1       1.772   4.371  21.044  0.00  0.00    +0.000 S 
ATOM      4  C   UNL     1       2.242   3.081  19.905  0.00  0.00    +0.000 C 
ATOM      5  C   UNL     1       2.852   3.764  18.714  0.00  0.00    +0.000 C 
ATOM      6  O   UNL     1       3.184   3.110  17.732  0.00  0.00    +0.000 OA
ATOM      7  N   UNL     1       2.925   5.137  18.847  0.00  0.00    +0.000 N 
ATOM      8  C   UNL     1       3.547   5.881  17.845  0.00  0.00    +0.000 C 
ATOM      9  O   UNL     1       2.983   6.732  17.164  0.00  0.00    +0.000 OA
ENDROOT
BRANCH   8  10
ATOM     10  C   UNL     1       4.930   5.464  17.401  0.00  0.00    +0.000 A 
ATOM     11  C   UNL     1       5.894   5.255  18.402  0.00  0.00    +0.000 A 
ATOM     12  C   UNL     1       7.213   4.936  18.076  0.00  0.00    +0.000 A 
ATOM     13  C   UNL     1       7.586   4.817  16.741  0.00  0.00    +0.000 A 
ATOM     14  C   UNL     1       6.638   4.996  15.734  0.00  0.00    +0.000 A 
ATOM     15  C   UNL     1       5.308   5.304  16.059  0.00  0.00    +0.000 A 
ENDBRANCH   8  10
BRANCH   1  18
ATOM     16  C   UNL     1       1.685  10.044  18.515  0.00  0.00    +0.000 C 
ATOM     17  C   UNL     1       1.478   8.983  19.583  0.00  0.00    +0.000 C 
ATOM     18  N   UNL     1       2.058   7.839  19.356  0.00  0.00    +0.000 NA
BRANCH  17  19
ATOM     19  C   UNL     1       0.650   9.380  20.767  0.00  0.00    +0.000 A 
ATOM     20  C   UNL     1       0.959   8.964  22.063  0.00  0.00    +0.000 A 
ATOM     21  C   UNL     1       0.264   9.489  23.151  0.00  0.00    +0.000 A 
ATOM     22  C   UNL     1      -0.723  10.429  22.911  0.00  0.00    +0.000 A 
ATOM     23  N   UNL     1      -1.082  10.832  21.674  0.00  0.00    +0.000 NA
ATOM     24  C   UNL     1      -0.393  10.293  20.634  0.00  0.00    +0.000 A 
ENDBRANCH  17  19
ENDBRANCH   1  18
TORSDOF 3
ENDMDL
MODEL 5
REMARK VINA RESULT:      -7.8      0.747      1.265
REMARK  Name = 
REMARK  4 active torsions:
REMARK  status: ('A' for Active; 'I' for Inactive)
REMARK    1  A    between atoms: C_1  and  C_2
REMARK    2  A    between atoms: C_2  and  C_19
REMARK    3  A    between atoms: N_3  and  N_4
REMARK    4  A    between atoms: C_11  and  C_13
REMARK                            x       y       z     vdW  Elec       q    Type
REMARK                         _______ _______ _______ _____ _____    ______ ____
ROOT
ATOM      1  N   UNL     1       4.843   3.145  18.444  0.00  0.00    +0.000 NA
ATOM      2  C   UNL     1       3.575   3.382  18.534  0.00  0.00    +0.000 C 
ATOM      3  S   UNL     1       2.541   2.179  17.781  0.00  0.00    +0.000 S 
ATOM      4  C   UNL     1       1.070   2.850  18.535  0.00  0.00    +0.000 C 
ATOM      5  C   UNL     1       1.490   4.102  19.251  0.00  0.00    +0.000 C 
ATOM      6  O   UNL     1       0.683   4.720  19.936  0.00  0.00    +0.000 OA
ATOM      7  N   UNL     1       2.829   4.401  19.093  0.00  0.00    +0.000 N 
ATOM      8  C   UNL     1       3.327   5.583  19.640  0.00  0.00    +0.000 C 
ATOM      9  O   UNL     1       4.193   5.633  20.508  0.00  0.00    +0.000 OA
ENDROOT
BRANCH   8  10
ATOM     10  C   UNL     1       2.605   6.874  19.328  0.00  0.00    +0.000 A 
ATOM     11  C   UNL     1       1.969   7.531  20.395  0.00  0.00    +0.000 A 
ATOM     12  C   UNL     1       1.222   8.691  20.184  0.00  0.00    +0.000 A 
ATOM     13  C   UNL     1       1.104   9.213  18.900  0.00  0.00    +0.000 A 
ATOM     14  C   UNL     1       1.749   8.589  17.832  0.00  0.00    +0.000 A 
ATOM     15  C   UNL     1       2.511   7.430  18.044  0.00  0.00    +0.000 A 
ENDBRANCH   8  10
BRANCH   1  18
ATOM     16  C   UNL     1       7.395   5.689  19.050  0.00  0.00    +0.000 C 
ATOM     17  C   UNL     1       6.382   4.822  18.322  0.00  0.00    +0.000 C 
ATOM     18  N   UNL     1       5.687   4.019  19.076  0.00  0.00    +0.000 NA
BRANCH  17  19
ATOM     19  C   UNL     1       6.295   5.001  16.837  0.00  0.00    +0.000 A 
ATOM     20  C   UNL     1       6.805   4.059  15.943  0.00  0.00    +0.000 A 
ATOM     21  C   UNL     1       6.556   4.183  14.578  0.00  0.00    +0.000 A 
ATOM     22  C   UNL     1       5.791   5.251  14.142  0.00  0.00    +0.000 A 
ATOM     23  N   UNL     1       5.311   6.207  14.964  0.00  0.00    +0.000 NA
ATOM     24  C   UNL     1       5.580   6.063  16.288  0.00  0.00    +0.000 A 
ENDBRANCH  17  19
ENDBRANCH   1  18
TORSDOF 3
ENDMDL
MODEL 6
REMARK VINA RESULT:      -7.5      0.842      1.143
REMARK  Name = 
REMARK  4 active torsions:
REMARK  status: ('A' for Active; 'I' for Inactive)
REMARK    1  A    between atoms: C_1  and  C_2
REMARK    2  A    between atoms: C_2  and  C_19
REMARK    3  A    between atoms: N_3  and  N_4
REMARK    4  A    between atoms: C_11  and  C_13
REMARK                            x       y       z     vdW  Elec       q    Type
REMARK                         _______ _______ _______ _____ _____    ______ ____
ROOT
ATOM      1  N   UNL     1       4.730   3.575  17.649  0.00  0.00    +0.000 NA
ATOM      2  C   UNL     1       3.524   3.673  18.103  0.00  0.00    +0.000 C 
ATOM      3  S   UNL     1       2.437   2.386  17.606  0.00  0.00    +0.000 S 
ATOM      4  C   UNL     1       1.185   2.878  18.778  0.00  0.00    +0.000 C 
ATOM      5  C   UNL     1       1.672   4.148  19.415  0.00  0.00    +0.000 C 
ATOM      6  O   UNL     1       1.038   4.660  20.332  0.00  0.00    +0.000 OA
ATOM      7  N   UNL     1       2.875   4.592  18.904  0.00  0.00    +0.000 N 
ATOM      8  C   UNL     1       3.394   5.806  19.353  0.00  0.00    +0.000 C 
ATOM      9  O   UNL     1       4.463   5.925  19.945  0.00  0.00    +0.000 OA
ENDROOT
BRANCH   8  10
ATOM     10  C   UNL     1       2.495   7.020  19.328  0.00  0.00    +0.000 A 
ATOM     11  C   UNL     1       2.284   7.642  18.085  0.00  0.00    +0.000 A 
ATOM     12  C   UNL     1       1.524   8.807  17.983  0.00  0.00    +0.000 A 
ATOM     13  C   UNL     1       0.960   9.367  19.125  0.00  0.00    +0.000 A 
ATOM     14  C   UNL     1       1.137   8.751  20.364  0.00  0.00    +0.000 A 
ATOM     15  C   UNL     1       1.889   7.572  20.467  0.00  0.00    +0.000 A 
ENDBRANCH   8  10
BRANCH   1  18
ATOM     16  C   UNL     1       7.480   5.981  17.676  0.00  0.00    +0.000 C 
ATOM     17  C   UNL     1       6.412   5.032  17.157  0.00  0.00    +0.000 C 
ATOM     18  N   UNL     1       5.633   4.516  18.065  0.00  0.00    +0.000 NA
BRANCH  17  19
ATOM     19  C   UNL     1       6.373   4.817  15.676  0.00  0.00    +0.000 A 
ATOM     20  C   UNL     1       7.460   5.115  14.853  0.00  0.00    +0.000 A 
ATOM     21  C   UNL     1       7.443   4.745  13.509  0.00  0.00    +0.000 A 
ATOM     22  C   UNL     1       6.333   4.075  13.024  0.00  0.00    +0.000 A 
ATOM     23  N   UNL     1       5.244   3.801  13.772  0.00  0.00    +0.000 NA
ATOM     24  C   UNL     1       5.288   4.184  15.075  0.00  0.00    +0.000 A 
ENDBRANCH  17  19
ENDBRANCH   1  18
TORSDOF 3
ENDMDL
MODEL 7
REMARK VINA RESULT:      -7.3      4.102      6.533
REMARK  Name = 
REMARK  4 active torsions:
REMARK  status: ('A' for Active; 'I' for Inactive)
REMARK    1  A    between atoms: C_1  and  C_2
REMARK    2  A    between atoms: C_2  and  C_19
REMARK    3  A    between atoms: N_3  and  N_4
REMARK    4  A    between atoms: C_11  and  C_13
REMARK                            x       y       z     vdW  Elec       q    Type
REMARK                         _______ _______ _______ _____ _____    ______ ____
ROOT
ATOM      1  N   UNL     1       1.507   8.216  20.773  0.00  0.00    +0.000 NA
ATOM      2  C   UNL     1       0.602   9.100  21.040  0.00  0.00    +0.000 C 
ATOM      3  S   UNL     1       0.077   9.139  22.715  0.00  0.00    +0.000 S 
ATOM      4  C   UNL     1      -0.798  10.678  22.491  0.00  0.00    +0.000 C 
ATOM      5  C   UNL     1      -0.723  11.003  21.026  0.00  0.00    +0.000 C 
ATOM      6  O   UNL     1      -1.171  12.064  20.607  0.00  0.00    +0.000 OA
ATOM      7  N   UNL     1      -0.071  10.038  20.284  0.00  0.00    +0.000 N 
ATOM      8  C   UNL     1      -0.007  10.181  18.898  0.00  0.00    +0.000 C 
ATOM      9  O   UNL     1       1.036  10.300  18.262  0.00  0.00    +0.000 OA
ENDROOT
BRANCH   8  10
ATOM     10  C   UNL     1      -1.292  10.442  18.146  0.00  0.00    +0.000 A 
ATOM     11  C   UNL     1      -2.330   9.506  18.297  0.00  0.00    +0.000 A 
ATOM     12  C   UNL     1      -3.524   9.634  17.587  0.00  0.00    +0.000 A 
ATOM     13  C   UNL     1      -3.698  10.704  16.715  0.00  0.00    +0.000 A 
ATOM     14  C   UNL     1      -2.690  11.657  16.571  0.00  0.00    +0.000 A 
ATOM     15  C   UNL     1      -1.494  11.538  17.295  0.00  0.00    +0.000 A 
ENDBRANCH   8  10
BRANCH   1  18
ATOM     16  C   UNL     1       3.145   7.114  17.698  0.00  0.00    +0.000 C 
ATOM     17  C   UNL     1       2.500   7.067  19.073  0.00  0.00    +0.000 C 
ATOM     18  N   UNL     1       2.000   8.194  19.495  0.00  0.00    +0.000 NA
BRANCH  17  19
ATOM     19  C   UNL     1       2.502   5.740  19.766  0.00  0.00    +0.000 A 
ATOM     20  C   UNL     1       1.371   5.235  20.409  0.00  0.00    +0.000 A 
ATOM     21  C   UNL     1       1.367   3.929  20.896  0.00  0.00    +0.000 A 
ATOM     22  C   UNL     1       2.501   3.156  20.718  0.00  0.00    +0.000 A 
ATOM     23  N   UNL     1       3.630   3.614  20.139  0.00  0.00    +0.000 NA
ATOM     24  C   UNL     1       3.606   4.894  19.685  0.00  0.00    +0.000 A 
ENDBRANCH  17  19
ENDBRANCH   1  18
TORSDOF 3
ENDMDL
MODEL 8
REMARK VINA RESULT:      -7.0      3.311      7.316
REMARK  Name = 
REMARK  4 active torsions:
REMARK  status: ('A' for Active; 'I' for Inactive)
REMARK    1  A    between atoms: C_1  and  C_2
REMARK    2  A    between atoms: C_2  and  C_19
REMARK    3  A    between atoms: N_3  and  N_4
REMARK    4  A    between atoms: C_11  and  C_13
REMARK                            x       y       z     vdW  Elec       q    Type
REMARK                         _______ _______ _______ _____ _____    ______ ____
ROOT
ATOM      1  N   UNL     1       1.846   8.832  18.812  0.00  0.00    +0.000 NA
ATOM      2  C   UNL     1       2.619   7.838  18.516  0.00  0.00    +0.000 C 
ATOM      3  S   UNL     1       3.626   8.081  17.097  0.00  0.00    +0.000 S 
ATOM      4  C   UNL     1       4.616   6.639  17.451  0.00  0.00    +0.000 C 
ATOM      5  C   UNL     1       3.981   5.966  18.635  0.00  0.00    +0.000 C 
ATOM      6  O   UNL     1       4.516   4.989  19.148  0.00  0.00    +0.000 OA
ATOM      7  N   UNL     1       2.830   6.592  19.070  0.00  0.00    +0.000 N 
ATOM      8  C   UNL     1       2.100   6.018  20.110  0.00  0.00    +0.000 C 
ATOM      9  O   UNL     1       1.901   6.555  21.195  0.00  0.00    +0.000 OA
ENDROOT
BRANCH   8  10
ATOM     10  C   UNL     1       1.725   4.557  19.998  0.00  0.00    +0.000 A 
ATOM     11  C   UNL     1       1.874   3.763  21.148  0.00  0.00    +0.000 A 
ATOM     12  C   UNL     1       1.616   2.392  21.113  0.00  0.00    +0.000 A 
ATOM     13  C   UNL     1       1.202   1.796  19.927  0.00  0.00    +0.000 A 
ATOM     14  C   UNL     1       1.024   2.572  18.782  0.00  0.00    +0.000 A 
ATOM     15  C   UNL     1       1.269   3.953  18.817  0.00  0.00    +0.000 A 
ENDBRANCH   8  10
BRANCH   1  18
ATOM     16  C   UNL     1      -0.346   9.633  21.624  0.00  0.00    +0.000 C 
ATOM     17  C   UNL     1       0.380   9.753  20.294  0.00  0.00    +0.000 C 
ATOM     18  N   UNL     1       1.092   8.718  19.950  0.00  0.00    +0.000 NA
BRANCH  17  19
ATOM     19  C   UNL     1       0.181  11.031  19.538  0.00  0.00    +0.000 A 
ATOM     20  C   UNL     1      -0.908  11.230  18.689  0.00  0.00    +0.000 A 
ATOM     21  C   UNL     1      -1.144  12.487  18.136  0.00  0.00    +0.000 A 
ATOM     22  C   UNL     1      -0.282  13.521  18.457  0.00  0.00    +0.000 A 
ATOM     23  N   UNL     1       0.805  13.366  19.241  0.00  0.00    +0.000 NA
ATOM     24  C   UNL     1       1.014  12.126  19.755  0.00  0.00    +0.000 A 
ENDBRANCH  17  19
ENDBRANCH   1  18
TORSDOF 3
ENDMDL
