MODEL 1
REMARK VINA RESULT:      -7.7      0.000      0.000
REMARK  Name = 
REMARK  4 active torsions:
REMARK  status: ('A' for Active; 'I' for Inactive)
REMARK    1  A    between atoms: C_1  and  O_2
REMARK    2  A    between atoms: O_2  and  C_3
REMARK    3  A    between atoms: C_6  and  C_7
REMARK    4  A    between atoms: C_8  and  C_9
REMARK                            x       y       z     vdW  Elec       q    Type
REMARK                         _______ _______ _______ _____ _____    ______ ____
ROOT
ATOM      1  C   UNL     1       4.907   4.612  16.597  0.00  0.00    +0.000 A 
ATOM      2  C   UNL     1       5.187   5.978  16.574  0.00  0.00    +0.000 A 
ATOM      3  C   UNL     1       4.357   6.876  17.239  0.00  0.00    +0.000 A 
ATOM      4  C   UNL     1       3.212   6.438  17.920  0.00  0.00    +0.000 A 
ATOM      5  C   UNL     1       2.890   5.046  17.931  0.00  0.00    +0.000 A 
ATOM      6  C   UNL     1       1.742   4.515  18.576  0.00  0.00    +0.000 A 
ATOM      7  C   UNL     1       1.455   3.147  18.583  0.00  0.00    +0.000 A 
ATOM      8  C   UNL     1       2.304   2.266  17.940  0.00  0.00    +0.000 A 
ATOM      9  C   UNL     1       3.435   2.753  17.286  0.00  0.00    +0.000 A 
ATOM     10  C   UNL     1       3.753   4.132  17.262  0.00  0.00    +0.000 A 
ENDROOT
BRANCH   1  12
ATOM     11  C   UNL     1       6.116   4.020  14.637  0.00  0.00    +0.000 C 
ATOM     12  O   UNL     1       5.694   3.683  15.954  0.00  0.00    +0.000 OA
ENDBRANCH   1  12
BRANCH   4  13
ATOM     13  C   UNL     1       2.420   7.429  18.686  0.00  0.00    +0.000 C 
ATOM     14  C   UNL     1       1.962   8.603  18.216  0.00  0.00    +0.000 C 
BRANCH  14  15
ATOM     15  C   UNL     1       1.189   9.560  19.022  0.00  0.00    +0.000 A 
ATOM     16  C   UNL     1       0.723  10.775  18.510  0.00  0.00    +0.000 A 
ATOM     17  C   UNL     1      -0.001  11.617  19.337  0.00  0.00    +0.000 A 
ATOM     18  N   UNL     1      -0.306  11.328  20.616  0.00  0.00    +0.000 NA
ATOM     19  C   UNL     1       0.129  10.141  21.089  0.00  0.00    +0.000 A 
ATOM     20  C   UNL     1       0.863   9.234  20.340  0.00  0.00    +0.000 A 
ENDBRANCH  14  15
ENDBRANCH   4  13
TORSDOF 3
ENDMDL
MODEL 2
REMARK VINA RESULT:      -7.7      1.365      1.811
REMARK  Name = 
REMARK  4 active torsions:
REMARK  status: ('A' for Active; 'I' for Inactive)
REMARK    1  A    between atoms: C_1  and  O_2
REMARK    2  A    between atoms: O_2  and  C_3
REMARK    3  A    between atoms: C_6  and  C_7
REMARK    4  A    between atoms: C_8  and  C_9
REMARK                            x       y       z     vdW  Elec       q    Type
REMARK                         _______ _______ _______ _____ _____    ______ ____
ROOT
ATOM      1  C   UNL     1       3.746   4.755  17.494  0.00  0.00    +0.000 A 
ATOM      2  C   UNL     1       3.957   6.131  17.430  0.00  0.00    +0.000 A 
ATOM      3  C   UNL     1       3.313   6.982  18.323  0.00  0.00    +0.000 A 
ATOM      4  C   UNL     1       2.420   6.485  19.283  0.00  0.00    +0.000 A 
ATOM      5  C   UNL     1       2.166   5.080  19.346  0.00  0.00    +0.000 A 
ATOM      6  C   UNL     1       1.263   4.490  20.271  0.00  0.00    +0.000 A 
ATOM      7  C   UNL     1       1.041   3.112  20.320  0.00  0.00    +0.000 A 
ATOM      8  C   UNL     1       1.709   2.278  19.443  0.00  0.00    +0.000 A 
ATOM      9  C   UNL     1       2.594   2.823  18.514  0.00  0.00    +0.000 A 
ATOM     10  C   UNL     1       2.841   4.215  18.440  0.00  0.00    +0.000 A 
ENDROOT
BRANCH   1  12
ATOM     11  C   UNL     1       5.591   4.296  16.066  0.00  0.00    +0.000 C 
ATOM     12  O   UNL     1       4.356   3.870  16.633  0.00  0.00    +0.000 OA
ENDBRANCH   1  12
BRANCH   4  13
ATOM     13  C   UNL     1       1.836   7.429  20.265  0.00  0.00    +0.000 C 
ATOM     14  C   UNL     1       1.178   8.565  19.971  0.00  0.00    +0.000 C 
BRANCH  14  15
ATOM     15  C   UNL     1       0.627   9.476  20.985  0.00  0.00    +0.000 A 
ATOM     16  C   UNL     1       0.440  10.841  20.750  0.00  0.00    +0.000 A 
ATOM     17  C   UNL     1      -0.088  11.628  21.760  0.00  0.00    +0.000 A 
ATOM     18  N   UNL     1      -0.456  11.153  22.964  0.00  0.00    +0.000 NA
ATOM     19  C   UNL     1      -0.293   9.828  23.167  0.00  0.00    +0.000 A 
ATOM     20  C   UNL     1       0.230   8.961  22.221  0.00  0.00    +0.000 A 
ENDBRANCH  14  15
ENDBRANCH   4  13
TORSDOF 3
ENDMDL
MODEL 3
REMARK VINA RESULT:      -7.7      1.401      2.142
REMARK  Name = 
REMARK  4 active torsions:
REMARK  status: ('A' for Active; 'I' for Inactive)
REMARK    1  A    between atoms: C_1  and  O_2
REMARK    2  A    between atoms: O_2  and  C_3
REMARK    3  A    between atoms: C_6  and  C_7
REMARK    4  A    between atoms: C_8  and  C_9
REMARK                            x       y       z     vdW  Elec       q    Type
REMARK                         _______ _______ _______ _____ _____    ______ ____
ROOT
ATOM      1  C   UNL     1       3.734   4.748  17.602  0.00  0.00    +0.000 A 
ATOM      2  C   UNL     1       3.916   6.128  17.524  0.00  0.00    +0.000 A 
ATOM      3  C   UNL     1       3.252   6.974  18.407  0.00  0.00    +0.000 A 
ATOM      4  C   UNL     1       2.368   6.468  19.371  0.00  0.00    +0.000 A 
ATOM      5  C   UNL     1       2.143   5.059  19.448  0.00  0.00    +0.000 A 
ATOM      6  C   UNL     1       1.252   4.460  20.377  0.00  0.00    +0.000 A 
ATOM      7  C   UNL     1       1.059   3.077  20.441  0.00  0.00    +0.000 A 
ATOM      8  C   UNL     1       1.747   2.249  19.573  0.00  0.00    +0.000 A 
ATOM      9  C   UNL     1       2.622   2.803  18.641  0.00  0.00    +0.000 A 
ATOM     10  C   UNL     1       2.839   4.199  18.552  0.00  0.00    +0.000 A 
ENDROOT
BRANCH   1  12
ATOM     11  C   UNL     1       5.655   4.255  16.291  0.00  0.00    +0.000 C 
ATOM     12  O   UNL     1       4.364   3.868  16.751  0.00  0.00    +0.000 OA
ENDBRANCH   1  12
BRANCH   4  13
ATOM     13  C   UNL     1       1.761   7.410  20.342  0.00  0.00    +0.000 C 
ATOM     14  C   UNL     1       1.149   8.568  20.038  0.00  0.00    +0.000 C 
BRANCH  14  15
ATOM     15  C   UNL     1       0.573   9.476  21.043  0.00  0.00    +0.000 A 
ATOM     16  C   UNL     1       0.123   9.032  22.289  0.00  0.00    +0.000 A 
ATOM     17  C   UNL     1      -0.403   9.955  23.178  0.00  0.00    +0.000 A 
ATOM     18  N   UNL     1      -0.493  11.274  22.921  0.00  0.00    +0.000 NA
ATOM     19  C   UNL     1      -0.031  11.690  21.723  0.00  0.00    +0.000 A 
ATOM     20  C   UNL     1       0.508  10.844  20.767  0.00  0.00    +0.000 A 
ENDBRANCH  14  15
ENDBRANCH   4  13
TORSDOF 3
ENDMDL
MODEL 4
REMARK VINA RESULT:      -7.7      0.724      1.088
REMARK  Name = 
REMARK  4 active torsions:
REMARK  status: ('A' for Active; 'I' for Inactive)
REMARK    1  A    between atoms: C_1  and  O_2
REMARK    2  A    between atoms: O_2  and  C_3
REMARK    3  A    between atoms: C_6  and  C_7
REMARK    4  A    between atoms: C_8  and  C_9
REMARK                            x       y       z     vdW  Elec       q    Type
REMARK                         _______ _______ _______ _____ _____    ______ ____
ROOT
ATOM      1  C   UNL     1       5.131   4.884  16.766  0.00  0.00    +0.000 A 
ATOM      2  C   UNL     1       5.343   6.261  16.744  0.00  0.00    +0.000 A 
ATOM      3  C   UNL     1       4.389   7.126  17.272  0.00  0.00    +0.000 A 
ATOM      4  C   UNL     1       3.187   6.641  17.808  0.00  0.00    +0.000 A 
ATOM      5  C   UNL     1       2.937   5.234  17.812  0.00  0.00    +0.000 A 
ATOM      6  C   UNL     1       1.741   4.655  18.315  0.00  0.00    +0.000 A 
ATOM      7  C   UNL     1       1.525   3.275  18.319  0.00  0.00    +0.000 A 
ATOM      8  C   UNL     1       2.495   2.428  17.815  0.00  0.00    +0.000 A 
ATOM      9  C   UNL     1       3.676   2.962  17.304  0.00  0.00    +0.000 A 
ATOM     10  C   UNL     1       3.925   4.355  17.286  0.00  0.00    +0.000 A 
ENDROOT
BRANCH   1  12
ATOM     11  C   UNL     1       6.326   4.100  14.866  0.00  0.00    +0.000 C 
ATOM     12  O   UNL     1       6.042   3.985  16.256  0.00  0.00    +0.000 OA
ENDBRANCH   1  12
BRANCH   4  13
ATOM     13  C   UNL     1       2.251   7.603  18.437  0.00  0.00    +0.000 C 
ATOM     14  C   UNL     1       1.727   8.692  17.847  0.00  0.00    +0.000 C 
BRANCH  14  15
ATOM     15  C   UNL     1       0.810   9.625  18.521  0.00  0.00    +0.000 A 
ATOM     16  C   UNL     1       1.100  10.204  19.759  0.00  0.00    +0.000 A 
ATOM     17  C   UNL     1       0.182  11.074  20.322  0.00  0.00    +0.000 A 
ATOM     18  N   UNL     1      -0.980  11.418  19.736  0.00  0.00    +0.000 NA
ATOM     19  C   UNL     1      -1.234  10.870  18.529  0.00  0.00    +0.000 A 
ATOM     20  C   UNL     1      -0.381   9.986  17.887  0.00  0.00    +0.000 A 
ENDBRANCH  14  15
ENDBRANCH   4  13
TORSDOF 3
ENDMDL
MODEL 5
REMARK VINA RESULT:      -7.5      3.919      7.356
REMARK  Name = 
REMARK  4 active torsions:
REMARK  status: ('A' for Active; 'I' for Inactive)
REMARK    1  A    between atoms: C_1  and  O_2
REMARK    2  A    between atoms: O_2  and  C_3
REMARK    3  A    between atoms: C_6  and  C_7
REMARK    4  A    between atoms: C_8  and  C_9
REMARK                            x       y       z     vdW  Elec       q    Type
REMARK                         _______ _______ _______ _____ _____    ______ ____
ROOT
ATOM      1  C   UNL     1       2.962   3.637  20.160  0.00  0.00    +0.000 A 
ATOM      2  C   UNL     1       3.488   2.565  19.440  0.00  0.00    +0.000 A 
ATOM      3  C   UNL     1       3.964   2.755  18.147  0.00  0.00    +0.000 A 
ATOM      4  C   UNL     1       3.901   4.011  17.527  0.00  0.00    +0.000 A 
ATOM      5  C   UNL     1       3.337   5.117  18.235  0.00  0.00    +0.000 A 
ATOM      6  C   UNL     1       3.214   6.419  17.681  0.00  0.00    +0.000 A 
ATOM      7  C   UNL     1       2.670   7.487  18.399  0.00  0.00    +0.000 A 
ATOM      8  C   UNL     1       2.226   7.287  19.693  0.00  0.00    +0.000 A 
ATOM      9  C   UNL     1       2.322   6.020  20.265  0.00  0.00    +0.000 A 
ATOM     10  C   UNL     1       2.868   4.919  19.564  0.00  0.00    +0.000 A 
ENDROOT
BRANCH   1  12
ATOM     11  C   UNL     1       1.375   2.616  21.606  0.00  0.00    +0.000 C 
ATOM     12  O   UNL     1       2.476   3.503  21.441  0.00  0.00    +0.000 OA
ENDBRANCH   1  12
BRANCH   4  13
ATOM     13  C   UNL     1       4.507   4.171  16.183  0.00  0.00    +0.000 C 
ATOM     14  C   UNL     1       5.815   4.067  15.893  0.00  0.00    +0.000 C 
BRANCH  14  15
ATOM     15  C   UNL     1       6.369   4.247  14.541  0.00  0.00    +0.000 A 
ATOM     16  C   UNL     1       7.395   5.154  14.262  0.00  0.00    +0.000 A 
ATOM     17  C   UNL     1       7.860   5.258  12.962  0.00  0.00    +0.000 A 
ATOM     18  N   UNL     1       7.394   4.518  11.938  0.00  0.00    +0.000 NA
ATOM     19  C   UNL     1       6.421   3.629  12.229  0.00  0.00    +0.000 A 
ATOM     20  C   UNL     1       5.888   3.454  13.497  0.00  0.00    +0.000 A 
ENDBRANCH  14  15
ENDBRANCH   4  13
TORSDOF 3
ENDMDL
MODEL 6
REMARK VINA RESULT:      -7.5      3.887      7.376
REMARK  Name = 
REMARK  4 active torsions:
REMARK  status: ('A' for Active; 'I' for Inactive)
REMARK    1  A    between atoms: C_1  and  O_2
REMARK    2  A    between atoms: O_2  and  C_3
REMARK    3  A    between atoms: C_6  and  C_7
REMARK    4  A    between atoms: C_8  and  C_9
REMARK                            x       y       z     vdW  Elec       q    Type
REMARK                         _______ _______ _______ _____ _____    ______ ____
ROOT
ATOM      1  C   UNL     1       2.884   3.787  20.163  0.00  0.00    +0.000 A 
ATOM      2  C   UNL     1       3.403   2.696  19.468  0.00  0.00    +0.000 A 
ATOM      3  C   UNL     1       3.883   2.854  18.171  0.00  0.00    +0.000 A 
ATOM      4  C   UNL     1       3.832   4.098  17.526  0.00  0.00    +0.000 A 
ATOM      5  C   UNL     1       3.276   5.223  18.210  0.00  0.00    +0.000 A 
ATOM      6  C   UNL     1       3.165   6.514  17.628  0.00  0.00    +0.000 A 
ATOM      7  C   UNL     1       2.629   7.602  18.322  0.00  0.00    +0.000 A 
ATOM      8  C   UNL     1       2.181   7.432  19.619  0.00  0.00    +0.000 A 
ATOM      9  C   UNL     1       2.264   6.177  20.218  0.00  0.00    +0.000 A 
ATOM     10  C   UNL     1       2.803   5.056  19.541  0.00  0.00    +0.000 A 
ENDROOT
BRANCH   1  12
ATOM     11  C   UNL     1       1.388   2.700  21.657  0.00  0.00    +0.000 C 
ATOM     12  O   UNL     1       2.395   3.684  21.446  0.00  0.00    +0.000 OA
ENDBRANCH   1  12
BRANCH   4  13
ATOM     13  C   UNL     1       4.442   4.225  16.181  0.00  0.00    +0.000 C 
ATOM     14  C   UNL     1       5.729   3.984  15.874  0.00  0.00    +0.000 C 
BRANCH  14  15
ATOM     15  C   UNL     1       6.289   4.137  14.522  0.00  0.00    +0.000 A 
ATOM     16  C   UNL     1       5.823   3.406  13.426  0.00  0.00    +0.000 A 
ATOM     17  C   UNL     1       6.405   3.614  12.187  0.00  0.00    +0.000 A 
ATOM     18  N   UNL     1       7.392   4.501  11.963  0.00  0.00    +0.000 NA
ATOM     19  C   UNL     1       7.815   5.217  13.026  0.00  0.00    +0.000 A 
ATOM     20  C   UNL     1       7.299   5.078  14.305  0.00  0.00    +0.000 A 
ENDBRANCH  14  15
ENDBRANCH   4  13
TORSDOF 3
ENDMDL
MODEL 7
REMARK VINA RESULT:      -7.4      3.875      7.019
REMARK  Name = 
REMARK  4 active torsions:
REMARK  status: ('A' for Active; 'I' for Inactive)
REMARK    1  A    between atoms: C_1  and  O_2
REMARK    2  A    between atoms: O_2  and  C_3
REMARK    3  A    between atoms: C_6  and  C_7
REMARK    4  A    between atoms: C_8  and  C_9
REMARK                            x       y       z     vdW  Elec       q    Type
REMARK                         _______ _______ _______ _____ _____    ______ ____
ROOT
ATOM      1  C   UNL     1       2.311   5.999  19.738  0.00  0.00    +0.000 A 
ATOM      2  C   UNL     1       3.271   6.784  19.101  0.00  0.00    +0.000 A 
ATOM      3  C   UNL     1       3.938   6.303  17.978  0.00  0.00    +0.000 A 
ATOM      4  C   UNL     1       3.684   5.018  17.478  0.00  0.00    +0.000 A 
ATOM      5  C   UNL     1       2.725   4.185  18.134  0.00  0.00    +0.000 A 
ATOM      6  C   UNL     1       2.418   2.865  17.711  0.00  0.00    +0.000 A 
ATOM      7  C   UNL     1       1.467   2.075  18.362  0.00  0.00    +0.000 A 
ATOM      8  C   UNL     1       0.796   2.578  19.461  0.00  0.00    +0.000 A 
ATOM      9  C   UNL     1       1.079   3.866  19.910  0.00  0.00    +0.000 A 
ATOM     10  C   UNL     1       2.036   4.691  19.272  0.00  0.00    +0.000 A 
ENDROOT
BRANCH   1  12
ATOM     11  C   UNL     1       1.339   7.819  20.919  0.00  0.00    +0.000 C 
ATOM     12  O   UNL     1       1.625   6.426  20.853  0.00  0.00    +0.000 OA
ENDBRANCH   1  12
BRANCH   4  13
ATOM     13  C   UNL     1       4.357   4.597  16.226  0.00  0.00    +0.000 C 
ATOM     14  C   UNL     1       5.394   5.222  15.642  0.00  0.00    +0.000 C 
BRANCH  14  15
ATOM     15  C   UNL     1       6.020   4.771  14.389  0.00  0.00    +0.000 A 
ATOM     16  C   UNL     1       7.263   5.241  13.956  0.00  0.00    +0.000 A 
ATOM     17  C   UNL     1       7.782   4.760  12.765  0.00  0.00    +0.000 A 
ATOM     18  N   UNL     1       7.166   3.842  11.997  0.00  0.00    +0.000 NA
ATOM     19  C   UNL     1       5.979   3.379  12.442  0.00  0.00    +0.000 A 
ATOM     20  C   UNL     1       5.376   3.802  13.617  0.00  0.00    +0.000 A 
ENDBRANCH  14  15
ENDBRANCH   4  13
TORSDOF 3
ENDMDL
MODEL 8
REMARK VINA RESULT:      -7.3      3.836      7.024
REMARK  Name = 
REMARK  4 active torsions:
REMARK  status: ('A' for Active; 'I' for Inactive)
REMARK    1  A    between atoms: C_1  and  O_2
REMARK    2  A    between atoms: O_2  and  C_3
REMARK    3  A    between atoms: C_6  and  C_7
REMARK    4  A    between atoms: C_8  and  C_9
REMARK                            x       y       z     vdW  Elec       q    Type
REMARK                         _______ _______ _______ _____ _____    ______ ____
ROOT
ATOM      1  C   UNL     1       2.229   6.209  19.720  0.00  0.00    +0.000 A 
ATOM      2  C   UNL     1       3.127   6.995  19.000  0.00  0.00    +0.000 A 
ATOM      3  C   UNL     1       3.809   6.461  17.910  0.00  0.00    +0.000 A 
ATOM      4  C   UNL     1       3.635   5.123  17.530  0.00  0.00    +0.000 A 
ATOM      5  C   UNL     1       2.742   4.291  18.274  0.00  0.00    +0.000 A 
ATOM      6  C   UNL     1       2.518   2.921  17.975  0.00  0.00    +0.000 A 
ATOM      7  C   UNL     1       1.631   2.132  18.710  0.00  0.00    +0.000 A 
ATOM      8  C   UNL     1       0.942   2.686  19.774  0.00  0.00    +0.000 A 
ATOM      9  C   UNL     1       1.144   4.024  20.103  0.00  0.00    +0.000 A 
ATOM     10  C   UNL     1       2.036   4.850  19.376  0.00  0.00    +0.000 A 
ENDROOT
BRANCH   1  12
ATOM     11  C   UNL     1       1.479   8.104  20.946  0.00  0.00    +0.000 C 
ATOM     12  O   UNL     1       1.532   6.688  20.807  0.00  0.00    +0.000 OA
ENDBRANCH   1  12
BRANCH   4  13
ATOM     13  C   UNL     1       4.318   4.638  16.307  0.00  0.00    +0.000 C 
ATOM     14  C   UNL     1       5.291   5.283  15.641  0.00  0.00    +0.000 C 
BRANCH  14  15
ATOM     15  C   UNL     1       5.930   4.763  14.421  0.00  0.00    +0.000 A 
ATOM     16  C   UNL     1       5.307   3.838  13.580  0.00  0.00    +0.000 A 
ATOM     17  C   UNL     1       5.978   3.402  12.450  0.00  0.00    +0.000 A 
ATOM     18  N   UNL     1       7.203   3.834  12.094  0.00  0.00    +0.000 NA
ATOM     19  C   UNL     1       7.781   4.746  12.904  0.00  0.00    +0.000 A 
ATOM     20  C   UNL     1       7.192   5.239  14.058  0.00  0.00    +0.000 A 
ENDBRANCH  14  15
ENDBRANCH   4  13
TORSDOF 3
ENDMDL
MODEL 9
REMARK VINA RESULT:      -7.3      1.730      3.405
REMARK  Name = 
REMARK  4 active torsions:
REMARK  status: ('A' for Active; 'I' for Inactive)
REMARK    1  A    between atoms: C_1  and  O_2
REMARK    2  A    between atoms: O_2  and  C_3
REMARK    3  A    between atoms: C_6  and  C_7
REMARK    4  A    between atoms: C_8  and  C_9
REMARK                            x       y       z     vdW  Elec       q    Type
REMARK                         _______ _______ _______ _____ _____    ______ ____
ROOT
ATOM      1  C   UNL     1       3.555   3.780  19.272  0.00  0.00    +0.000 A 
ATOM      2  C   UNL     1       2.751   3.934  20.400  0.00  0.00    +0.000 A 
ATOM      3  C   UNL     1       2.178   5.169  20.689  0.00  0.00    +0.000 A 
ATOM      4  C   UNL     1       2.414   6.287  19.876  0.00  0.00    +0.000 A 
ATOM      5  C   UNL     1       3.260   6.158  18.731  0.00  0.00    +0.000 A 
ATOM      6  C   UNL     1       3.572   7.239  17.865  0.00  0.00    +0.000 A 
ATOM      7  C   UNL     1       4.392   7.084  16.744  0.00  0.00    +0.000 A 
ATOM      8  C   UNL     1       4.932   5.844  16.457  0.00  0.00    +0.000 A 
ATOM      9  C   UNL     1       4.657   4.763  17.292  0.00  0.00    +0.000 A 
ATOM     10  C   UNL     1       3.829   4.888  18.434  0.00  0.00    +0.000 A 
ENDROOT
BRANCH   1  12
ATOM     11  C   UNL     1       3.282   1.571  18.435  0.00  0.00    +0.000 C 
ATOM     12  O   UNL     1       4.148   2.581  18.942  0.00  0.00    +0.000 OA
ENDBRANCH   1  12
BRANCH   4  13
ATOM     13  C   UNL     1       1.703   7.551  20.183  0.00  0.00    +0.000 C 
ATOM     14  C   UNL     1       0.999   7.807  21.300  0.00  0.00    +0.000 C 
BRANCH  14  15
ATOM     15  C   UNL     1       0.299   9.076  21.552  0.00  0.00    +0.000 A 
ATOM     16  C   UNL     1      -0.217   9.416  22.806  0.00  0.00    +0.000 A 
ATOM     17  C   UNL     1      -0.859  10.634  22.957  0.00  0.00    +0.000 A 
ATOM     18  N   UNL     1      -1.005  11.531  21.965  0.00  0.00    +0.000 NA
ATOM     19  C   UNL     1      -0.479  11.199  20.767  0.00  0.00    +0.000 A 
ATOM     20  C   UNL     1       0.178  10.004  20.516  0.00  0.00    +0.000 A 
ENDBRANCH  14  15
ENDBRANCH   4  13
TORSDOF 3
ENDMDL
