MODEL 1
REMARK VINA RESULT:      -8.7      0.000      0.000
REMARK  Name = 
REMARK  7 active torsions:
REMARK  status: ('A' for Active; 'I' for Inactive)
REMARK    1  A    between atoms: C_2  and  C_3
REMARK    2  A    between atoms: C_2  and  O_11
REMARK    3  A    between atoms: C_4  and  C_5
REMARK    4  A    between atoms: O_11  and  C_12
REMARK    5  A    between atoms: C_15  and  C_16
REMARK    6  A    between atoms: C_16  and  S_17
REMARK    7  A    between atoms: S_17  and  C_18
REMARK                            x       y       z     vdW  Elec       q    Type
REMARK                         _______ _______ _______ _____ _____    ______ ____
ROOT
ATOM      1  C   UNL     1       6.172   6.508  16.800  0.00  0.00    +0.000 A 
ATOM      2  C   UNL     1       4.939   6.626  17.309  0.00  0.00    +0.000 A 
ATOM      3  O   UNL     1       4.020   5.605  17.405  0.00  0.00    +0.000 OA
ATOM      4  C   UNL     1       4.328   4.373  16.832  0.00  0.00    +0.000 A 
ATOM      5  C   UNL     1       5.546   4.106  16.333  0.00  0.00    +0.000 A 
ATOM      6  C   UNL     1       6.589   5.155  16.350  0.00  0.00    +0.000 A 
ATOM      7  O   UNL     1       7.736   4.906  15.997  0.00  0.00    +0.000 OA
ENDROOT
BRANCH   1   8
ATOM      8  O   UNL     1       7.114   7.551  16.737  0.00  0.00    +0.000 OA
BRANCH   8  10
ATOM      9  O   UNL     1       8.041   6.872  18.751  0.00  0.00    +0.000 OA
ATOM     10  C   UNL     1       7.861   7.702  17.869  0.00  0.00    +0.000 C 
BRANCH  10  11
ATOM     11  C   UNL     1       8.470   9.052  17.959  0.00  0.00    +0.000 C 
ATOM     12  C   UNL     1       8.957   9.619  19.075  0.00  0.00    +0.000 C 
BRANCH  12  13
ATOM     13  C   UNL     1       9.569  10.961  19.125  0.00  0.00    +0.000 A 
ATOM     14  C   UNL     1      10.203  11.373  20.305  0.00  0.00    +0.000 A 
ATOM     15  C   UNL     1      10.825  12.624  20.388  0.00  0.00    +0.000 A 
ATOM     16  C   UNL     1      10.832  13.474  19.286  0.00  0.00    +0.000 A 
ATOM     17  C   UNL     1      10.220  13.071  18.100  0.00  0.00    +0.000 A 
ATOM     18  C   UNL     1       9.600  11.822  18.017  0.00  0.00    +0.000 A 
ENDBRANCH  12  13
ENDBRANCH  10  11
ENDBRANCH   8  10
ENDBRANCH   1   8
BRANCH   4  19
ATOM     19  C   UNL     1       3.192   3.370  16.821  0.00  0.00    +0.000 C 
BRANCH  19  20
ATOM     20  S   UNL     1       3.627   1.963  17.891  0.00  0.00    +0.000 S 
BRANCH  20  21
ATOM     21  C   UNL     1       2.671   2.320  19.341  0.00  0.00    +0.000 A 
ATOM     22  N   UNL     1       3.363   2.415  20.492  0.00  0.00    +0.000 NA
ATOM     23  C   UNL     1       2.691   2.858  21.569  0.00  0.00    +0.000 A 
ATOM     24  C   UNL     1       1.365   3.211  21.539  0.00  0.00    +0.000 A 
ATOM     25  C   UNL     1       0.743   3.056  20.321  0.00  0.00    +0.000 A 
ATOM     26  N   UNL     1       1.366   2.610  19.210  0.00  0.00    +0.000 NA
ENDBRANCH  20  21
ENDBRANCH  19  20
ENDBRANCH   4  19
TORSDOF 7
ENDMDL
MODEL 2
REMARK VINA RESULT:      -8.4      0.841      1.056
REMARK  Name = 
REMARK  7 active torsions:
REMARK  status: ('A' for Active; 'I' for Inactive)
REMARK    1  A    between atoms: C_2  and  C_3
REMARK    2  A    between atoms: C_2  and  O_11
REMARK    3  A    between atoms: C_4  and  C_5
REMARK    4  A    between atoms: O_11  and  C_12
REMARK    5  A    between atoms: C_15  and  C_16
REMARK    6  A    between atoms: C_16  and  S_17
REMARK    7  A    between atoms: S_17  and  C_18
REMARK                            x       y       z     vdW  Elec       q    Type
REMARK                         _______ _______ _______ _____ _____    ______ ____
ROOT
ATOM      1  C   UNL     1       6.559   5.702  18.103  0.00  0.00    +0.000 A 
ATOM      2  C   UNL     1       5.328   5.773  18.630  0.00  0.00    +0.000 A 
ATOM      3  O   UNL     1       4.282   4.937  18.311  0.00  0.00    +0.000 OA
ATOM      4  C   UNL     1       4.454   4.011  17.285  0.00  0.00    +0.000 A 
ATOM      5  C   UNL     1       5.649   3.804  16.709  0.00  0.00    +0.000 A 
ATOM      6  C   UNL     1       6.817   4.603  17.139  0.00  0.00    +0.000 A 
ATOM      7  O   UNL     1       7.937   4.363  16.703  0.00  0.00    +0.000 OA
ENDROOT
BRANCH   1   8
ATOM      8  O   UNL     1       7.629   6.542  18.459  0.00  0.00    +0.000 OA
BRANCH   8  10
ATOM      9  O   UNL     1       7.005   8.058  16.819  0.00  0.00    +0.000 OA
ATOM     10  C   UNL     1       7.629   7.752  17.828  0.00  0.00    +0.000 C 
BRANCH  10  11
ATOM     11  C   UNL     1       8.517   8.732  18.498  0.00  0.00    +0.000 C 
ATOM     12  C   UNL     1       8.847   9.945  18.023  0.00  0.00    +0.000 C 
BRANCH  12  13
ATOM     13  C   UNL     1       9.725  10.901  18.727  0.00  0.00    +0.000 A 
ATOM     14  C   UNL     1       9.591  11.049  20.114  0.00  0.00    +0.000 A 
ATOM     15  C   UNL     1      10.422  11.921  20.826  0.00  0.00    +0.000 A 
ATOM     16  C   UNL     1      11.407  12.646  20.163  0.00  0.00    +0.000 A 
ATOM     17  C   UNL     1      11.563  12.497  18.785  0.00  0.00    +0.000 A 
ATOM     18  C   UNL     1      10.733  11.626  18.074  0.00  0.00    +0.000 A 
ENDBRANCH  12  13
ENDBRANCH  10  11
ENDBRANCH   8  10
ENDBRANCH   1   8
BRANCH   4  19
ATOM     19  C   UNL     1       3.200   3.264  16.880  0.00  0.00    +0.000 C 
BRANCH  19  20
ATOM     20  S   UNL     1       3.112   1.697  17.804  0.00  0.00    +0.000 S 
BRANCH  20  21
ATOM     21  C   UNL     1       2.384   2.233  19.329  0.00  0.00    +0.000 A 
ATOM     22  N   UNL     1       3.207   2.258  20.394  0.00  0.00    +0.000 NA
ATOM     23  C   UNL     1       2.729   2.826  21.516  0.00  0.00    +0.000 A 
ATOM     24  C   UNL     1       1.473   3.371  21.611  0.00  0.00    +0.000 A 
ATOM     25  C   UNL     1       0.704   3.274  20.474  0.00  0.00    +0.000 A 
ATOM     26  N   UNL     1       1.128   2.710  19.324  0.00  0.00    +0.000 NA
ENDBRANCH  20  21
ENDBRANCH  19  20
ENDBRANCH   4  19
TORSDOF 7
ENDMDL
MODEL 3
REMARK VINA RESULT:      -8.4      5.481      7.798
REMARK  Name = 
REMARK  7 active torsions:
REMARK  status: ('A' for Active; 'I' for Inactive)
REMARK    1  A    between atoms: C_2  and  C_3
REMARK    2  A    between atoms: C_2  and  O_11
REMARK    3  A    between atoms: C_4  and  C_5
REMARK    4  A    between atoms: O_11  and  C_12
REMARK    5  A    between atoms: C_15  and  C_16
REMARK    6  A    between atoms: C_16  and  S_17
REMARK    7  A    between atoms: S_17  and  C_18
REMARK                            x       y       z     vdW  Elec       q    Type
REMARK                         _______ _______ _______ _____ _____    ______ ____
ROOT
ATOM      1  C   UNL     1       3.113   2.990  19.183  0.00  0.00    +0.000 A 
ATOM      2  C   UNL     1       4.310   3.118  19.771  0.00  0.00    +0.000 A 
ATOM      3  O   UNL     1       5.444   3.603  19.159  0.00  0.00    +0.000 OA
ATOM      4  C   UNL     1       5.401   3.883  17.795  0.00  0.00    +0.000 A 
ATOM      5  C   UNL     1       4.253   3.844  17.099  0.00  0.00    +0.000 A 
ATOM      6  C   UNL     1       2.998   3.456  17.778  0.00  0.00    +0.000 A 
ATOM      7  O   UNL     1       1.923   3.513  17.192  0.00  0.00    +0.000 OA
ENDROOT
BRANCH   1   8
ATOM      8  O   UNL     1       1.953   2.523  19.828  0.00  0.00    +0.000 OA
BRANCH   8  10
ATOM      9  O   UNL     1       1.418   2.922  22.048  0.00  0.00    +0.000 OA
ATOM     10  C   UNL     1       1.552   3.285  20.886  0.00  0.00    +0.000 C 
BRANCH  10  11
ATOM     11  C   UNL     1       1.256   4.683  20.488  0.00  0.00    +0.000 C 
ATOM     12  C   UNL     1       2.068   5.737  20.666  0.00  0.00    +0.000 C 
BRANCH  12  13
ATOM     13  C   UNL     1       1.745   7.115  20.244  0.00  0.00    +0.000 A 
ATOM     14  C   UNL     1       2.109   7.531  18.956  0.00  0.00    +0.000 A 
ATOM     15  C   UNL     1       1.795   8.817  18.501  0.00  0.00    +0.000 A 
ATOM     16  C   UNL     1       1.102   9.699  19.324  0.00  0.00    +0.000 A 
ATOM     17  C   UNL     1       0.719   9.293  20.602  0.00  0.00    +0.000 A 
ATOM     18  C   UNL     1       1.032   8.009  21.056  0.00  0.00    +0.000 A 
ENDBRANCH  12  13
ENDBRANCH  10  11
ENDBRANCH   8  10
ENDBRANCH   1   8
BRANCH   4  19
ATOM     19  C   UNL     1       6.736   4.233  17.170  0.00  0.00    +0.000 C 
BRANCH  19  20
ATOM     20  S   UNL     1       6.525   5.678  16.081  0.00  0.00    +0.000 S 
BRANCH  20  21
ATOM     21  C   UNL     1       6.859   4.966  14.492  0.00  0.00    +0.000 A 
ATOM     22  N   UNL     1       6.052   3.954  14.121  0.00  0.00    +0.000 NA
ATOM     23  C   UNL     1       6.169   3.518  12.854  0.00  0.00    +0.000 A 
ATOM     24  C   UNL     1       7.051   4.053  11.950  0.00  0.00    +0.000 A 
ATOM     25  C   UNL     1       7.846   5.067  12.434  0.00  0.00    +0.000 A 
ATOM     26  N   UNL     1       7.776   5.541  13.696  0.00  0.00    +0.000 NA
ENDBRANCH  20  21
ENDBRANCH  19  20
ENDBRANCH   4  19
TORSDOF 7
ENDMDL
MODEL 4
REMARK VINA RESULT:      -8.4      1.943      2.444
REMARK  Name = 
REMARK  7 active torsions:
REMARK  status: ('A' for Active; 'I' for Inactive)
REMARK    1  A    between atoms: C_2  and  C_3
REMARK    2  A    between atoms: C_2  and  O_11
REMARK    3  A    between atoms: C_4  and  C_5
REMARK    4  A    between atoms: O_11  and  C_12
REMARK    5  A    between atoms: C_15  and  C_16
REMARK    6  A    between atoms: C_16  and  S_17
REMARK    7  A    between atoms: S_17  and  C_18
REMARK                            x       y       z     vdW  Elec       q    Type
REMARK                         _______ _______ _______ _____ _____    ______ ____
ROOT
ATOM      1  C   UNL     1       6.791   5.252  17.798  0.00  0.00    +0.000 A 
ATOM      2  C   UNL     1       6.350   4.948  19.027  0.00  0.00    +0.000 A 
ATOM      3  O   UNL     1       5.370   4.024  19.310  0.00  0.00    +0.000 OA
ATOM      4  C   UNL     1       4.688   3.427  18.253  0.00  0.00    +0.000 A 
ATOM      5  C   UNL     1       5.062   3.605  16.975  0.00  0.00    +0.000 A 
ATOM      6  C   UNL     1       6.204   4.492  16.665  0.00  0.00    +0.000 A 
ATOM      7  O   UNL     1       6.630   4.590  15.520  0.00  0.00    +0.000 OA
ENDROOT
BRANCH   1   8
ATOM      8  O   UNL     1       7.815   6.175  17.522  0.00  0.00    +0.000 OA
BRANCH   8  10
ATOM      9  O   UNL     1       6.352   7.925  17.108  0.00  0.00    +0.000 OA
ATOM     10  C   UNL     1       7.413   7.479  17.527  0.00  0.00    +0.000 C 
BRANCH  10  11
ATOM     11  C   UNL     1       8.440   8.378  18.106  0.00  0.00    +0.000 C 
ATOM     12  C   UNL     1       8.344   9.714  18.210  0.00  0.00    +0.000 C 
BRANCH  12  13
ATOM     13  C   UNL     1       9.383  10.577  18.806  0.00  0.00    +0.000 A 
ATOM     14  C   UNL     1      10.363  11.132  17.973  0.00  0.00    +0.000 A 
ATOM     15  C   UNL     1      11.348  11.981  18.490  0.00  0.00    +0.000 A 
ATOM     16  C   UNL     1      11.358  12.297  19.844  0.00  0.00    +0.000 A 
ATOM     17  C   UNL     1      10.379  11.766  20.683  0.00  0.00    +0.000 A 
ATOM     18  C   UNL     1       9.394  10.918  20.167  0.00  0.00    +0.000 A 
ENDBRANCH  12  13
ENDBRANCH  10  11
ENDBRANCH   8  10
ENDBRANCH   1   8
BRANCH   4  19
ATOM     19  C   UNL     1       3.507   2.567  18.656  0.00  0.00    +0.000 C 
BRANCH  19  20
ATOM     20  S   UNL     1       1.986   3.263  17.936  0.00  0.00    +0.000 S 
BRANCH  20  21
ATOM     21  C   UNL     1       1.955   4.873  18.677  0.00  0.00    +0.000 A 
ATOM     22  N   UNL     1       1.606   4.914  19.976  0.00  0.00    +0.000 NA
ATOM     23  C   UNL     1       1.746   6.095  20.605  0.00  0.00    +0.000 A 
ATOM     24  C   UNL     1       2.224   7.225  19.991  0.00  0.00    +0.000 A 
ATOM     25  C   UNL     1       2.531   7.084  18.657  0.00  0.00    +0.000 A 
ATOM     26  N   UNL     1       2.405   5.926  17.974  0.00  0.00    +0.000 NA
ENDBRANCH  20  21
ENDBRANCH  19  20
ENDBRANCH   4  19
TORSDOF 7
ENDMDL
MODEL 5
REMARK VINA RESULT:      -8.1      3.895      7.342
REMARK  Name = 
REMARK  7 active torsions:
REMARK  status: ('A' for Active; 'I' for Inactive)
REMARK    1  A    between atoms: C_2  and  C_3
REMARK    2  A    between atoms: C_2  and  O_11
REMARK    3  A    between atoms: C_4  and  C_5
REMARK    4  A    between atoms: O_11  and  C_12
REMARK    5  A    between atoms: C_15  and  C_16
REMARK    6  A    between atoms: C_16  and  S_17
REMARK    7  A    between atoms: S_17  and  C_18
REMARK                            x       y       z     vdW  Elec       q    Type
REMARK                         _______ _______ _______ _____ _____    ______ ____
ROOT
ATOM      1  C   UNL     1       2.639   2.532  19.124  0.00  0.00    +0.000 A 
ATOM      2  C   UNL     1       2.099   2.850  17.939  0.00  0.00    +0.000 A 
ATOM      3  O   UNL     1       2.790   3.369  16.868  0.00  0.00    +0.000 OA
ATOM      4  C   UNL     1       4.131   3.706  17.037  0.00  0.00    +0.000 A 
ATOM      5  C   UNL     1       4.806   3.395  18.155  0.00  0.00    +0.000 A 
ATOM      6  C   UNL     1       4.106   2.711  19.265  0.00  0.00    +0.000 A 
ATOM      7  O   UNL     1       4.722   2.325  20.251  0.00  0.00    +0.000 OA
ENDROOT
BRANCH   1   8
ATOM      8  O   UNL     1       1.929   1.972  20.201  0.00  0.00    +0.000 OA
BRANCH   8  10
ATOM      9  O   UNL     1       1.134   2.681  22.260  0.00  0.00    +0.000 OA
ATOM     10  C   UNL     1       1.452   2.885  21.095  0.00  0.00    +0.000 C 
BRANCH  10  11
ATOM     11  C   UNL     1       1.327   4.238  20.500  0.00  0.00    +0.000 C 
ATOM     12  C   UNL     1       2.062   5.312  20.833  0.00  0.00    +0.000 C 
BRANCH  12  13
ATOM     13  C   UNL     1       1.918   6.642  20.208  0.00  0.00    +0.000 A 
ATOM     14  C   UNL     1       2.269   6.797  18.860  0.00  0.00    +0.000 A 
ATOM     15  C   UNL     1       2.120   8.032  18.217  0.00  0.00    +0.000 A 
ATOM     16  C   UNL     1       1.606   9.123  18.910  0.00  0.00    +0.000 A 
ATOM     17  C   UNL     1       1.237   8.979  20.247  0.00  0.00    +0.000 A 
ATOM     18  C   UNL     1       1.386   7.746  20.889  0.00  0.00    +0.000 A 
ENDBRANCH  12  13
ENDBRANCH  10  11
ENDBRANCH   8  10
ENDBRANCH   1   8
BRANCH   4  19
ATOM     19  C   UNL     1       4.759   4.438  15.868  0.00  0.00    +0.000 C 
BRANCH  19  20
ATOM     20  S   UNL     1       6.566   4.217  15.926  0.00  0.00    +0.000 S 
BRANCH  20  21
ATOM     21  C   UNL     1       7.046   5.553  16.989  0.00  0.00    +0.000 A 
ATOM     22  N   UNL     1       7.471   5.202  18.217  0.00  0.00    +0.000 NA
ATOM     23  C   UNL     1       8.005   6.176  18.975  0.00  0.00    +0.000 A 
ATOM     24  C   UNL     1       8.135   7.476  18.554  0.00  0.00    +0.000 A 
ATOM     25  C   UNL     1       7.650   7.735  17.292  0.00  0.00    +0.000 A 
ATOM     26  N   UNL     1       7.099   6.800  16.491  0.00  0.00    +0.000 NA
ENDBRANCH  20  21
ENDBRANCH  19  20
ENDBRANCH   4  19
TORSDOF 7
ENDMDL
MODEL 6
REMARK VINA RESULT:      -8.1      1.288      1.651
REMARK  Name = 
REMARK  7 active torsions:
REMARK  status: ('A' for Active; 'I' for Inactive)
REMARK    1  A    between atoms: C_2  and  C_3
REMARK    2  A    between atoms: C_2  and  O_11
REMARK    3  A    between atoms: C_4  and  C_5
REMARK    4  A    between atoms: O_11  and  C_12
REMARK    5  A    between atoms: C_15  and  C_16
REMARK    6  A    between atoms: C_16  and  S_17
REMARK    7  A    between atoms: S_17  and  C_18
REMARK                            x       y       z     vdW  Elec       q    Type
REMARK                         _______ _______ _______ _____ _____    ______ ____
ROOT
ATOM      1  C   UNL     1       7.002   5.737  17.133  0.00  0.00    +0.000 A 
ATOM      2  C   UNL     1       6.345   5.321  18.224  0.00  0.00    +0.000 A 
ATOM      3  O   UNL     1       5.428   4.294  18.253  0.00  0.00    +0.000 OA
ATOM      4  C   UNL     1       5.051   3.700  17.051  0.00  0.00    +0.000 A 
ATOM      5  C   UNL     1       5.667   3.989  15.893  0.00  0.00    +0.000 A 
ATOM      6  C   UNL     1       6.751   4.994  15.871  0.00  0.00    +0.000 A 
ATOM      7  O   UNL     1       7.396   5.199  14.850  0.00  0.00    +0.000 OA
ENDROOT
BRANCH   1   8
ATOM      8  O   UNL     1       7.961   6.766  17.121  0.00  0.00    +0.000 OA
BRANCH   8  10
ATOM      9  O   UNL     1       6.362   8.445  17.159  0.00  0.00    +0.000 OA
ATOM     10  C   UNL     1       7.467   7.997  17.440  0.00  0.00    +0.000 C 
BRANCH  10  11
ATOM     11  C   UNL     1       8.449   8.814  18.194  0.00  0.00    +0.000 C 
ATOM     12  C   UNL     1       8.744  10.103  17.956  0.00  0.00    +0.000 C 
BRANCH  12  13
ATOM     13  C   UNL     1       9.719  10.889  18.738  0.00  0.00    +0.000 A 
ATOM     14  C   UNL     1      10.805  11.474  18.074  0.00  0.00    +0.000 A 
ATOM     15  C   UNL     1      11.737  12.254  18.770  0.00  0.00    +0.000 A 
ATOM     16  C   UNL     1      11.585  12.471  20.135  0.00  0.00    +0.000 A 
ATOM     17  C   UNL     1      10.499  11.909  20.806  0.00  0.00    +0.000 A 
ATOM     18  C   UNL     1       9.569  11.130  20.112  0.00  0.00    +0.000 A 
ENDBRANCH  12  13
ENDBRANCH  10  11
ENDBRANCH   8  10
ENDBRANCH   1   8
BRANCH   4  19
ATOM     19  C   UNL     1       3.907   2.712  17.156  0.00  0.00    +0.000 C 
BRANCH  19  20
ATOM     20  S   UNL     1       2.340   3.626  17.313  0.00  0.00    +0.000 S 
BRANCH  20  21
ATOM     21  C   UNL     1       2.116   3.632  19.072  0.00  0.00    +0.000 A 
ATOM     22  N   UNL     1       2.336   2.460  19.696  0.00  0.00    +0.000 NA
ATOM     23  C   UNL     1       2.346   2.481  21.041  0.00  0.00    +0.000 A 
ATOM     24  C   UNL     1       2.153   3.621  21.780  0.00  0.00    +0.000 A 
ATOM     25  C   UNL     1       1.914   4.762  21.048  0.00  0.00    +0.000 A 
ATOM     26  N   UNL     1       1.886   4.798  19.699  0.00  0.00    +0.000 NA
ENDBRANCH  20  21
ENDBRANCH  19  20
ENDBRANCH   4  19
TORSDOF 7
ENDMDL
MODEL 7
REMARK VINA RESULT:      -8.1      4.054      7.142
REMARK  Name = 
REMARK  7 active torsions:
REMARK  status: ('A' for Active; 'I' for Inactive)
REMARK    1  A    between atoms: C_2  and  C_3
REMARK    2  A    between atoms: C_2  and  O_11
REMARK    3  A    between atoms: C_4  and  C_5
REMARK    4  A    between atoms: O_11  and  C_12
REMARK    5  A    between atoms: C_15  and  C_16
REMARK    6  A    between atoms: C_16  and  S_17
REMARK    7  A    between atoms: S_17  and  C_18
REMARK                            x       y       z     vdW  Elec       q    Type
REMARK                         _______ _______ _______ _____ _____    ______ ____
ROOT
ATOM      1  C   UNL     1       2.583   2.930  19.010  0.00  0.00    +0.000 A 
ATOM      2  C   UNL     1       2.056   3.300  17.835  0.00  0.00    +0.000 A 
ATOM      3  O   UNL     1       2.780   3.690  16.731  0.00  0.00    +0.000 OA
ATOM      4  C   UNL     1       4.161   3.829  16.852  0.00  0.00    +0.000 A 
ATOM      5  C   UNL     1       4.820   3.444  17.957  0.00  0.00    +0.000 A 
ATOM      6  C   UNL     1       4.064   2.894  19.103  0.00  0.00    +0.000 A 
ATOM      7  O   UNL     1       4.649   2.441  20.081  0.00  0.00    +0.000 OA
ENDROOT
BRANCH   1   8
ATOM      8  O   UNL     1       1.834   2.502  20.122  0.00  0.00    +0.000 OA
BRANCH   8  10
ATOM      9  O   UNL     1       2.080   3.127  22.341  0.00  0.00    +0.000 OA
ATOM     10  C   UNL     1       1.831   3.378  21.168  0.00  0.00    +0.000 C 
BRANCH  10  11
ATOM     11  C   UNL     1       1.463   4.751  20.747  0.00  0.00    +0.000 C 
ATOM     12  C   UNL     1       2.324   5.730  20.424  0.00  0.00    +0.000 C 
BRANCH  12  13
ATOM     13  C   UNL     1       1.920   7.083  19.994  0.00  0.00    +0.000 A 
ATOM     14  C   UNL     1       1.195   7.888  20.883  0.00  0.00    +0.000 A 
ATOM     15  C   UNL     1       0.817   9.189  20.530  0.00  0.00    +0.000 A 
ATOM     16  C   UNL     1       1.173   9.707  19.289  0.00  0.00    +0.000 A 
ATOM     17  C   UNL     1       1.909   8.924  18.400  0.00  0.00    +0.000 A 
ATOM     18  C   UNL     1       2.286   7.625  18.752  0.00  0.00    +0.000 A 
ENDBRANCH  12  13
ENDBRANCH  10  11
ENDBRANCH   8  10
ENDBRANCH   1   8
BRANCH   4  19
ATOM     19  C   UNL     1       4.851   4.438  15.648  0.00  0.00    +0.000 C 
BRANCH  19  20
ATOM     20  S   UNL     1       6.604   3.943  15.650  0.00  0.00    +0.000 S 
BRANCH  20  21
ATOM     21  C   UNL     1       7.289   5.098  16.808  0.00  0.00    +0.000 A 
ATOM     22  N   UNL     1       7.271   6.389  16.429  0.00  0.00    +0.000 NA
ATOM     23  C   UNL     1       7.620   7.299  17.357  0.00  0.00    +0.000 A 
ATOM     24  C   UNL     1       7.978   6.969  18.640  0.00  0.00    +0.000 A 
ATOM     25  C   UNL     1       7.986   5.621  18.919  0.00  0.00    +0.000 A 
ATOM     26  N   UNL     1       7.652   4.666  18.027  0.00  0.00    +0.000 NA
ENDBRANCH  20  21
ENDBRANCH  19  20
ENDBRANCH   4  19
TORSDOF 7
ENDMDL
MODEL 8
REMARK VINA RESULT:      -8.0      0.859      1.456
REMARK  Name = 
REMARK  7 active torsions:
REMARK  status: ('A' for Active; 'I' for Inactive)
REMARK    1  A    between atoms: C_2  and  C_3
REMARK    2  A    between atoms: C_2  and  O_11
REMARK    3  A    between atoms: C_4  and  C_5
REMARK    4  A    between atoms: O_11  and  C_12
REMARK    5  A    between atoms: C_15  and  C_16
REMARK    6  A    between atoms: C_16  and  S_17
REMARK    7  A    between atoms: S_17  and  C_18
REMARK                            x       y       z     vdW  Elec       q    Type
REMARK                         _______ _______ _______ _____ _____    ______ ____
ROOT
ATOM      1  C   UNL     1       6.362   6.619  16.857  0.00  0.00    +0.000 A 
ATOM      2  C   UNL     1       6.795   5.422  16.437  0.00  0.00    +0.000 A 
ATOM      3  O   UNL     1       6.041   4.269  16.421  0.00  0.00    +0.000 OA
ATOM      4  C   UNL     1       4.767   4.295  16.984  0.00  0.00    +0.000 A 
ATOM      5  C   UNL     1       4.195   5.439  17.394  0.00  0.00    +0.000 A 
ATOM      6  C   UNL     1       4.945   6.710  17.290  0.00  0.00    +0.000 A 
ATOM      7  O   UNL     1       4.410   7.778  17.561  0.00  0.00    +0.000 OA
ENDROOT
BRANCH   1   8
ATOM      8  O   UNL     1       7.131   7.796  16.839  0.00  0.00    +0.000 OA
BRANCH   8  10
ATOM      9  O   UNL     1       8.262   7.093  18.737  0.00  0.00    +0.000 OA
ATOM     10  C   UNL     1       7.949   7.950  17.920  0.00  0.00    +0.000 C 
BRANCH  10  11
ATOM     11  C   UNL     1       8.455   9.339  18.046  0.00  0.00    +0.000 C 
ATOM     12  C   UNL     1       9.103   9.845  19.108  0.00  0.00    +0.000 C 
BRANCH  12  13
ATOM     13  C   UNL     1       9.604  11.231  19.192  0.00  0.00    +0.000 A 
ATOM     14  C   UNL     1      10.144  11.684  20.403  0.00  0.00    +0.000 A 
ATOM     15  C   UNL     1      10.660  12.980  20.520  0.00  0.00    +0.000 A 
ATOM     16  C   UNL     1      10.655  13.835  19.422  0.00  0.00    +0.000 A 
ATOM     17  C   UNL     1      10.137  13.392  18.205  0.00  0.00    +0.000 A 
ATOM     18  C   UNL     1       9.622  12.098  18.089  0.00  0.00    +0.000 A 
ENDBRANCH  12  13
ENDBRANCH  10  11
ENDBRANCH   8  10
ENDBRANCH   1   8
BRANCH   4  19
ATOM     19  C   UNL     1       4.086   2.946  17.088  0.00  0.00    +0.000 C 
BRANCH  19  20
ATOM     20  S   UNL     1       2.306   3.196  17.379  0.00  0.00    +0.000 S 
BRANCH  20  21
ATOM     21  C   UNL     1       2.188   2.866  19.117  0.00  0.00    +0.000 A 
ATOM     22  N   UNL     1       3.348   2.595  19.743  0.00  0.00    +0.000 NA
ATOM     23  C   UNL     1       3.310   2.517  21.085  0.00  0.00    +0.000 A 
ATOM     24  C   UNL     1       2.166   2.703  21.820  0.00  0.00    +0.000 A 
ATOM     25  C   UNL     1       1.029   2.952  21.085  0.00  0.00    +0.000 A 
ATOM     26  N   UNL     1       1.008   3.035  19.738  0.00  0.00    +0.000 NA
ENDBRANCH  20  21
ENDBRANCH  19  20
ENDBRANCH   4  19
TORSDOF 7
ENDMDL
MODEL 9
REMARK VINA RESULT:      -8.0      3.748      7.450
REMARK  Name = 
REMARK  7 active torsions:
REMARK  status: ('A' for Active; 'I' for Inactive)
REMARK    1  A    between atoms: C_2  and  C_3
REMARK    2  A    between atoms: C_2  and  O_11
REMARK    3  A    between atoms: C_4  and  C_5
REMARK    4  A    between atoms: O_11  and  C_12
REMARK    5  A    between atoms: C_15  and  C_16
REMARK    6  A    between atoms: C_16  and  S_17
REMARK    7  A    between atoms: S_17  and  C_18
REMARK                            x       y       z     vdW  Elec       q    Type
REMARK                         _______ _______ _______ _____ _____    ______ ____
ROOT
ATOM      1  C   UNL     1       2.541   2.564  19.025  0.00  0.00    +0.000 A 
ATOM      2  C   UNL     1       2.284   2.861  17.744  0.00  0.00    +0.000 A 
ATOM      3  O   UNL     1       3.225   3.243  16.815  0.00  0.00    +0.000 OA
ATOM      4  C   UNL     1       4.535   3.457  17.240  0.00  0.00    +0.000 A 
ATOM      5  C   UNL     1       4.937   3.150  18.484  0.00  0.00    +0.000 A 
ATOM      6  C   UNL     1       3.962   2.607  19.455  0.00  0.00    +0.000 A 
ATOM      7  O   UNL     1       4.324   2.224  20.561  0.00  0.00    +0.000 OA
ENDROOT
BRANCH   1   8
ATOM      8  O   UNL     1       1.575   2.143  19.957  0.00  0.00    +0.000 OA
BRANCH   8  10
ATOM      9  O   UNL     1       1.271   2.766  22.169  0.00  0.00    +0.000 OA
ATOM     10  C   UNL     1       1.354   3.024  20.975  0.00  0.00    +0.000 C 
BRANCH  10  11
ATOM     11  C   UNL     1       1.198   4.416  20.486  0.00  0.00    +0.000 C 
ATOM     12  C   UNL     1       1.952   5.465  20.853  0.00  0.00    +0.000 C 
BRANCH  12  13
ATOM     13  C   UNL     1       1.776   6.836  20.333  0.00  0.00    +0.000 A 
ATOM     14  C   UNL     1       2.240   7.136  19.046  0.00  0.00    +0.000 A 
ATOM     15  C   UNL     1       2.067   8.414  18.500  0.00  0.00    +0.000 A 
ATOM     16  C   UNL     1       1.415   9.403  19.230  0.00  0.00    +0.000 A 
ATOM     17  C   UNL     1       0.933   9.114  20.506  0.00  0.00    +0.000 A 
ATOM     18  C   UNL     1       1.106   7.838  21.051  0.00  0.00    +0.000 A 
ENDBRANCH  12  13
ENDBRANCH  10  11
ENDBRANCH   8  10
ENDBRANCH   1   8
BRANCH   4  19
ATOM     19  C   UNL     1       5.457   4.052  16.196  0.00  0.00    +0.000 C 
BRANCH  19  20
ATOM     20  S   UNL     1       5.190   5.852  16.117  0.00  0.00    +0.000 S 
BRANCH  20  21
ATOM     21  C   UNL     1       6.557   6.448  17.076  0.00  0.00    +0.000 A 
ATOM     22  N   UNL     1       6.928   7.721  16.839  0.00  0.00    +0.000 NA
ATOM     23  C   UNL     1       7.840   8.251  17.673  0.00  0.00    +0.000 A 
ATOM     24  C   UNL     1       8.387   7.566  18.729  0.00  0.00    +0.000 A 
ATOM     25  C   UNL     1       7.958   6.266  18.870  0.00  0.00    +0.000 A 
ATOM     26  N   UNL     1       7.051   5.681  18.061  0.00  0.00    +0.000 NA
ENDBRANCH  20  21
ENDBRANCH  19  20
ENDBRANCH   4  19
TORSDOF 7
ENDMDL
