MODEL 1
REMARK VINA RESULT:      -8.0      0.000      0.000
REMARK  Name = 
REMARK  10 active torsions:
REMARK  status: ('A' for Active; 'I' for Inactive)
REMARK    1  A    between atoms: C_4  and  C_5
REMARK    2  A    between atoms: C_6  and  C_7
REMARK    3  A    between atoms: N_16  and  C_17
REMARK    4  A    between atoms: C_17  and  C_18
REMARK    5  A    between atoms: C_18  and  C_19
REMARK    6  A    between atoms: C_19  and  C_20
REMARK    7  A    between atoms: C_20  and  C_21
REMARK    8  A    between atoms: C_21  and  C_22
REMARK    9  A    between atoms: C_22  and  N_23
REMARK   10  A    between atoms: N_23  and  C_24
REMARK                            x       y       z     vdW  Elec       q    Type
REMARK                         _______ _______ _______ _____ _____    ______ ____
ROOT
ATOM      1  C   UNL     1       0.784   7.603  20.615  0.00  0.00    +0.000 C 
ENDROOT
BRANCH   1   9
ATOM      2  O   UNL     1       0.339   9.861  22.544  0.00  0.00    +0.000 OA
ATOM      3  C   UNL     1       0.652  10.018  21.385  0.00  0.00    +0.000 C 
ATOM      4  C   UNL     1       0.886  11.352  20.697  0.00  0.00    +0.000 C 
ATOM      5  C   UNL     1       0.797  12.584  21.236  0.00  0.00    +0.000 C 
ATOM      6  N   UNL     1       1.242  11.056  19.416  0.00  0.00    +0.000 N 
ATOM      7  C   UNL     1       1.252   9.689  19.217  0.00  0.00    +0.000 C 
ATOM      8  S   UNL     1       1.700   9.022  17.766  0.00  0.00    +0.000 S 
ATOM      9  N   UNL     1       0.858   9.064  20.389  0.00  0.00    +0.000 N 
ATOM     10  H   UNL     1       1.507  11.720  18.704  0.00  0.00    +0.000 HD
BRANCH   5  11
ATOM     11  C   UNL     1       0.999  13.832  20.505  0.00  0.00    +0.000 C 
ATOM     12  C   UNL     1       0.054  14.510  19.822  0.00  0.00    +0.000 C 
BRANCH  12  13
ATOM     13  C   UNL     1       0.328  15.739  19.014  0.00  0.00    +0.000 A 
ATOM     14  C   UNL     1      -0.742  16.544  18.584  0.00  0.00    +0.000 A 
ATOM     15  C   UNL     1      -0.516  17.685  17.802  0.00  0.00    +0.000 A 
ATOM     16  C   UNL     1       0.779  18.053  17.463  0.00  0.00    +0.000 A 
ATOM     17  C   UNL     1       1.855  17.290  17.919  0.00  0.00    +0.000 A 
ATOM     18  C   UNL     1       1.629  16.149  18.703  0.00  0.00    +0.000 A 
ENDBRANCH  12  13
ENDBRANCH   5  11
ENDBRANCH   1   9
BRANCH   1  19
ATOM     19  C   UNL     1       2.089   6.837  20.243  0.00  0.00    +0.000 C 
BRANCH  19  20
ATOM     20  C   UNL     1       2.142   5.395  20.812  0.00  0.00    +0.000 C 
BRANCH  20  21
ATOM     21  C   UNL     1       0.890   4.487  20.625  0.00  0.00    +0.000 C 
BRANCH  21  22
ATOM     22  C   UNL     1       0.964   3.019  20.111  0.00  0.00    +0.000 C 
BRANCH  22  23
ATOM     23  C   UNL     1       0.961   2.758  18.587  0.00  0.00    +0.000 C 
BRANCH  23  24
ATOM     24  N   UNL     1       1.919   3.610  17.850  0.00  0.00    +0.000 N 
ATOM     25  H   UNL     1       1.440   4.120  17.102  0.00  0.00    +0.000 HD
BRANCH  24  26
ATOM     26  C   UNL     1       3.251   3.290  17.355  0.00  0.00    +0.000 A 
ATOM     27  C   UNL     1       3.644   2.075  17.914  0.00  0.00    +0.000 A 
ATOM     28  C   UNL     1       4.221   2.156  19.170  0.00  0.00    +0.000 A 
ATOM     29  N   UNL     1       4.706   3.314  19.669  0.00  0.00    +0.000 NA
ATOM     30  C   UNL     1       4.910   4.278  18.764  0.00  0.00    +0.000 A 
ATOM     31  C   UNL     1       5.922   5.195  18.994  0.00  0.00    +0.000 A 
ATOM     32  C   UNL     1       6.528   5.845  17.923  0.00  0.00    +0.000 A 
ATOM     33 CL   UNL     1       7.868   6.885  18.209  0.00  0.00    +0.000 Cl
ATOM     34  C   UNL     1       6.115   5.584  16.621  0.00  0.00    +0.000 A 
ATOM     35  C   UNL     1       4.980   4.793  16.407  0.00  0.00    +0.000 A 
ATOM     36  C   UNL     1       4.294   4.219  17.498  0.00  0.00    +0.000 A 
ENDBRANCH  24  26
ENDBRANCH  23  24
ENDBRANCH  22  23
ENDBRANCH  21  22
ENDBRANCH  20  21
ENDBRANCH  19  20
ENDBRANCH   1  19
TORSDOF 10
ENDMDL
MODEL 2
REMARK VINA RESULT:      -7.8      4.657      8.000
REMARK  Name = 
REMARK  10 active torsions:
REMARK  status: ('A' for Active; 'I' for Inactive)
REMARK    1  A    between atoms: C_4  and  C_5
REMARK    2  A    between atoms: C_6  and  C_7
REMARK    3  A    between atoms: N_16  and  C_17
REMARK    4  A    between atoms: C_17  and  C_18
REMARK    5  A    between atoms: C_18  and  C_19
REMARK    6  A    between atoms: C_19  and  C_20
REMARK    7  A    between atoms: C_20  and  C_21
REMARK    8  A    between atoms: C_21  and  C_22
REMARK    9  A    between atoms: C_22  and  N_23
REMARK   10  A    between atoms: N_23  and  C_24
REMARK                            x       y       z     vdW  Elec       q    Type
REMARK                         _______ _______ _______ _____ _____    ______ ____
ROOT
ATOM      1  C   UNL     1       5.701   3.997  17.608  0.00  0.00    +0.000 C 
ENDROOT
BRANCH   1   9
ATOM      2  O   UNL     1       7.647   5.162  19.576  0.00  0.00    +0.000 OA
ATOM      3  C   UNL     1       7.235   5.756  18.605  0.00  0.00    +0.000 C 
ATOM      4  C   UNL     1       7.619   7.167  18.192  0.00  0.00    +0.000 C 
ATOM      5  C   UNL     1       8.474   8.003  18.813  0.00  0.00    +0.000 C 
ATOM      6  N   UNL     1       6.943   7.416  17.036  0.00  0.00    +0.000 N 
ATOM      7  C   UNL     1       6.174   6.327  16.675  0.00  0.00    +0.000 C 
ATOM      8  S   UNL     1       5.279   6.314  15.280  0.00  0.00    +0.000 S 
ATOM      9  N   UNL     1       6.317   5.342  17.640  0.00  0.00    +0.000 N 
ATOM     10  H   UNL     1       7.010   8.255  16.478  0.00  0.00    +0.000 HD
BRANCH   5  11
ATOM     11  C   UNL     1       8.769   9.367  18.383  0.00  0.00    +0.000 C 
ATOM     12  C   UNL     1       9.481  10.278  19.077  0.00  0.00    +0.000 C 
BRANCH  12  13
ATOM     13  C   UNL     1       9.683  11.693  18.634  0.00  0.00    +0.000 A 
ATOM     14  C   UNL     1      10.532  11.969  17.548  0.00  0.00    +0.000 A 
ATOM     15  C   UNL     1      10.761  13.288  17.130  0.00  0.00    +0.000 A 
ATOM     16  C   UNL     1      10.126  14.343  17.770  0.00  0.00    +0.000 A 
ATOM     17  C   UNL     1       9.246  14.083  18.822  0.00  0.00    +0.000 A 
ATOM     18  C   UNL     1       9.015  12.763  19.239  0.00  0.00    +0.000 A 
ENDBRANCH  12  13
ENDBRANCH   5  11
ENDBRANCH   1   9
BRANCH   1  19
ATOM     19  C   UNL     1       4.491   3.830  18.574  0.00  0.00    +0.000 C 
BRANCH  19  20
ATOM     20  C   UNL     1       3.148   3.571  17.842  0.00  0.00    +0.000 C 
BRANCH  20  21
ATOM     21  C   UNL     1       1.852   4.188  18.448  0.00  0.00    +0.000 C 
BRANCH  21  22
ATOM     22  C   UNL     1       1.788   5.620  19.057  0.00  0.00    +0.000 C 
BRANCH  22  23
ATOM     23  C   UNL     1       2.036   5.802  20.572  0.00  0.00    +0.000 C 
BRANCH  23  24
ATOM     24  N   UNL     1       1.352   6.985  21.135  0.00  0.00    +0.000 N 
ATOM     25  H   UNL     1       0.337   6.892  21.035  0.00  0.00    +0.000 HD
BRANCH  24  26
ATOM     26  C   UNL     1       1.662   8.400  20.971  0.00  0.00    +0.000 A 
ATOM     27  C   UNL     1       1.662   8.994  22.232  0.00  0.00    +0.000 A 
ATOM     28  C   UNL     1       0.426   9.404  22.699  0.00  0.00    +0.000 A 
ATOM     29  N   UNL     1      -0.639   9.564  21.881  0.00  0.00    +0.000 NA
ATOM     30  C   UNL     1      -0.344   9.639  20.578  0.00  0.00    +0.000 A 
ATOM     31  C   UNL     1      -1.169  10.391  19.758  0.00  0.00    +0.000 A 
ATOM     32  C   UNL     1      -0.666  10.944  18.585  0.00  0.00    +0.000 A 
ATOM     33 CL   UNL     1      -1.661  11.981  17.639  0.00  0.00    +0.000 Cl
ATOM     34  C   UNL     1       0.663  10.737  18.227  0.00  0.00    +0.000 A 
ATOM     35  C   UNL     1       1.440   9.837  18.964  0.00  0.00    +0.000 A 
ATOM     36  C   UNL     1       0.900   9.187  20.095  0.00  0.00    +0.000 A 
ENDBRANCH  24  26
ENDBRANCH  23  24
ENDBRANCH  22  23
ENDBRANCH  21  22
ENDBRANCH  20  21
ENDBRANCH  19  20
ENDBRANCH   1  19
TORSDOF 10
ENDMDL
MODEL 3
REMARK VINA RESULT:      -7.8      5.400     11.732
REMARK  Name = 
REMARK  10 active torsions:
REMARK  status: ('A' for Active; 'I' for Inactive)
REMARK    1  A    between atoms: C_4  and  C_5
REMARK    2  A    between atoms: C_6  and  C_7
REMARK    3  A    between atoms: N_16  and  C_17
REMARK    4  A    between atoms: C_17  and  C_18
REMARK    5  A    between atoms: C_18  and  C_19
REMARK    6  A    between atoms: C_19  and  C_20
REMARK    7  A    between atoms: C_20  and  C_21
REMARK    8  A    between atoms: C_21  and  C_22
REMARK    9  A    between atoms: C_22  and  N_23
REMARK   10  A    between atoms: N_23  and  C_24
REMARK                            x       y       z     vdW  Elec       q    Type
REMARK                         _______ _______ _______ _____ _____    ______ ____
ROOT
ATOM      1  C   UNL     1      -0.406  12.587  21.742  0.00  0.00    +0.000 C 
ENDROOT
BRANCH   1   9
ATOM      2  O   UNL     1       0.895  12.670  19.037  0.00  0.00    +0.000 OA
ATOM      3  C   UNL     1       0.709  11.651  19.663  0.00  0.00    +0.000 C 
ATOM      4  C   UNL     1       1.098  10.249  19.223  0.00  0.00    +0.000 C 
ATOM      5  C   UNL     1       1.712   9.885  18.080  0.00  0.00    +0.000 C 
ATOM      6  N   UNL     1       0.727   9.421  20.239  0.00  0.00    +0.000 N 
ATOM      7  C   UNL     1       0.145  10.139  21.266  0.00  0.00    +0.000 C 
ATOM      8  S   UNL     1      -0.361   9.407  22.665  0.00  0.00    +0.000 S 
ATOM      9  N   UNL     1       0.097  11.476  20.904  0.00  0.00    +0.000 N 
ATOM     10  H   UNL     1       0.882   8.425  20.280  0.00  0.00    +0.000 HD
BRANCH   5  11
ATOM     11  C   UNL     1       2.023   8.510  17.701  0.00  0.00    +0.000 C 
ATOM     12  C   UNL     1       2.720   7.624  18.441  0.00  0.00    +0.000 C 
BRANCH  12  13
ATOM     13  C   UNL     1       3.090   6.252  17.972  0.00  0.00    +0.000 A 
ATOM     14  C   UNL     1       4.300   6.054  17.284  0.00  0.00    +0.000 A 
ATOM     15  C   UNL     1       4.658   4.785  16.807  0.00  0.00    +0.000 A 
ATOM     16  C   UNL     1       3.830   3.695  17.037  0.00  0.00    +0.000 A 
ATOM     17  C   UNL     1       2.647   3.866  17.757  0.00  0.00    +0.000 A 
ATOM     18  C   UNL     1       2.289   5.136  18.235  0.00  0.00    +0.000 A 
ENDBRANCH  12  13
ENDBRANCH   5  11
ENDBRANCH   1   9
BRANCH   1  19
ATOM     19  C   UNL     1      -1.894  12.961  21.472  0.00  0.00    +0.000 C 
BRANCH  19  20
ATOM     20  C   UNL     1      -2.381  14.185  22.292  0.00  0.00    +0.000 C 
BRANCH  20  21
ATOM     21  C   UNL     1      -2.737  13.968  23.793  0.00  0.00    +0.000 C 
BRANCH  21  22
ATOM     22  C   UNL     1      -2.985  15.135  24.793  0.00  0.00    +0.000 C 
BRANCH  22  23
ATOM     23  C   UNL     1      -4.234  16.027  24.610  0.00  0.00    +0.000 C 
BRANCH  23  24
ATOM     24  N   UNL     1      -5.498  15.261  24.597  0.00  0.00    +0.000 N 
ATOM     25  H   UNL     1      -5.365  14.346  25.036  0.00  0.00    +0.000 HD
BRANCH  24  26
ATOM     26  C   UNL     1      -6.456  15.072  23.515  0.00  0.00    +0.000 A 
ATOM     27  C   UNL     1      -7.550  14.371  24.019  0.00  0.00    +0.000 A 
ATOM     28  C   UNL     1      -7.421  12.993  24.034  0.00  0.00    +0.000 A 
ATOM     29  N   UNL     1      -6.491  12.347  23.296  0.00  0.00    +0.000 NA
ATOM     30  C   UNL     1      -5.949  13.070  22.310  0.00  0.00    +0.000 A 
ATOM     31  C   UNL     1      -5.516  12.413  21.171  0.00  0.00    +0.000 A 
ATOM     32  C   UNL     1      -5.458  13.090  19.957  0.00  0.00    +0.000 A 
ATOM     33 CL   UNL     1      -5.041  12.232  18.524  0.00  0.00    +0.000 Cl
ATOM     34  C   UNL     1      -5.825  14.430  19.884  0.00  0.00    +0.000 A 
ATOM     35  C   UNL     1      -6.093  15.133  21.063  0.00  0.00    +0.000 A 
ATOM     36  C   UNL     1      -6.046  14.476  22.313  0.00  0.00    +0.000 A 
ENDBRANCH  24  26
ENDBRANCH  23  24
ENDBRANCH  22  23
ENDBRANCH  21  22
ENDBRANCH  20  21
ENDBRANCH  19  20
ENDBRANCH   1  19
TORSDOF 10
ENDMDL
MODEL 4
REMARK VINA RESULT:      -7.7      3.366      4.185
REMARK  Name = 
REMARK  10 active torsions:
REMARK  status: ('A' for Active; 'I' for Inactive)
REMARK    1  A    between atoms: C_4  and  C_5
REMARK    2  A    between atoms: C_6  and  C_7
REMARK    3  A    between atoms: N_16  and  C_17
REMARK    4  A    between atoms: C_17  and  C_18
REMARK    5  A    between atoms: C_18  and  C_19
REMARK    6  A    between atoms: C_19  and  C_20
REMARK    7  A    between atoms: C_20  and  C_21
REMARK    8  A    between atoms: C_21  and  C_22
REMARK    9  A    between atoms: C_22  and  N_23
REMARK   10  A    between atoms: N_23  and  C_24
REMARK                            x       y       z     vdW  Elec       q    Type
REMARK                         _______ _______ _______ _____ _____    ______ ____
ROOT
ATOM      1  C   UNL     1       1.940   8.120  19.968  0.00  0.00    +0.000 C 
ENDROOT
BRANCH   1   9
ATOM      2  O   UNL     1       1.475   9.285  22.696  0.00  0.00    +0.000 OA
ATOM      3  C   UNL     1       0.844   9.603  21.713  0.00  0.00    +0.000 C 
ATOM      4  C   UNL     1      -0.269  10.635  21.661  0.00  0.00    +0.000 C 
ATOM      5  C   UNL     1      -0.752  11.377  22.676  0.00  0.00    +0.000 C 
ATOM      6  N   UNL     1      -0.671  10.688  20.360  0.00  0.00    +0.000 N 
ATOM      7  C   UNL     1       0.058   9.804  19.588  0.00  0.00    +0.000 C 
ATOM      8  S   UNL     1      -0.170   9.683  17.950  0.00  0.00    +0.000 S 
ATOM      9  N   UNL     1       0.943   9.121  20.407  0.00  0.00    +0.000 N 
ATOM     10  H   UNL     1      -1.371  11.307  19.979  0.00  0.00    +0.000 HD
BRANCH   5  11
ATOM     11  C   UNL     1      -1.855  12.327  22.565  0.00  0.00    +0.000 C 
ATOM     12  C   UNL     1      -3.035  12.249  23.215  0.00  0.00    +0.000 C 
BRANCH  12  13
ATOM     13  C   UNL     1      -4.171  13.200  23.001  0.00  0.00    +0.000 A 
ATOM     14  C   UNL     1      -4.872  13.184  21.783  0.00  0.00    +0.000 A 
ATOM     15  C   UNL     1      -5.922  14.083  21.545  0.00  0.00    +0.000 A 
ATOM     16  C   UNL     1      -6.303  14.986  22.527  0.00  0.00    +0.000 A 
ATOM     17  C   UNL     1      -5.645  14.985  23.759  0.00  0.00    +0.000 A 
ATOM     18  C   UNL     1      -4.596  14.084  23.998  0.00  0.00    +0.000 A 
ENDBRANCH  12  13
ENDBRANCH   5  11
ENDBRANCH   1   9
BRANCH   1  19
ATOM     19  C   UNL     1       1.691   6.688  20.528  0.00  0.00    +0.000 C 
BRANCH  19  20
ATOM     20  C   UNL     1       2.526   5.592  19.816  0.00  0.00    +0.000 C 
BRANCH  20  21
ATOM     21  C   UNL     1       1.762   4.459  19.068  0.00  0.00    +0.000 C 
BRANCH  21  22
ATOM     22  C   UNL     1       2.351   3.686  17.851  0.00  0.00    +0.000 C 
BRANCH  22  23
ATOM     23  C   UNL     1       3.699   2.946  18.015  0.00  0.00    +0.000 C 
BRANCH  23  24
ATOM     24  N   UNL     1       4.657   3.237  16.928  0.00  0.00    +0.000 N 
ATOM     25  H   UNL     1       5.593   2.908  17.181  0.00  0.00    +0.000 HD
BRANCH  24  26
ATOM     26  C   UNL     1       4.836   4.457  16.153  0.00  0.00    +0.000 A 
ATOM     27  C   UNL     1       5.395   4.115  14.923  0.00  0.00    +0.000 A 
ATOM     28  C   UNL     1       6.775   4.001  14.906  0.00  0.00    +0.000 A 
ATOM     29  N   UNL     1       7.555   4.527  15.877  0.00  0.00    +0.000 NA
ATOM     30  C   UNL     1       6.957   5.442  16.648  0.00  0.00    +0.000 A 
ATOM     31  C   UNL     1       7.732   6.449  17.198  0.00  0.00    +0.000 A 
ATOM     32  C   UNL     1       7.153   7.670  17.529  0.00  0.00    +0.000 A 
ATOM     33 CL   UNL     1       8.147   8.957  18.092  0.00  0.00    +0.000 Cl
ATOM     34  C   UNL     1       5.794   7.881  17.318  0.00  0.00    +0.000 A 
ATOM     35  C   UNL     1       4.986   6.807  16.929  0.00  0.00    +0.000 A 
ATOM     36  C   UNL     1       5.552   5.534  16.696  0.00  0.00    +0.000 A 
ENDBRANCH  24  26
ENDBRANCH  23  24
ENDBRANCH  22  23
ENDBRANCH  21  22
ENDBRANCH  20  21
ENDBRANCH  19  20
ENDBRANCH   1  19
TORSDOF 10
ENDMDL
MODEL 5
REMARK VINA RESULT:      -7.7      5.421      7.910
REMARK  Name = 
REMARK  10 active torsions:
REMARK  status: ('A' for Active; 'I' for Inactive)
REMARK    1  A    between atoms: C_4  and  C_5
REMARK    2  A    between atoms: C_6  and  C_7
REMARK    3  A    between atoms: N_16  and  C_17
REMARK    4  A    between atoms: C_17  and  C_18
REMARK    5  A    between atoms: C_18  and  C_19
REMARK    6  A    between atoms: C_19  and  C_20
REMARK    7  A    between atoms: C_20  and  C_21
REMARK    8  A    between atoms: C_21  and  C_22
REMARK    9  A    between atoms: C_22  and  N_23
REMARK   10  A    between atoms: N_23  and  C_24
REMARK                            x       y       z     vdW  Elec       q    Type
REMARK                         _______ _______ _______ _____ _____    ______ ____
ROOT
ATOM      1  C   UNL     1       4.708   4.338  17.920  0.00  0.00    +0.000 C 
ENDROOT
BRANCH   1   9
ATOM      2  O   UNL     1       4.212   6.975  16.572  0.00  0.00    +0.000 OA
ATOM      3  C   UNL     1       3.675   6.635  17.603  0.00  0.00    +0.000 C 
ATOM      4  C   UNL     1       2.663   7.447  18.392  0.00  0.00    +0.000 C 
ATOM      5  C   UNL     1       2.179   8.670  18.098  0.00  0.00    +0.000 C 
ATOM      6  N   UNL     1       2.309   6.673  19.456  0.00  0.00    +0.000 N 
ATOM      7  C   UNL     1       2.987   5.470  19.430  0.00  0.00    +0.000 C 
ATOM      8  S   UNL     1       2.723   4.296  20.571  0.00  0.00    +0.000 S 
ATOM      9  N   UNL     1       3.839   5.461  18.338  0.00  0.00    +0.000 N 
ATOM     10  H   UNL     1       1.620   6.905  20.156  0.00  0.00    +0.000 HD
BRANCH   5  11
ATOM     11  C   UNL     1       1.232   9.414  18.924  0.00  0.00    +0.000 C 
ATOM     12  C   UNL     1       0.200  10.155  18.471  0.00  0.00    +0.000 C 
BRANCH  12  13
ATOM     13  C   UNL     1      -0.692  10.972  19.353  0.00  0.00    +0.000 A 
ATOM     14  C   UNL     1      -0.410  11.072  20.727  0.00  0.00    +0.000 A 
ATOM     15  C   UNL     1      -1.244  11.807  21.581  0.00  0.00    +0.000 A 
ATOM     16  C   UNL     1      -2.350  12.475  21.072  0.00  0.00    +0.000 A 
ATOM     17  C   UNL     1      -2.618  12.422  19.703  0.00  0.00    +0.000 A 
ATOM     18  C   UNL     1      -1.783  11.687  18.848  0.00  0.00    +0.000 A 
ENDBRANCH  12  13
ENDBRANCH   5  11
ENDBRANCH   1   9
BRANCH   1  19
ATOM     19  C   UNL     1       6.216   4.710  17.808  0.00  0.00    +0.000 C 
BRANCH  19  20
ATOM     20  C   UNL     1       6.669   5.772  18.844  0.00  0.00    +0.000 C 
BRANCH  20  21
ATOM     21  C   UNL     1       7.953   6.598  18.534  0.00  0.00    +0.000 C 
BRANCH  21  22
ATOM     22  C   UNL     1       7.945   7.920  17.711  0.00  0.00    +0.000 C 
BRANCH  22  23
ATOM     23  C   UNL     1       8.094   9.267  18.457  0.00  0.00    +0.000 C 
BRANCH  23  24
ATOM     24  N   UNL     1       8.994  10.215  17.768  0.00  0.00    +0.000 N 
ATOM     25  H   UNL     1       9.297   9.831  16.869  0.00  0.00    +0.000 HD
BRANCH  24  26
ATOM     26  C   UNL     1      10.117  10.978  18.298  0.00  0.00    +0.000 A 
ATOM     27  C   UNL     1      10.024  10.981  19.689  0.00  0.00    +0.000 A 
ATOM     28  C   UNL     1       9.209  11.961  20.231  0.00  0.00    +0.000 A 
ATOM     29  N   UNL     1       8.826  13.051  19.529  0.00  0.00    +0.000 NA
ATOM     30  C   UNL     1       9.546  13.296  18.428  0.00  0.00    +0.000 A 
ATOM     31  C   UNL     1       9.689  14.609  18.013  0.00  0.00    +0.000 A 
ATOM     32  C   UNL     1      10.797  14.984  17.260  0.00  0.00    +0.000 A 
ATOM     33 CL   UNL     1      11.031  16.640  16.857  0.00  0.00    +0.000 Cl
ATOM     34  C   UNL     1      11.760  14.040  16.914  0.00  0.00    +0.000 A 
ATOM     35  C   UNL     1      11.524  12.688  17.185  0.00  0.00    +0.000 A 
ATOM     36  C   UNL     1      10.346  12.289  17.853  0.00  0.00    +0.000 A 
ENDBRANCH  24  26
ENDBRANCH  23  24
ENDBRANCH  22  23
ENDBRANCH  21  22
ENDBRANCH  20  21
ENDBRANCH  19  20
ENDBRANCH   1  19
TORSDOF 10
ENDMDL
MODEL 6
REMARK VINA RESULT:      -7.5      5.673      8.686
REMARK  Name = 
REMARK  10 active torsions:
REMARK  status: ('A' for Active; 'I' for Inactive)
REMARK    1  A    between atoms: C_4  and  C_5
REMARK    2  A    between atoms: C_6  and  C_7
REMARK    3  A    between atoms: N_16  and  C_17
REMARK    4  A    between atoms: C_17  and  C_18
REMARK    5  A    between atoms: C_18  and  C_19
REMARK    6  A    between atoms: C_19  and  C_20
REMARK    7  A    between atoms: C_20  and  C_21
REMARK    8  A    between atoms: C_21  and  C_22
REMARK    9  A    between atoms: C_22  and  N_23
REMARK   10  A    between atoms: N_23  and  C_24
REMARK                            x       y       z     vdW  Elec       q    Type
REMARK                         _______ _______ _______ _____ _____    ______ ____
ROOT
ATOM      1  C   UNL     1       5.603   4.635  16.897  0.00  0.00    +0.000 C 
ENDROOT
BRANCH   1   9
ATOM      2  O   UNL     1       4.326   7.252  16.167  0.00  0.00    +0.000 OA
ATOM      3  C   UNL     1       4.097   6.656  17.196  0.00  0.00    +0.000 C 
ATOM      4  C   UNL     1       3.137   7.096  18.288  0.00  0.00    +0.000 C 
ATOM      5  C   UNL     1       2.371   8.204  18.315  0.00  0.00    +0.000 C 
ATOM      6  N   UNL     1       3.175   6.119  19.237  0.00  0.00    +0.000 N 
ATOM      7  C   UNL     1       4.054   5.118  18.870  0.00  0.00    +0.000 C 
ATOM      8  S   UNL     1       4.274   3.765  19.804  0.00  0.00    +0.000 S 
ATOM      9  N   UNL     1       4.640   5.459  17.662  0.00  0.00    +0.000 N 
ATOM     10  H   UNL     1       2.619   6.085  20.078  0.00  0.00    +0.000 HD
BRANCH   5  11
ATOM     11  C   UNL     1       1.495   8.588  19.418  0.00  0.00    +0.000 C 
ATOM     12  C   UNL     1       1.075   9.839  19.696  0.00  0.00    +0.000 C 
BRANCH  12  13
ATOM     13  C   UNL     1       0.248  10.196  20.891  0.00  0.00    +0.000 A 
ATOM     14  C   UNL     1      -0.555  11.349  20.863  0.00  0.00    +0.000 A 
ATOM     15  C   UNL     1      -1.318  11.723  21.979  0.00  0.00    +0.000 A 
ATOM     16  C   UNL     1      -1.312  10.936  23.122  0.00  0.00    +0.000 A 
ATOM     17  C   UNL     1      -0.554   9.764  23.151  0.00  0.00    +0.000 A 
ATOM     18  C   UNL     1       0.208   9.390  22.034  0.00  0.00    +0.000 A 
ENDBRANCH  12  13
ENDBRANCH   5  11
ENDBRANCH   1   9
BRANCH   1  19
ATOM     19  C   UNL     1       7.096   4.986  17.171  0.00  0.00    +0.000 C 
BRANCH  19  20
ATOM     20  C   UNL     1       7.453   6.460  16.846  0.00  0.00    +0.000 C 
BRANCH  20  21
ATOM     21  C   UNL     1       7.907   7.379  18.019  0.00  0.00    +0.000 C 
BRANCH  21  22
ATOM     22  C   UNL     1       8.151   8.910  17.865  0.00  0.00    +0.000 C 
BRANCH  22  23
ATOM     23  C   UNL     1       8.818   9.683  19.026  0.00  0.00    +0.000 C 
BRANCH  23  24
ATOM     24  N   UNL     1       9.860  10.628  18.573  0.00  0.00    +0.000 N 
ATOM     25  H   UNL     1      10.691  10.553  19.165  0.00  0.00    +0.000 HD
BRANCH  24  26
ATOM     26  C   UNL     1       9.738  12.030  18.196  0.00  0.00    +0.000 A 
ATOM     27  C   UNL     1      10.824  12.360  17.387  0.00  0.00    +0.000 A 
ATOM     28  C   UNL     1      11.977  12.727  18.059  0.00  0.00    +0.000 A 
ATOM     29  N   UNL     1      11.970  13.097  19.359  0.00  0.00    +0.000 NA
ATOM     30  C   UNL     1      10.767  13.418  19.848  0.00  0.00    +0.000 A 
ATOM     31  C   UNL     1      10.696  14.356  20.863  0.00  0.00    +0.000 A 
ATOM     32  C   UNL     1       9.539  15.108  21.037  0.00  0.00    +0.000 A 
ATOM     33 CL   UNL     1       9.506  16.359  22.218  0.00  0.00    +0.000 Cl
ATOM     34  C   UNL     1       8.446  14.914  20.198  0.00  0.00    +0.000 A 
ATOM     35  C   UNL     1       8.458  13.849  19.291  0.00  0.00    +0.000 A 
ATOM     36  C   UNL     1       9.590  13.012  19.187  0.00  0.00    +0.000 A 
ENDBRANCH  24  26
ENDBRANCH  23  24
ENDBRANCH  22  23
ENDBRANCH  21  22
ENDBRANCH  20  21
ENDBRANCH  19  20
ENDBRANCH   1  19
TORSDOF 10
ENDMDL
MODEL 7
REMARK VINA RESULT:      -7.5      1.077      1.366
REMARK  Name = 
REMARK  10 active torsions:
REMARK  status: ('A' for Active; 'I' for Inactive)
REMARK    1  A    between atoms: C_4  and  C_5
REMARK    2  A    between atoms: C_6  and  C_7
REMARK    3  A    between atoms: N_16  and  C_17
REMARK    4  A    between atoms: C_17  and  C_18
REMARK    5  A    between atoms: C_18  and  C_19
REMARK    6  A    between atoms: C_19  and  C_20
REMARK    7  A    between atoms: C_20  and  C_21
REMARK    8  A    between atoms: C_21  and  C_22
REMARK    9  A    between atoms: C_22  and  N_23
REMARK   10  A    between atoms: N_23  and  C_24
REMARK                            x       y       z     vdW  Elec       q    Type
REMARK                         _______ _______ _______ _____ _____    ______ ____
ROOT
ATOM      1  C   UNL     1       1.482   8.027  21.497  0.00  0.00    +0.000 C 
ENDROOT
BRANCH   1   9
ATOM      2  O   UNL     1       0.214  10.119  23.237  0.00  0.00    +0.000 OA
ATOM      3  C   UNL     1       0.380  10.247  22.045  0.00  0.00    +0.000 C 
ATOM      4  C   UNL     1       0.002  11.462  21.216  0.00  0.00    +0.000 C 
ATOM      5  C   UNL     1      -0.573  12.603  21.642  0.00  0.00    +0.000 C 
ATOM      6  N   UNL     1       0.392  11.182  19.941  0.00  0.00    +0.000 N 
ATOM      7  C   UNL     1       0.968   9.928  19.871  0.00  0.00    +0.000 C 
ATOM      8  S   UNL     1       1.590   9.331  18.455  0.00  0.00    +0.000 S 
ATOM      9  N   UNL     1       0.925   9.347  21.129  0.00  0.00    +0.000 N 
ATOM     10  H   UNL     1       0.322  11.803  19.148  0.00  0.00    +0.000 HD
BRANCH   5  11
ATOM     11  C   UNL     1      -0.947  13.722  20.781  0.00  0.00    +0.000 C 
ATOM     12  C   UNL     1      -0.819  15.030  21.084  0.00  0.00    +0.000 C 
BRANCH  12  13
ATOM     13  C   UNL     1      -1.299  16.142  20.205  0.00  0.00    +0.000 A 
ATOM     14  C   UNL     1      -2.480  16.830  20.533  0.00  0.00    +0.000 A 
ATOM     15  C   UNL     1      -2.968  17.856  19.712  0.00  0.00    +0.000 A 
ATOM     16  C   UNL     1      -2.270  18.228  18.571  0.00  0.00    +0.000 A 
ATOM     17  C   UNL     1      -1.072  17.585  18.255  0.00  0.00    +0.000 A 
ATOM     18  C   UNL     1      -0.583  16.559  19.078  0.00  0.00    +0.000 A 
ENDBRANCH  12  13
ENDBRANCH   5  11
ENDBRANCH   1   9
BRANCH   1  19
ATOM     19  C   UNL     1       1.263   6.923  20.419  0.00  0.00    +0.000 C 
BRANCH  19  20
ATOM     20  C   UNL     1       2.291   5.765  20.504  0.00  0.00    +0.000 C 
BRANCH  20  21
ATOM     21  C   UNL     1       1.800   4.387  21.040  0.00  0.00    +0.000 C 
BRANCH  21  22
ATOM     22  C   UNL     1       0.732   3.515  20.315  0.00  0.00    +0.000 C 
BRANCH  22  23
ATOM     23  C   UNL     1       1.076   2.901  18.939  0.00  0.00    +0.000 C 
BRANCH  23  24
ATOM     24  N   UNL     1       1.899   3.792  18.094  0.00  0.00    +0.000 N 
ATOM     25  H   UNL     1       1.310   4.281  17.414  0.00  0.00    +0.000 HD
BRANCH  24  26
ATOM     26  C   UNL     1       3.172   3.529  17.436  0.00  0.00    +0.000 A 
ATOM     27  C   UNL     1       3.595   2.251  17.799  0.00  0.00    +0.000 A 
ATOM     28  C   UNL     1       4.290   2.170  18.993  0.00  0.00    +0.000 A 
ATOM     29  N   UNL     1       4.841   3.254  19.584  0.00  0.00    +0.000 NA
ATOM     30  C   UNL     1       4.975   4.323  18.790  0.00  0.00    +0.000 A 
ATOM     31  C   UNL     1       6.021   5.197  19.033  0.00  0.00    +0.000 A 
ATOM     32  C   UNL     1       6.533   5.973  17.998  0.00  0.00    +0.000 A 
ATOM     33 CL   UNL     1       7.913   6.961  18.279  0.00  0.00    +0.000 Cl
ATOM     34  C   UNL     1       5.993   5.879  16.719  0.00  0.00    +0.000 A 
ATOM     35  C   UNL     1       4.830   5.128  16.519  0.00  0.00    +0.000 A 
ATOM     36  C   UNL     1       4.240   4.426  17.592  0.00  0.00    +0.000 A 
ENDBRANCH  24  26
ENDBRANCH  23  24
ENDBRANCH  22  23
ENDBRANCH  21  22
ENDBRANCH  20  21
ENDBRANCH  19  20
ENDBRANCH   1  19
TORSDOF 10
ENDMDL
MODEL 8
REMARK VINA RESULT:      -7.5      5.005      6.896
REMARK  Name = 
REMARK  10 active torsions:
REMARK  status: ('A' for Active; 'I' for Inactive)
REMARK    1  A    between atoms: C_4  and  C_5
REMARK    2  A    between atoms: C_6  and  C_7
REMARK    3  A    between atoms: N_16  and  C_17
REMARK    4  A    between atoms: C_17  and  C_18
REMARK    5  A    between atoms: C_18  and  C_19
REMARK    6  A    between atoms: C_19  and  C_20
REMARK    7  A    between atoms: C_20  and  C_21
REMARK    8  A    between atoms: C_21  and  C_22
REMARK    9  A    between atoms: C_22  and  N_23
REMARK   10  A    between atoms: N_23  and  C_24
REMARK                            x       y       z     vdW  Elec       q    Type
REMARK                         _______ _______ _______ _____ _____    ______ ____
ROOT
ATOM      1  C   UNL     1       6.348   4.659  17.852  0.00  0.00    +0.000 C 
ENDROOT
BRANCH   1   9
ATOM      2  O   UNL     1       8.562   5.970  19.399  0.00  0.00    +0.000 OA
ATOM      3  C   UNL     1       7.872   6.550  18.591  0.00  0.00    +0.000 C 
ATOM      4  C   UNL     1       7.991   8.013  18.200  0.00  0.00    +0.000 C 
ATOM      5  C   UNL     1       8.872   8.920  18.665  0.00  0.00    +0.000 C 
ATOM      6  N   UNL     1       7.040   8.225  17.248  0.00  0.00    +0.000 N 
ATOM      7  C   UNL     1       6.332   7.066  16.999  0.00  0.00    +0.000 C 
ATOM      8  S   UNL     1       5.140   7.001  15.847  0.00  0.00    +0.000 S 
ATOM      9  N   UNL     1       6.804   6.066  17.835  0.00  0.00    +0.000 N 
ATOM     10  H   UNL     1       6.882   9.088  16.748  0.00  0.00    +0.000 HD
BRANCH   5  11
ATOM     11  C   UNL     1       8.908  10.327  18.273  0.00  0.00    +0.000 C 
ATOM     12  C   UNL     1       9.740  11.265  18.769  0.00  0.00    +0.000 C 
BRANCH  12  13
ATOM     13  C   UNL     1       9.680  12.714  18.400  0.00  0.00    +0.000 A 
ATOM     14  C   UNL     1      10.757  13.305  17.717  0.00  0.00    +0.000 A 
ATOM     15  C   UNL     1      10.739  14.666  17.385  0.00  0.00    +0.000 A 
ATOM     16  C   UNL     1       9.637  15.447  17.702  0.00  0.00    +0.000 A 
ATOM     17  C   UNL     1       8.540  14.867  18.341  0.00  0.00    +0.000 A 
ATOM     18  C   UNL     1       8.557  13.503  18.673  0.00  0.00    +0.000 A 
ENDBRANCH  12  13
ENDBRANCH   5  11
ENDBRANCH   1   9
BRANCH   1  19
ATOM     19  C   UNL     1       6.579   3.901  16.511  0.00  0.00    +0.000 C 
BRANCH  19  20
ATOM     20  C   UNL     1       5.326   3.135  16.010  0.00  0.00    +0.000 C 
BRANCH  20  21
ATOM     21  C   UNL     1       4.110   3.010  16.975  0.00  0.00    +0.000 C 
BRANCH  21  22
ATOM     22  C   UNL     1       4.018   1.942  18.105  0.00  0.00    +0.000 C 
BRANCH  22  23
ATOM     23  C   UNL     1       4.183   2.390  19.575  0.00  0.00    +0.000 C 
BRANCH  23  24
ATOM     24  N   UNL     1       2.916   2.367  20.336  0.00  0.00    +0.000 N 
ATOM     25  H   UNL     1       2.420   1.486  20.175  0.00  0.00    +0.000 HD
BRANCH  24  26
ATOM     26  C   UNL     1       1.901   3.402  20.476  0.00  0.00    +0.000 A 
ATOM     27  C   UNL     1       0.688   2.888  20.018  0.00  0.00    +0.000 A 
ATOM     28  C   UNL     1       0.478   2.982  18.653  0.00  0.00    +0.000 A 
ATOM     29  N   UNL     1       1.193   3.817  17.867  0.00  0.00    +0.000 NA
ATOM     30  C   UNL     1       1.857   4.778  18.521  0.00  0.00    +0.000 A 
ATOM     31  C   UNL     1       2.071   5.985  17.878  0.00  0.00    +0.000 A 
ATOM     32  C   UNL     1       2.246   7.148  18.622  0.00  0.00    +0.000 A 
ATOM     33 CL   UNL     1       2.386   8.661  17.814  0.00  0.00    +0.000 Cl
ATOM     34  C   UNL     1       2.215   7.101  20.012  0.00  0.00    +0.000 A 
ATOM     35  C   UNL     1       2.173   5.859  20.656  0.00  0.00    +0.000 A 
ATOM     36  C   UNL     1       2.106   4.667  19.904  0.00  0.00    +0.000 A 
ENDBRANCH  24  26
ENDBRANCH  23  24
ENDBRANCH  22  23
ENDBRANCH  21  22
ENDBRANCH  20  21
ENDBRANCH  19  20
ENDBRANCH   1  19
TORSDOF 10
ENDMDL
MODEL 9
REMARK VINA RESULT:      -7.4      5.390      7.993
REMARK  Name = 
REMARK  10 active torsions:
REMARK  status: ('A' for Active; 'I' for Inactive)
REMARK    1  A    between atoms: C_4  and  C_5
REMARK    2  A    between atoms: C_6  and  C_7
REMARK    3  A    between atoms: N_16  and  C_17
REMARK    4  A    between atoms: C_17  and  C_18
REMARK    5  A    between atoms: C_18  and  C_19
REMARK    6  A    between atoms: C_19  and  C_20
REMARK    7  A    between atoms: C_20  and  C_21
REMARK    8  A    between atoms: C_21  and  C_22
REMARK    9  A    between atoms: C_22  and  N_23
REMARK   10  A    between atoms: N_23  and  C_24
REMARK                            x       y       z     vdW  Elec       q    Type
REMARK                         _______ _______ _______ _____ _____    ______ ____
ROOT
ATOM      1  C   UNL     1       4.680   4.666  18.274  0.00  0.00    +0.000 C 
ENDROOT
BRANCH   1   9
ATOM      2  O   UNL     1       4.502   7.156  16.606  0.00  0.00    +0.000 OA
ATOM      3  C   UNL     1       3.814   6.949  17.580  0.00  0.00    +0.000 C 
ATOM      4  C   UNL     1       2.744   7.876  18.132  0.00  0.00    +0.000 C 
ATOM      5  C   UNL     1       2.365   9.075  17.649  0.00  0.00    +0.000 C 
ATOM      6  N   UNL     1       2.211   7.234  19.209  0.00  0.00    +0.000 N 
ATOM      7  C   UNL     1       2.826   6.013  19.403  0.00  0.00    +0.000 C 
ATOM      8  S   UNL     1       2.352   4.979  20.610  0.00  0.00    +0.000 S 
ATOM      9  N   UNL     1       3.819   5.857  18.448  0.00  0.00    +0.000 N 
ATOM     10  H   UNL     1       1.445   7.564  19.777  0.00  0.00    +0.000 HD
BRANCH   5  11
ATOM     11  C   UNL     1       1.352   9.936  18.252  0.00  0.00    +0.000 C 
ATOM     12  C   UNL     1       0.023   9.706  18.263  0.00  0.00    +0.000 C 
BRANCH  12  13
ATOM     13  C   UNL     1      -0.986  10.662  18.817  0.00  0.00    +0.000 A 
ATOM     14  C   UNL     1      -0.784  11.229  20.087  0.00  0.00    +0.000 A 
ATOM     15  C   UNL     1      -1.727  12.106  20.643  0.00  0.00    +0.000 A 
ATOM     16  C   UNL     1      -2.865  12.450  19.927  0.00  0.00    +0.000 A 
ATOM     17  C   UNL     1      -3.059  11.930  18.646  0.00  0.00    +0.000 A 
ATOM     18  C   UNL     1      -2.115  11.054  18.090  0.00  0.00    +0.000 A 
ENDBRANCH  12  13
ENDBRANCH   5  11
ENDBRANCH   1   9
BRANCH   1  19
ATOM     19  C   UNL     1       6.132   4.850  18.806  0.00  0.00    +0.000 C 
BRANCH  19  20
ATOM     20  C   UNL     1       7.036   5.680  17.857  0.00  0.00    +0.000 C 
BRANCH  20  21
ATOM     21  C   UNL     1       7.956   6.769  18.486  0.00  0.00    +0.000 C 
BRANCH  21  22
ATOM     22  C   UNL     1       8.074   8.218  17.929  0.00  0.00    +0.000 C 
BRANCH  22  23
ATOM     23  C   UNL     1       8.874   9.267  18.735  0.00  0.00    +0.000 C 
BRANCH  23  24
ATOM     24  N   UNL     1       8.470  10.658  18.440  0.00  0.00    +0.000 N 
ATOM     25  H   UNL     1       7.617  10.669  17.874  0.00  0.00    +0.000 HD
BRANCH  24  26
ATOM     26  C   UNL     1       9.282  11.785  18.000  0.00  0.00    +0.000 A 
ATOM     27  C   UNL     1      10.616  11.381  17.986  0.00  0.00    +0.000 A 
ATOM     28  C   UNL     1      11.282  11.482  19.195  0.00  0.00    +0.000 A 
ATOM     29  N   UNL     1      10.819  12.240  20.215  0.00  0.00    +0.000 NA
ATOM     30  C   UNL     1       9.891  13.141  19.872  0.00  0.00    +0.000 A 
ATOM     31  C   UNL     1       9.813  14.317  20.599  0.00  0.00    +0.000 A 
ATOM     32  C   UNL     1       9.293  15.465  20.011  0.00  0.00    +0.000 A 
ATOM     33 CL   UNL     1       9.318  16.951  20.878  0.00  0.00    +0.000 Cl
ATOM     34  C   UNL     1       8.840  15.434  18.695  0.00  0.00    +0.000 A 
ATOM     35  C   UNL     1       8.759  14.208  18.026  0.00  0.00    +0.000 A 
ATOM     36  C   UNL     1       9.184  13.019  18.659  0.00  0.00    +0.000 A 
ENDBRANCH  24  26
ENDBRANCH  23  24
ENDBRANCH  22  23
ENDBRANCH  21  22
ENDBRANCH  20  21
ENDBRANCH  19  20
ENDBRANCH   1  19
TORSDOF 10
ENDMDL
