MODEL 1
REMARK VINA RESULT:      -7.7      0.000      0.000
REMARK  Name = 
REMARK  7 active torsions:
REMARK  status: ('A' for Active; 'I' for Inactive)
REMARK    1  A    between atoms: C_1  and  O_2
REMARK    2  A    between atoms: O_2  and  C_3
REMARK    3  A    between atoms: C_8  and  N_9
REMARK    4  A    between atoms: C_13  and  C_15
REMARK    5  A    between atoms: C_16  and  C_17
REMARK    6  A    between atoms: C_20  and  O_21
REMARK    7  A    between atoms: C_22  and  O_23
REMARK                            x       y       z     vdW  Elec       q    Type
REMARK                         _______ _______ _______ _____ _____    ______ ____
ROOT
ATOM      1  N   UNL     1      -0.855  11.305  21.381  0.00  0.00    +0.000 N 
ATOM      2  C   UNL     1      -1.164  11.359  19.944  0.00  0.00    +0.000 C 
ATOM      3  C   UNL     1       0.136  11.126  19.152  0.00  0.00    +0.000 C 
ATOM      4  N   UNL     1       0.818   9.879  19.551  0.00  0.00    +0.000 N 
ATOM      5  C   UNL     1       1.545   9.201  18.593  0.00  0.00    +0.000 C 
ATOM      6  O   UNL     1       1.614   9.572  17.400  0.00  0.00    +0.000 OA
ATOM      7  C   UNL     1       0.992   9.700  21.012  0.00  0.00    +0.000 C 
ATOM      8  C   UNL     1      -0.257  10.052  21.839  0.00  0.00    +0.000 C 
ENDROOT
BRANCH   1  14
ATOM      9  C   UNL     1      -0.659  13.394  22.688  0.00  0.00    +0.000 A 
ATOM     10  C   UNL     1      -1.237  14.304  23.578  0.00  0.00    +0.000 A 
ATOM     11  C   UNL     1      -2.481  14.075  24.125  0.00  0.00    +0.000 A 
ATOM     12  C   UNL     1      -3.176  12.927  23.781  0.00  0.00    +0.000 A 
ATOM     13  C   UNL     1      -2.629  12.023  22.864  0.00  0.00    +0.000 A 
ATOM     14  C   UNL     1      -1.357  12.223  22.289  0.00  0.00    +0.000 A 
BRANCH   9  16
ATOM     15  C   UNL     1       0.674  14.624  21.175  0.00  0.00    +0.000 C 
ATOM     16  O   UNL     1       0.618  13.661  22.232  0.00  0.00    +0.000 OA
ENDBRANCH   9  16
ENDBRANCH   1  14
BRANCH   5  17
ATOM     17  C   UNL     1       2.218   7.948  19.008  0.00  0.00    +0.000 C 
ATOM     18  C   UNL     1       2.678   7.058  18.119  0.00  0.00    +0.000 C 
BRANCH  18  19
ATOM     19  C   UNL     1       3.240   5.764  18.539  0.00  0.00    +0.000 A 
ATOM     20  C   UNL     1       2.435   4.836  19.216  0.00  0.00    +0.000 A 
ATOM     21  C   UNL     1       2.967   3.620  19.666  0.00  0.00    +0.000 A 
ATOM     22  C   UNL     1       4.311   3.344  19.448  0.00  0.00    +0.000 A 
ATOM     23  C   UNL     1       5.118   4.265  18.790  0.00  0.00    +0.000 A 
ATOM     24  C   UNL     1       4.598   5.468  18.339  0.00  0.00    +0.000 A 
BRANCH  22  25
ATOM     25  O   UNL     1       4.891   2.180  19.870  0.00  0.00    +0.000 OA
ATOM     26  H   UNL     1       4.882   1.551  19.128  0.00  0.00    +0.000 HD
ENDBRANCH  22  25
BRANCH  23  27
ATOM     27  O   UNL     1       6.442   3.997  18.590  0.00  0.00    +0.000 OA
ATOM     28  H   UNL     1       6.581   4.151  17.635  0.00  0.00    +0.000 HD
ENDBRANCH  23  27
ENDBRANCH  18  19
ENDBRANCH   5  17
TORSDOF 6
ENDMDL
MODEL 2
REMARK VINA RESULT:      -7.4      0.643      1.314
REMARK  Name = 
REMARK  7 active torsions:
REMARK  status: ('A' for Active; 'I' for Inactive)
REMARK    1  A    between atoms: C_1  and  O_2
REMARK    2  A    between atoms: O_2  and  C_3
REMARK    3  A    between atoms: C_8  and  N_9
REMARK    4  A    between atoms: C_13  and  C_15
REMARK    5  A    between atoms: C_16  and  C_17
REMARK    6  A    between atoms: C_20  and  O_21
REMARK    7  A    between atoms: C_22  and  O_23
REMARK                            x       y       z     vdW  Elec       q    Type
REMARK                         _______ _______ _______ _____ _____    ______ ____
ROOT
ATOM      1  N   UNL     1      -0.798  11.250  21.327  0.00  0.00    +0.000 N 
ATOM      2  C   UNL     1      -1.099  11.280  19.887  0.00  0.00    +0.000 C 
ATOM      3  C   UNL     1       0.202  11.019  19.106  0.00  0.00    +0.000 C 
ATOM      4  N   UNL     1       0.870   9.773  19.532  0.00  0.00    +0.000 N 
ATOM      5  C   UNL     1       1.594   9.070  18.590  0.00  0.00    +0.000 C 
ATOM      6  O   UNL     1       1.672   9.419  17.391  0.00  0.00    +0.000 OA
ATOM      7  C   UNL     1       1.034   9.620  20.997  0.00  0.00    +0.000 C 
ATOM      8  C   UNL     1      -0.215   9.999  21.810  0.00  0.00    +0.000 C 
ENDROOT
BRANCH   1  14
ATOM      9  C   UNL     1      -0.615  13.391  22.547  0.00  0.00    +0.000 A 
ATOM     10  C   UNL     1      -1.188  14.320  23.421  0.00  0.00    +0.000 A 
ATOM     11  C   UNL     1      -2.408  14.082  24.015  0.00  0.00    +0.000 A 
ATOM     12  C   UNL     1      -3.084  12.905  23.737  0.00  0.00    +0.000 A 
ATOM     13  C   UNL     1      -2.543  11.980  22.838  0.00  0.00    +0.000 A 
ATOM     14  C   UNL     1      -1.295  12.189  22.215  0.00  0.00    +0.000 A 
BRANCH   9  16
ATOM     15  C   UNL     1       0.973  15.063  22.039  0.00  0.00    +0.000 C 
ATOM     16  O   UNL     1       0.640  13.672  22.041  0.00  0.00    +0.000 OA
ENDBRANCH   9  16
ENDBRANCH   1  14
BRANCH   5  17
ATOM     17  C   UNL     1       2.251   7.818  19.031  0.00  0.00    +0.000 C 
ATOM     18  C   UNL     1       2.771   6.941  18.162  0.00  0.00    +0.000 C 
BRANCH  18  19
ATOM     19  C   UNL     1       3.318   5.647  18.602  0.00  0.00    +0.000 A 
ATOM     20  C   UNL     1       4.689   5.521  18.873  0.00  0.00    +0.000 A 
ATOM     21  C   UNL     1       5.234   4.286  19.246  0.00  0.00    +0.000 A 
ATOM     22  C   UNL     1       4.404   3.175  19.333  0.00  0.00    +0.000 A 
ATOM     23  C   UNL     1       3.048   3.289  19.053  0.00  0.00    +0.000 A 
ATOM     24  C   UNL     1       2.500   4.510  18.687  0.00  0.00    +0.000 A 
BRANCH  22  25
ATOM     25  O   UNL     1       4.877   1.941  19.683  0.00  0.00    +0.000 OA
ATOM     26  H   UNL     1       5.661   1.751  19.141  0.00  0.00    +0.000 HD
ENDBRANCH  22  25
BRANCH  23  27
ATOM     27  O   UNL     1       2.237   2.193  19.126  0.00  0.00    +0.000 OA
ATOM     28  H   UNL     1       1.372   2.506  18.795  0.00  0.00    +0.000 HD
ENDBRANCH  23  27
ENDBRANCH  18  19
ENDBRANCH   5  17
TORSDOF 6
ENDMDL
MODEL 3
REMARK VINA RESULT:      -7.2      2.212      3.359
REMARK  Name = 
REMARK  7 active torsions:
REMARK  status: ('A' for Active; 'I' for Inactive)
REMARK    1  A    between atoms: C_1  and  O_2
REMARK    2  A    between atoms: O_2  and  C_3
REMARK    3  A    between atoms: C_8  and  N_9
REMARK    4  A    between atoms: C_13  and  C_15
REMARK    5  A    between atoms: C_16  and  C_17
REMARK    6  A    between atoms: C_20  and  O_21
REMARK    7  A    between atoms: C_22  and  O_23
REMARK                            x       y       z     vdW  Elec       q    Type
REMARK                         _______ _______ _______ _____ _____    ______ ____
ROOT
ATOM      1  N   UNL     1       0.188  10.541  21.030  0.00  0.00    +0.000 N 
ATOM      2  C   UNL     1       0.421   9.578  22.118  0.00  0.00    +0.000 C 
ATOM      3  C   UNL     1       0.446   8.158  21.523  0.00  0.00    +0.000 C 
ATOM      4  N   UNL     1       1.419   8.031  20.420  0.00  0.00    +0.000 N 
ATOM      5  C   UNL     1       2.034   6.809  20.234  0.00  0.00    +0.000 C 
ATOM      6  O   UNL     1       1.835   5.825  20.981  0.00  0.00    +0.000 OA
ATOM      7  C   UNL     1       1.335   9.089  19.386  0.00  0.00    +0.000 C 
ATOM      8  C   UNL     1       1.179  10.510  19.955  0.00  0.00    +0.000 C 
ENDROOT
BRANCH   1  14
ATOM      9  C   UNL     1      -1.733  11.853  20.198  0.00  0.00    +0.000 A 
ATOM     10  C   UNL     1      -2.628  12.910  20.388  0.00  0.00    +0.000 A 
ATOM     11  C   UNL     1      -2.516  13.755  21.471  0.00  0.00    +0.000 A 
ATOM     12  C   UNL     1      -1.503  13.549  22.394  0.00  0.00    +0.000 A 
ATOM     13  C   UNL     1      -0.621  12.475  22.239  0.00  0.00    +0.000 A 
ATOM     14  C   UNL     1      -0.703  11.594  21.141  0.00  0.00    +0.000 A 
BRANCH   9  16
ATOM     15  C   UNL     1      -1.744  11.828  17.837  0.00  0.00    +0.000 C 
ATOM     16  O   UNL     1      -1.872  11.089  19.055  0.00  0.00    +0.000 OA
ENDBRANCH   9  16
ENDBRANCH   1  14
BRANCH   5  17
ATOM     17  C   UNL     1       3.013   6.699  19.127  0.00  0.00    +0.000 C 
ATOM     18  C   UNL     1       3.727   5.587  18.915  0.00  0.00    +0.000 C 
BRANCH  18  19
ATOM     19  C   UNL     1       4.779   5.527  17.887  0.00  0.00    +0.000 A 
ATOM     20  C   UNL     1       4.543   6.060  16.611  0.00  0.00    +0.000 A 
ATOM     21  C   UNL     1       5.516   5.969  15.606  0.00  0.00    +0.000 A 
ATOM     22  C   UNL     1       6.718   5.329  15.880  0.00  0.00    +0.000 A 
ATOM     23  C   UNL     1       6.953   4.787  17.137  0.00  0.00    +0.000 A 
ATOM     24  C   UNL     1       5.997   4.878  18.138  0.00  0.00    +0.000 A 
BRANCH  22  25
ATOM     25  O   UNL     1       7.703   5.200  14.940  0.00  0.00    +0.000 OA
ATOM     26  H   UNL     1       8.013   4.279  14.950  0.00  0.00    +0.000 HD
ENDBRANCH  22  25
BRANCH  23  27
ATOM     27  O   UNL     1       8.130   4.147  17.399  0.00  0.00    +0.000 OA
ATOM     28  H   UNL     1       8.218   3.492  16.679  0.00  0.00    +0.000 HD
ENDBRANCH  23  27
ENDBRANCH  18  19
ENDBRANCH   5  17
TORSDOF 6
ENDMDL
MODEL 4
REMARK VINA RESULT:      -7.2      1.054      1.164
REMARK  Name = 
REMARK  7 active torsions:
REMARK  status: ('A' for Active; 'I' for Inactive)
REMARK    1  A    between atoms: C_1  and  O_2
REMARK    2  A    between atoms: O_2  and  C_3
REMARK    3  A    between atoms: C_8  and  N_9
REMARK    4  A    between atoms: C_13  and  C_15
REMARK    5  A    between atoms: C_16  and  C_17
REMARK    6  A    between atoms: C_20  and  O_21
REMARK    7  A    between atoms: C_22  and  O_23
REMARK                            x       y       z     vdW  Elec       q    Type
REMARK                         _______ _______ _______ _____ _____    ______ ____
ROOT
ATOM      1  N   UNL     1      -0.400  11.449  20.822  0.00  0.00    +0.000 N 
ATOM      2  C   UNL     1      -0.231  11.847  19.415  0.00  0.00    +0.000 C 
ATOM      3  C   UNL     1       1.096  11.265  18.894  0.00  0.00    +0.000 C 
ATOM      4  N   UNL     1       1.185   9.806  19.097  0.00  0.00    +0.000 N 
ATOM      5  C   UNL     1       1.903   9.065  18.180  0.00  0.00    +0.000 C 
ATOM      6  O   UNL     1       2.440   9.568  17.168  0.00  0.00    +0.000 OA
ATOM      7  C   UNL     1       0.848   9.342  20.464  0.00  0.00    +0.000 C 
ATOM      8  C   UNL     1      -0.406  10.006  21.060  0.00  0.00    +0.000 C 
ENDROOT
BRANCH   1  14
ATOM      9  C   UNL     1      -0.310  13.646  21.949  0.00  0.00    +0.000 A 
ATOM     10  C   UNL     1      -0.807  14.503  22.935  0.00  0.00    +0.000 A 
ATOM     11  C   UNL     1      -1.779  14.087  23.818  0.00  0.00    +0.000 A 
ATOM     12  C   UNL     1      -2.280  12.798  23.723  0.00  0.00    +0.000 A 
ATOM     13  C   UNL     1      -1.820  11.939  22.720  0.00  0.00    +0.000 A 
ATOM     14  C   UNL     1      -0.823  12.330  21.803  0.00  0.00    +0.000 A 
BRANCH   9  16
ATOM     15  C   UNL     1       1.795  14.713  21.856  0.00  0.00    +0.000 C 
ATOM     16  O   UNL     1       0.709  14.116  21.142  0.00  0.00    +0.000 OA
ENDBRANCH   9  16
ENDBRANCH   1  14
BRANCH   5  17
ATOM     17  C   UNL     1       1.976   7.600  18.393  0.00  0.00    +0.000 C 
ATOM     18  C   UNL     1       3.059   6.885  18.062  0.00  0.00    +0.000 C 
BRANCH  18  19
ATOM     19  C   UNL     1       3.079   5.417  18.170  0.00  0.00    +0.000 A 
ATOM     20  C   UNL     1       1.965   4.668  17.762  0.00  0.00    +0.000 A 
ATOM     21  C   UNL     1       1.950   3.274  17.903  0.00  0.00    +0.000 A 
ATOM     22  C   UNL     1       3.046   2.636  18.469  0.00  0.00    +0.000 A 
ATOM     23  C   UNL     1       4.147   3.373  18.888  0.00  0.00    +0.000 A 
ATOM     24  C   UNL     1       4.172   4.752  18.747  0.00  0.00    +0.000 A 
BRANCH  22  25
ATOM     25  O   UNL     1       3.088   1.280  18.642  0.00  0.00    +0.000 OA
ATOM     26  H   UNL     1       2.944   0.859  17.777  0.00  0.00    +0.000 HD
ENDBRANCH  22  25
BRANCH  23  27
ATOM     27  O   UNL     1       5.218   2.744  19.456  0.00  0.00    +0.000 OA
ATOM     28  H   UNL     1       5.944   3.396  19.398  0.00  0.00    +0.000 HD
ENDBRANCH  23  27
ENDBRANCH  18  19
ENDBRANCH   5  17
TORSDOF 6
ENDMDL
MODEL 5
REMARK VINA RESULT:      -7.1      1.563      2.002
REMARK  Name = 
REMARK  7 active torsions:
REMARK  status: ('A' for Active; 'I' for Inactive)
REMARK    1  A    between atoms: C_1  and  O_2
REMARK    2  A    between atoms: O_2  and  C_3
REMARK    3  A    between atoms: C_8  and  N_9
REMARK    4  A    between atoms: C_13  and  C_15
REMARK    5  A    between atoms: C_16  and  C_17
REMARK    6  A    between atoms: C_20  and  O_21
REMARK    7  A    between atoms: C_22  and  O_23
REMARK                            x       y       z     vdW  Elec       q    Type
REMARK                         _______ _______ _______ _____ _____    ______ ____
ROOT
ATOM      1  N   UNL     1      -0.887  11.515  20.564  0.00  0.00    +0.000 N 
ATOM      2  C   UNL     1      -0.609  11.895  19.170  0.00  0.00    +0.000 C 
ATOM      3  C   UNL     1       0.815  11.433  18.808  0.00  0.00    +0.000 C 
ATOM      4  N   UNL     1       1.019   9.994  19.068  0.00  0.00    +0.000 N 
ATOM      5  C   UNL     1       1.896   9.304  18.255  0.00  0.00    +0.000 C 
ATOM      6  O   UNL     1       2.488   9.834  17.288  0.00  0.00    +0.000 OA
ATOM      7  C   UNL     1       0.584   9.532  20.408  0.00  0.00    +0.000 C 
ATOM      8  C   UNL     1      -0.783  10.085  20.848  0.00  0.00    +0.000 C 
ENDROOT
BRANCH   1  14
ATOM      9  C   UNL     1      -2.840  12.810  21.350  0.00  0.00    +0.000 A 
ATOM     10  C   UNL     1      -3.407  13.646  22.316  0.00  0.00    +0.000 A 
ATOM     11  C   UNL     1      -2.670  14.102  23.387  0.00  0.00    +0.000 A 
ATOM     12  C   UNL     1      -1.344  13.720  23.514  0.00  0.00    +0.000 A 
ATOM     13  C   UNL     1      -0.770  12.856  22.576  0.00  0.00    +0.000 A 
ATOM     14  C   UNL     1      -1.493  12.374  21.466  0.00  0.00    +0.000 A 
BRANCH   9  16
ATOM     15  C   UNL     1      -5.002  12.808  20.401  0.00  0.00    +0.000 C 
ATOM     16  O   UNL     1      -3.624  12.446  20.272  0.00  0.00    +0.000 OA
ENDBRANCH   9  16
ENDBRANCH   1  14
BRANCH   5  17
ATOM     17  C   UNL     1       2.084   7.860  18.524  0.00  0.00    +0.000 C 
ATOM     18  C   UNL     1       3.005   7.129  17.882  0.00  0.00    +0.000 C 
BRANCH  18  19
ATOM     19  C   UNL     1       3.106   5.673  18.072  0.00  0.00    +0.000 A 
ATOM     20  C   UNL     1       2.000   4.852  17.809  0.00  0.00    +0.000 A 
ATOM     21  C   UNL     1       2.065   3.470  18.030  0.00  0.00    +0.000 A 
ATOM     22  C   UNL     1       3.236   2.916  18.530  0.00  0.00    +0.000 A 
ATOM     23  C   UNL     1       4.332   3.725  18.806  0.00  0.00    +0.000 A 
ATOM     24  C   UNL     1       4.277   5.092  18.585  0.00  0.00    +0.000 A 
BRANCH  22  25
ATOM     25  O   UNL     1       3.360   1.577  18.775  0.00  0.00    +0.000 OA
ATOM     26  H   UNL     1       3.626   1.461  19.704  0.00  0.00    +0.000 HD
ENDBRANCH  22  25
BRANCH  23  27
ATOM     27  O   UNL     1       5.478   3.179  19.311  0.00  0.00    +0.000 OA
ATOM     28  H   UNL     1       6.198   3.683  18.883  0.00  0.00    +0.000 HD
ENDBRANCH  23  27
ENDBRANCH  18  19
ENDBRANCH   5  17
TORSDOF 6
ENDMDL
MODEL 6
REMARK VINA RESULT:      -7.1      7.222      9.643
REMARK  Name = 
REMARK  7 active torsions:
REMARK  status: ('A' for Active; 'I' for Inactive)
REMARK    1  A    between atoms: C_1  and  O_2
REMARK    2  A    between atoms: O_2  and  C_3
REMARK    3  A    between atoms: C_8  and  N_9
REMARK    4  A    between atoms: C_13  and  C_15
REMARK    5  A    between atoms: C_16  and  C_17
REMARK    6  A    between atoms: C_20  and  O_21
REMARK    7  A    between atoms: C_22  and  O_23
REMARK                            x       y       z     vdW  Elec       q    Type
REMARK                         _______ _______ _______ _____ _____    ______ ____
ROOT
ATOM      1  N   UNL     1       4.278   4.331  18.596  0.00  0.00    +0.000 N 
ATOM      2  C   UNL     1       5.243   3.802  17.619  0.00  0.00    +0.000 C 
ATOM      3  C   UNL     1       5.776   4.971  16.770  0.00  0.00    +0.000 C 
ATOM      4  N   UNL     1       6.329   6.059  17.600  0.00  0.00    +0.000 N 
ATOM      5  C   UNL     1       7.373   6.802  17.086  0.00  0.00    +0.000 C 
ATOM      6  O   UNL     1       7.893   6.567  15.972  0.00  0.00    +0.000 OA
ATOM      7  C   UNL     1       5.457   6.503  18.713  0.00  0.00    +0.000 C 
ATOM      8  C   UNL     1       4.809   5.350  19.499  0.00  0.00    +0.000 C 
ENDROOT
BRANCH   1  14
ATOM      9  C   UNL     1       2.833   2.885  19.985  0.00  0.00    +0.000 A 
ATOM     10  C   UNL     1       1.573   2.325  20.215  0.00  0.00    +0.000 A 
ATOM     11  C   UNL     1       0.530   2.530  19.338  0.00  0.00    +0.000 A 
ATOM     12  C   UNL     1       0.731   3.311  18.211  0.00  0.00    +0.000 A 
ATOM     13  C   UNL     1       1.975   3.908  17.983  0.00  0.00    +0.000 A 
ATOM     14  C   UNL     1       3.065   3.717  18.856  0.00  0.00    +0.000 A 
BRANCH   9  16
ATOM     15  C   UNL     1       4.715   1.534  20.441  0.00  0.00    +0.000 C 
ATOM     16  O   UNL     1       3.845   2.582  20.876  0.00  0.00    +0.000 OA
ENDBRANCH   9  16
ENDBRANCH   1  14
BRANCH   5  17
ATOM     17  C   UNL     1       7.922   7.885  17.934  0.00  0.00    +0.000 C 
ATOM     18  C   UNL     1       8.038   9.145  17.496  0.00  0.00    +0.000 C 
BRANCH  18  19
ATOM     19  C   UNL     1       8.691  10.188  18.303  0.00  0.00    +0.000 A 
ATOM     20  C   UNL     1       9.149   9.890  19.595  0.00  0.00    +0.000 A 
ATOM     21  C   UNL     1       9.729  10.884  20.396  0.00  0.00    +0.000 A 
ATOM     22  C   UNL     1       9.835  12.178  19.903  0.00  0.00    +0.000 A 
ATOM     23  C   UNL     1       9.371  12.483  18.629  0.00  0.00    +0.000 A 
ATOM     24  C   UNL     1       8.800  11.505  17.830  0.00  0.00    +0.000 A 
BRANCH  22  25
ATOM     25  O   UNL     1      10.383  13.193  20.637  0.00  0.00    +0.000 OA
ATOM     26  H   UNL     1       9.879  14.005  20.457  0.00  0.00    +0.000 HD
ENDBRANCH  22  25
BRANCH  23  27
ATOM     27  O   UNL     1       9.464  13.760  18.152  0.00  0.00    +0.000 OA
ATOM     28  H   UNL     1       9.396  13.664  17.182  0.00  0.00    +0.000 HD
ENDBRANCH  23  27
ENDBRANCH  18  19
ENDBRANCH   5  17
TORSDOF 6
ENDMDL
MODEL 7
REMARK VINA RESULT:      -7.1      2.309      3.193
REMARK  Name = 
REMARK  7 active torsions:
REMARK  status: ('A' for Active; 'I' for Inactive)
REMARK    1  A    between atoms: C_1  and  O_2
REMARK    2  A    between atoms: O_2  and  C_3
REMARK    3  A    between atoms: C_8  and  N_9
REMARK    4  A    between atoms: C_13  and  C_15
REMARK    5  A    between atoms: C_16  and  C_17
REMARK    6  A    between atoms: C_20  and  O_21
REMARK    7  A    between atoms: C_22  and  O_23
REMARK                            x       y       z     vdW  Elec       q    Type
REMARK                         _______ _______ _______ _____ _____    ______ ____
ROOT
ATOM      1  N   UNL     1       0.567  10.721  20.530  0.00  0.00    +0.000 N 
ATOM      2  C   UNL     1       0.784   9.865  21.707  0.00  0.00    +0.000 C 
ATOM      3  C   UNL     1       0.639   8.393  21.278  0.00  0.00    +0.000 C 
ATOM      4  N   UNL     1       1.520   8.052  20.143  0.00  0.00    +0.000 N 
ATOM      5  C   UNL     1       2.007   6.763  20.063  0.00  0.00    +0.000 C 
ATOM      6  O   UNL     1       1.770   5.890  20.928  0.00  0.00    +0.000 OA
ATOM      7  C   UNL     1       1.463   8.995  19.001  0.00  0.00    +0.000 C 
ATOM      8  C   UNL     1       1.476  10.478  19.412  0.00  0.00    +0.000 C 
ENDROOT
BRANCH   1  14
ATOM      9  C   UNL     1       0.260  13.123  21.025  0.00  0.00    +0.000 A 
ATOM     10  C   UNL     1      -0.568  14.250  21.003  0.00  0.00    +0.000 A 
ATOM     11  C   UNL     1      -1.876  14.167  20.580  0.00  0.00    +0.000 A 
ATOM     12  C   UNL     1      -2.380  12.946  20.160  0.00  0.00    +0.000 A 
ATOM     13  C   UNL     1      -1.557  11.816  20.141  0.00  0.00    +0.000 A 
ATOM     14  C   UNL     1      -0.215  11.863  20.571  0.00  0.00    +0.000 A 
BRANCH   9  16
ATOM     15  C   UNL     1       2.236  14.416  21.017  0.00  0.00    +0.000 C 
ATOM     16  O   UNL     1       1.540  13.273  21.522  0.00  0.00    +0.000 OA
ENDBRANCH   9  16
ENDBRANCH   1  14
BRANCH   5  17
ATOM     17  C   UNL     1       2.895   6.438  18.922  0.00  0.00    +0.000 C 
ATOM     18  C   UNL     1       4.147   5.995  19.097  0.00  0.00    +0.000 C 
BRANCH  18  19
ATOM     19  C   UNL     1       5.059   5.786  17.961  0.00  0.00    +0.000 A 
ATOM     20  C   UNL     1       4.726   6.285  16.693  0.00  0.00    +0.000 A 
ATOM     21  C   UNL     1       5.560   6.053  15.591  0.00  0.00    +0.000 A 
ATOM     22  C   UNL     1       6.720   5.308  15.761  0.00  0.00    +0.000 A 
ATOM     23  C   UNL     1       7.050   4.800  17.012  0.00  0.00    +0.000 A 
ATOM     24  C   UNL     1       6.232   5.029  18.108  0.00  0.00    +0.000 A 
BRANCH  22  25
ATOM     25  O   UNL     1       7.570   5.040  14.724  0.00  0.00    +0.000 OA
ATOM     26  H   UNL     1       7.143   4.389  14.142  0.00  0.00    +0.000 HD
ENDBRANCH  22  25
BRANCH  23  27
ATOM     27  O   UNL     1       8.184   4.056  17.173  0.00  0.00    +0.000 OA
ATOM     28  H   UNL     1       8.415   3.763  16.270  0.00  0.00    +0.000 HD
ENDBRANCH  23  27
ENDBRANCH  18  19
ENDBRANCH   5  17
TORSDOF 6
ENDMDL
MODEL 8
REMARK VINA RESULT:      -7.0      5.724      9.203
REMARK  Name = 
REMARK  7 active torsions:
REMARK  status: ('A' for Active; 'I' for Inactive)
REMARK    1  A    between atoms: C_1  and  O_2
REMARK    2  A    between atoms: O_2  and  C_3
REMARK    3  A    between atoms: C_8  and  N_9
REMARK    4  A    between atoms: C_13  and  C_15
REMARK    5  A    between atoms: C_16  and  C_17
REMARK    6  A    between atoms: C_20  and  O_21
REMARK    7  A    between atoms: C_22  and  O_23
REMARK                            x       y       z     vdW  Elec       q    Type
REMARK                         _______ _______ _______ _____ _____    ______ ____
ROOT
ATOM      1  N   UNL     1       4.173   4.282  18.662  0.00  0.00    +0.000 N 
ATOM      2  C   UNL     1       5.098   3.705  17.674  0.00  0.00    +0.000 C 
ATOM      3  C   UNL     1       5.655   4.843  16.797  0.00  0.00    +0.000 C 
ATOM      4  N   UNL     1       6.265   5.921  17.601  0.00  0.00    +0.000 N 
ATOM      5  C   UNL     1       7.324   6.618  17.055  0.00  0.00    +0.000 C 
ATOM      6  O   UNL     1       7.811   6.349  15.935  0.00  0.00    +0.000 OA
ATOM      7  C   UNL     1       5.432   6.411  18.725  0.00  0.00    +0.000 C 
ATOM      8  C   UNL     1       4.759   5.294  19.540  0.00  0.00    +0.000 C 
ENDROOT
BRANCH   1  14
ATOM      9  C   UNL     1       2.070   4.216  19.958  0.00  0.00    +0.000 A 
ATOM     10  C   UNL     1       0.823   3.624  20.180  0.00  0.00    +0.000 A 
ATOM     11  C   UNL     1       0.419   2.519  19.463  0.00  0.00    +0.000 A 
ATOM     12  C   UNL     1       1.261   1.988  18.498  0.00  0.00    +0.000 A 
ATOM     13  C   UNL     1       2.497   2.588  18.238  0.00  0.00    +0.000 A 
ATOM     14  C   UNL     1       2.944   3.716  18.955  0.00  0.00    +0.000 A 
BRANCH   9  16
ATOM     15  C   UNL     1       1.556   6.410  20.663  0.00  0.00    +0.000 C 
ATOM     16  O   UNL     1       2.429   5.282  20.761  0.00  0.00    +0.000 OA
ENDBRANCH   9  16
ENDBRANCH   1  14
BRANCH   5  17
ATOM     17  C   UNL     1       7.930   7.692  17.877  0.00  0.00    +0.000 C 
ATOM     18  C   UNL     1       7.895   8.978  17.508  0.00  0.00    +0.000 C 
BRANCH  18  19
ATOM     19  C   UNL     1       8.598  10.022  18.271  0.00  0.00    +0.000 A 
ATOM     20  C   UNL     1       9.101   9.736  19.549  0.00  0.00    +0.000 A 
ATOM     21  C   UNL     1       9.731  10.731  20.309  0.00  0.00    +0.000 A 
ATOM     22  C   UNL     1       9.842  12.015  19.790  0.00  0.00    +0.000 A 
ATOM     23  C   UNL     1       9.335  12.308  18.530  0.00  0.00    +0.000 A 
ATOM     24  C   UNL     1       8.714  11.328  17.771  0.00  0.00    +0.000 A 
BRANCH  22  25
ATOM     25  O   UNL     1      10.438  13.031  20.485  0.00  0.00    +0.000 OA
ATOM     26  H   UNL     1      10.333  13.851  19.973  0.00  0.00    +0.000 HD
ENDBRANCH  22  25
BRANCH  23  27
ATOM     27  O   UNL     1       9.433  13.574  18.028  0.00  0.00    +0.000 OA
ATOM     28  H   UNL     1       8.530  13.786  17.720  0.00  0.00    +0.000 HD
ENDBRANCH  23  27
ENDBRANCH  18  19
ENDBRANCH   5  17
TORSDOF 6
ENDMDL
MODEL 9
REMARK VINA RESULT:      -6.9      6.814      9.518
REMARK  Name = 
REMARK  7 active torsions:
REMARK  status: ('A' for Active; 'I' for Inactive)
REMARK    1  A    between atoms: C_1  and  O_2
REMARK    2  A    between atoms: O_2  and  C_3
REMARK    3  A    between atoms: C_8  and  N_9
REMARK    4  A    between atoms: C_13  and  C_15
REMARK    5  A    between atoms: C_16  and  C_17
REMARK    6  A    between atoms: C_20  and  O_21
REMARK    7  A    between atoms: C_22  and  O_23
REMARK                            x       y       z     vdW  Elec       q    Type
REMARK                         _______ _______ _______ _____ _____    ______ ____
ROOT
ATOM      1  N   UNL     1       4.082   4.587  18.673  0.00  0.00    +0.000 N 
ATOM      2  C   UNL     1       5.299   3.975  18.118  0.00  0.00    +0.000 C 
ATOM      3  C   UNL     1       5.874   4.912  17.039  0.00  0.00    +0.000 C 
ATOM      4  N   UNL     1       6.094   6.281  17.547  0.00  0.00    +0.000 N 
ATOM      5  C   UNL     1       7.135   7.013  17.011  0.00  0.00    +0.000 C 
ATOM      6  O   UNL     1       7.920   6.553  16.151  0.00  0.00    +0.000 OA
ATOM      7  C   UNL     1       4.945   6.871  18.273  0.00  0.00    +0.000 C 
ATOM      8  C   UNL     1       4.271   5.910  19.267  0.00  0.00    +0.000 C 
ENDROOT
BRANCH   1  14
ATOM      9  C   UNL     1       2.715   3.049  20.041  0.00  0.00    +0.000 A 
ATOM     10  C   UNL     1       1.503   2.380  20.234  0.00  0.00    +0.000 A 
ATOM     11  C   UNL     1       0.487   2.462  19.307  0.00  0.00    +0.000 A 
ATOM     12  C   UNL     1       0.666   3.229  18.166  0.00  0.00    +0.000 A 
ATOM     13  C   UNL     1       1.858   3.933  17.974  0.00  0.00    +0.000 A 
ATOM     14  C   UNL     1       2.920   3.869  18.899  0.00  0.00    +0.000 A 
BRANCH   9  16
ATOM     15  C   UNL     1       4.549   1.735  20.739  0.00  0.00    +0.000 C 
ATOM     16  O   UNL     1       3.709   2.866  20.984  0.00  0.00    +0.000 OA
ENDBRANCH   9  16
ENDBRANCH   1  14
BRANCH   5  17
ATOM     17  C   UNL     1       7.348   8.381  17.536  0.00  0.00    +0.000 C 
ATOM     18  C   UNL     1       8.564   8.843  17.853  0.00  0.00    +0.000 C 
BRANCH  18  19
ATOM     19  C   UNL     1       8.753  10.160  18.481  0.00  0.00    +0.000 A 
ATOM     20  C   UNL     1       8.519  11.330  17.742  0.00  0.00    +0.000 A 
ATOM     21  C   UNL     1       8.739  12.592  18.310  0.00  0.00    +0.000 A 
ATOM     22  C   UNL     1       9.209  12.677  19.615  0.00  0.00    +0.000 A 
ATOM     23  C   UNL     1       9.455  11.523  20.349  0.00  0.00    +0.000 A 
ATOM     24  C   UNL     1       9.235  10.271  19.795  0.00  0.00    +0.000 A 
BRANCH  22  25
ATOM     25  O   UNL     1       9.452  13.878  20.223  0.00  0.00    +0.000 OA
ATOM     26  H   UNL     1      10.358  13.862  20.574  0.00  0.00    +0.000 HD
ENDBRANCH  22  25
BRANCH  23  27
ATOM     27  O   UNL     1       9.930  11.610  21.626  0.00  0.00    +0.000 OA
ATOM     28  H   UNL     1       9.204  11.265  22.181  0.00  0.00    +0.000 HD
ENDBRANCH  23  27
ENDBRANCH  18  19
ENDBRANCH   5  17
TORSDOF 6
ENDMDL
