MODEL 1
REMARK VINA RESULT:      -5.8      0.000      0.000
REMARK  Name = 
REMARK  8 active torsions:
REMARK  status: ('A' for Active; 'I' for Inactive)
REMARK    1  A    between atoms: N_1  and  C_2
REMARK    2  A    between atoms: C_2  and  C_3
REMARK    3  A    between atoms: C_3  and  C_4
REMARK    4  A    between atoms: C_4  and  P_5
REMARK    5  A    between atoms: P_5  and  O_7
REMARK    6  A    between atoms: P_5  and  C_8
REMARK    7  A    between atoms: C_8  and  C_9
REMARK    8  A    between atoms: C_9  and  C_10
REMARK                            x       y       z     vdW  Elec       q    Type
REMARK                         _______ _______ _______ _____ _____    ______ ____
ROOT
ATOM      1  P   UNL     1       3.305   4.243  18.106  0.00  0.00    +0.000 P 
ATOM      2  O   UNL     1       4.155   3.321  18.995  0.00  0.00    +0.000 OA
ENDROOT
BRANCH   1   3
ATOM      3  O   UNL     1       2.283   3.211  17.319  0.00  0.00    +0.000 OA
ATOM      4  H   UNL     1       2.224   2.353  17.797  0.00  0.00    +0.000 HD
ENDBRANCH   1   3
BRANCH   1   5
ATOM      5  C   UNL     1       2.052   4.361  19.434  0.00  0.00    +0.000 C 
BRANCH   5   6
ATOM      6  C   UNL     1       1.308   3.074  19.784  0.00  0.00    +0.000 C 
BRANCH   6   7
ATOM      7  C   UNL     1       1.318   2.747  21.271  0.00  0.00    +0.000 C 
BRANCH   7   8
ATOM      8  N   UNL     1       2.681   2.737  21.795  0.00  0.00    +0.000 NA
ATOM      9  H   UNL     1       2.687   2.274  22.703  0.00  0.00    +0.000 HD
ATOM     10  H   UNL     1       2.977   3.699  21.978  0.00  0.00    +0.000 HD
ENDBRANCH   7   8
ENDBRANCH   6   7
ENDBRANCH   5   6
ENDBRANCH   1   5
BRANCH   1  11
ATOM     11  C   UNL     1       4.558   4.124  16.777  0.00  0.00    +0.000 C 
BRANCH  11  12
ATOM     12  C   UNL     1       5.317   5.443  16.528  0.00  0.00    +0.000 C 
BRANCH  12  13
ATOM     13  C   UNL     1       6.841   5.294  16.446  0.00  0.00    +0.000 C 
ATOM     14  C   UNL     1       7.427   4.607  17.690  0.00  0.00    +0.000 C 
ATOM     15  C   UNL     1       7.428   5.521  18.914  0.00  0.00    +0.000 C 
ATOM     16  C   UNL     1       8.035   6.876  18.578  0.00  0.00    +0.000 C 
ATOM     17  C   UNL     1       7.419   7.464  17.317  0.00  0.00    +0.000 C 
ATOM     18  O   UNL     1       7.497   6.549  16.224  0.00  0.00    +0.000 OA
ENDBRANCH  12  13
ENDBRANCH  11  12
ENDBRANCH   1  11
TORSDOF 8
ENDMDL
MODEL 2
REMARK VINA RESULT:      -5.7      2.796      6.206
REMARK  Name = 
REMARK  8 active torsions:
REMARK  status: ('A' for Active; 'I' for Inactive)
REMARK    1  A    between atoms: N_1  and  C_2
REMARK    2  A    between atoms: C_2  and  C_3
REMARK    3  A    between atoms: C_3  and  C_4
REMARK    4  A    between atoms: C_4  and  P_5
REMARK    5  A    between atoms: P_5  and  O_7
REMARK    6  A    between atoms: P_5  and  C_8
REMARK    7  A    between atoms: C_8  and  C_9
REMARK    8  A    between atoms: C_9  and  C_10
REMARK                            x       y       z     vdW  Elec       q    Type
REMARK                         _______ _______ _______ _____ _____    ______ ____
ROOT
ATOM      1  P   UNL     1       5.817   4.640  17.491  0.00  0.00    +0.000 P 
ATOM      2  O   UNL     1       6.348   3.916  16.243  0.00  0.00    +0.000 OA
ENDROOT
BRANCH   1   3
ATOM      3  O   UNL     1       5.810   3.473  18.660  0.00  0.00    +0.000 OA
ATOM      4  H   UNL     1       4.954   3.476  19.144  0.00  0.00    +0.000 HD
ENDBRANCH   1   3
BRANCH   1   5
ATOM      5  C   UNL     1       7.534   5.030  17.989  0.00  0.00    +0.000 C 
BRANCH   5   6
ATOM      6  C   UNL     1       7.785   6.441  18.519  0.00  0.00    +0.000 C 
BRANCH   6   7
ATOM      7  C   UNL     1       7.467   7.538  17.512  0.00  0.00    +0.000 C 
BRANCH   7   8
ATOM      8  N   UNL     1       8.112   8.794  17.886  0.00  0.00    +0.000 NA
ATOM      9  H   UNL     1       7.585   9.228  18.642  0.00  0.00    +0.000 HD
ATOM     10  H   UNL     1       8.053   9.448  17.102  0.00  0.00    +0.000 HD
ENDBRANCH   7   8
ENDBRANCH   6   7
ENDBRANCH   5   6
ENDBRANCH   1   5
BRANCH   1  11
ATOM     11  C   UNL     1       4.100   4.250  16.992  0.00  0.00    +0.000 C 
BRANCH  11  12
ATOM     12  C   UNL     1       3.108   4.226  18.172  0.00  0.00    +0.000 C 
BRANCH  12  13
ATOM     13  C   UNL     1       2.495   2.851  18.460  0.00  0.00    +0.000 C 
ATOM     14  C   UNL     1       1.003   2.942  18.818  0.00  0.00    +0.000 C 
ATOM     15  C   UNL     1       0.773   3.507  20.218  0.00  0.00    +0.000 C 
ATOM     16  C   UNL     1       1.641   2.789  21.242  0.00  0.00    +0.000 C 
ATOM     17  C   UNL     1       3.092   2.720  20.789  0.00  0.00    +0.000 C 
ATOM     18  O   UNL     1       3.204   2.146  19.487  0.00  0.00    +0.000 OA
ENDBRANCH  12  13
ENDBRANCH  11  12
ENDBRANCH   1  11
TORSDOF 8
ENDMDL
MODEL 3
REMARK VINA RESULT:      -5.5      1.527      1.652
REMARK  Name = 
REMARK  8 active torsions:
REMARK  status: ('A' for Active; 'I' for Inactive)
REMARK    1  A    between atoms: N_1  and  C_2
REMARK    2  A    between atoms: C_2  and  C_3
REMARK    3  A    between atoms: C_3  and  C_4
REMARK    4  A    between atoms: C_4  and  P_5
REMARK    5  A    between atoms: P_5  and  O_7
REMARK    6  A    between atoms: P_5  and  C_8
REMARK    7  A    between atoms: C_8  and  C_9
REMARK    8  A    between atoms: C_9  and  C_10
REMARK                            x       y       z     vdW  Elec       q    Type
REMARK                         _______ _______ _______ _____ _____    ______ ____
ROOT
ATOM      1  P   UNL     1       3.790   3.035  18.908  0.00  0.00    +0.000 P 
ATOM      2  O   UNL     1       5.161   3.210  19.582  0.00  0.00    +0.000 OA
ENDROOT
BRANCH   1   3
ATOM      3  O   UNL     1       3.729   1.427  18.536  0.00  0.00    +0.000 OA
ATOM      4  H   UNL     1       4.267   0.906  19.172  0.00  0.00    +0.000 HD
ENDBRANCH   1   3
BRANCH   1   5
ATOM      5  C   UNL     1       3.052   2.618  20.530  0.00  0.00    +0.000 C 
BRANCH   5   6
ATOM      6  C   UNL     1       1.532   2.470  20.568  0.00  0.00    +0.000 C 
BRANCH   6   7
ATOM      7  C   UNL     1       0.837   2.992  19.318  0.00  0.00    +0.000 C 
BRANCH   7   8
ATOM      8  N   UNL     1       0.448   1.894  18.438  0.00  0.00    +0.000 NA
ATOM      9  H   UNL     1       1.277   1.527  17.974  0.00  0.00    +0.000 HD
ATOM     10  H   UNL     1      -0.146   2.258  17.689  0.00  0.00    +0.000 HD
ENDBRANCH   7   8
ENDBRANCH   6   7
ENDBRANCH   5   6
ENDBRANCH   1   5
BRANCH   1  11
ATOM     11  C   UNL     1       4.528   3.453  17.287  0.00  0.00    +0.000 C 
BRANCH  11  12
ATOM     12  C   UNL     1       5.029   4.908  17.195  0.00  0.00    +0.000 C 
BRANCH  12  13
ATOM     13  C   UNL     1       6.445   5.060  16.627  0.00  0.00    +0.000 C 
ATOM     14  C   UNL     1       7.524   4.609  17.625  0.00  0.00    +0.000 C 
ATOM     15  C   UNL     1       7.712   5.604  18.768  0.00  0.00    +0.000 C 
ATOM     16  C   UNL     1       7.877   7.020  18.232  0.00  0.00    +0.000 C 
ATOM     17  C   UNL     1       6.785   7.365  17.230  0.00  0.00    +0.000 C 
ATOM     18  O   UNL     1       6.713   6.396  16.185  0.00  0.00    +0.000 OA
ENDBRANCH  12  13
ENDBRANCH  11  12
ENDBRANCH   1  11
TORSDOF 8
ENDMDL
MODEL 4
REMARK VINA RESULT:      -5.5      2.325      5.786
REMARK  Name = 
REMARK  8 active torsions:
REMARK  status: ('A' for Active; 'I' for Inactive)
REMARK    1  A    between atoms: N_1  and  C_2
REMARK    2  A    between atoms: C_2  and  C_3
REMARK    3  A    between atoms: C_3  and  C_4
REMARK    4  A    between atoms: C_4  and  P_5
REMARK    5  A    between atoms: P_5  and  O_7
REMARK    6  A    between atoms: P_5  and  C_8
REMARK    7  A    between atoms: C_8  and  C_9
REMARK    8  A    between atoms: C_9  and  C_10
REMARK                            x       y       z     vdW  Elec       q    Type
REMARK                         _______ _______ _______ _____ _____    ______ ____
ROOT
ATOM      1  P   UNL     1       5.636   5.462  16.849  0.00  0.00    +0.000 P 
ATOM      2  O   UNL     1       4.378   6.155  17.397  0.00  0.00    +0.000 OA
ENDROOT
BRANCH   1   3
ATOM      3  O   UNL     1       5.674   5.902  15.257  0.00  0.00    +0.000 OA
ATOM      4  H   UNL     1       4.882   6.438  15.029  0.00  0.00    +0.000 HD
ENDBRANCH   1   3
BRANCH   1   5
ATOM      5  C   UNL     1       6.616   6.963  17.216  0.00  0.00    +0.000 C 
BRANCH   5   6
ATOM      6  C   UNL     1       7.730   6.812  18.249  0.00  0.00    +0.000 C 
BRANCH   6   7
ATOM      7  C   UNL     1       7.790   5.429  18.886  0.00  0.00    +0.000 C 
BRANCH   7   8
ATOM      8  N   UNL     1       8.085   5.523  20.313  0.00  0.00    +0.000 NA
ATOM      9  H   UNL     1       7.397   4.981  20.833  0.00  0.00    +0.000 HD
ATOM     10  H   UNL     1       7.958   6.491  20.619  0.00  0.00    +0.000 HD
ENDBRANCH   7   8
ENDBRANCH   6   7
ENDBRANCH   5   6
ENDBRANCH   1   5
BRANCH   1  11
ATOM     11  C   UNL     1       4.655   3.961  16.482  0.00  0.00    +0.000 C 
BRANCH  11  12
ATOM     12  C   UNL     1       4.046   3.302  17.736  0.00  0.00    +0.000 C 
BRANCH  12  13
ATOM     13  C   UNL     1       2.573   2.903  17.593  0.00  0.00    +0.000 C 
ATOM     14  C   UNL     1       1.639   4.124  17.560  0.00  0.00    +0.000 C 
ATOM     15  C   UNL     1       1.487   4.778  18.932  0.00  0.00    +0.000 C 
ATOM     16  C   UNL     1       1.156   3.739  19.994  0.00  0.00    +0.000 C 
ATOM     17  C   UNL     1       2.110   2.555  19.930  0.00  0.00    +0.000 C 
ATOM     18  O   UNL     1       2.155   1.994  18.619  0.00  0.00    +0.000 OA
ENDBRANCH  12  13
ENDBRANCH  11  12
ENDBRANCH   1  11
TORSDOF 8
ENDMDL
MODEL 5
REMARK VINA RESULT:      -5.5      3.390      6.316
REMARK  Name = 
REMARK  8 active torsions:
REMARK  status: ('A' for Active; 'I' for Inactive)
REMARK    1  A    between atoms: N_1  and  C_2
REMARK    2  A    between atoms: C_2  and  C_3
REMARK    3  A    between atoms: C_3  and  C_4
REMARK    4  A    between atoms: C_4  and  P_5
REMARK    5  A    between atoms: P_5  and  O_7
REMARK    6  A    between atoms: P_5  and  C_8
REMARK    7  A    between atoms: C_8  and  C_9
REMARK    8  A    between atoms: C_9  and  C_10
REMARK                            x       y       z     vdW  Elec       q    Type
REMARK                         _______ _______ _______ _____ _____    ______ ____
ROOT
ATOM      1  P   UNL     1       6.461   4.803  16.773  0.00  0.00    +0.000 P 
ATOM      2  O   UNL     1       7.890   4.412  17.180  0.00  0.00    +0.000 OA
ENDROOT
BRANCH   1   3
ATOM      3  O   UNL     1       6.539   6.439  16.554  0.00  0.00    +0.000 OA
ATOM      4  H   UNL     1       7.475   6.740  16.539  0.00  0.00    +0.000 HD
ENDBRANCH   1   3
BRANCH   1   5
ATOM      5  C   UNL     1       6.918   4.616  15.010  0.00  0.00    +0.000 C 
BRANCH   5   6
ATOM      6  C   UNL     1       5.806   4.169  14.063  0.00  0.00    +0.000 C 
BRANCH   6   7
ATOM      7  C   UNL     1       6.316   3.638  12.730  0.00  0.00    +0.000 C 
BRANCH   7   8
ATOM      8  N   UNL     1       5.217   3.124  11.917  0.00  0.00    +0.000 NA
ATOM      9  H   UNL     1       4.894   2.242  12.311  0.00  0.00    +0.000 HD
ATOM     10  H   UNL     1       5.568   2.894  10.984  0.00  0.00    +0.000 HD
ENDBRANCH   7   8
ENDBRANCH   6   7
ENDBRANCH   5   6
ENDBRANCH   1   5
BRANCH   1  11
ATOM     11  C   UNL     1       6.004   4.991  18.535  0.00  0.00    +0.000 C 
BRANCH  11  12
ATOM     12  C   UNL     1       4.702   4.257  18.914  0.00  0.00    +0.000 C 
BRANCH  12  13
ATOM     13  C   UNL     1       3.868   3.782  17.719  0.00  0.00    +0.000 C 
ATOM     14  C   UNL     1       2.499   4.478  17.651  0.00  0.00    +0.000 C 
ATOM     15  C   UNL     1       1.534   3.969  18.721  0.00  0.00    +0.000 C 
ATOM     16  C   UNL     1       1.488   2.448  18.730  0.00  0.00    +0.000 C 
ATOM     17  C   UNL     1       2.886   1.849  18.765  0.00  0.00    +0.000 C 
ATOM     18  O   UNL     1       3.697   2.359  17.707  0.00  0.00    +0.000 OA
ENDBRANCH  12  13
ENDBRANCH  11  12
ENDBRANCH   1  11
TORSDOF 8
ENDMDL
MODEL 6
REMARK VINA RESULT:      -5.5      2.785      6.112
REMARK  Name = 
REMARK  8 active torsions:
REMARK  status: ('A' for Active; 'I' for Inactive)
REMARK    1  A    between atoms: N_1  and  C_2
REMARK    2  A    between atoms: C_2  and  C_3
REMARK    3  A    between atoms: C_3  and  C_4
REMARK    4  A    between atoms: C_4  and  P_5
REMARK    5  A    between atoms: P_5  and  O_7
REMARK    6  A    between atoms: P_5  and  C_8
REMARK    7  A    between atoms: C_8  and  C_9
REMARK    8  A    between atoms: C_9  and  C_10
REMARK                            x       y       z     vdW  Elec       q    Type
REMARK                         _______ _______ _______ _____ _____    ______ ____
ROOT
ATOM      1  P   UNL     1       5.570   4.661  18.108  0.00  0.00    +0.000 P 
ATOM      2  O   UNL     1       6.734   4.229  17.203  0.00  0.00    +0.000 OA
ENDROOT
BRANCH   1   3
ATOM      3  O   UNL     1       5.536   3.512  19.294  0.00  0.00    +0.000 OA
ATOM      4  H   UNL     1       5.172   2.667  18.946  0.00  0.00    +0.000 HD
ENDBRANCH   1   3
BRANCH   1   5
ATOM      5  C   UNL     1       6.739   5.605  19.152  0.00  0.00    +0.000 C 
BRANCH   5   6
ATOM      6  C   UNL     1       7.839   6.371  18.420  0.00  0.00    +0.000 C 
BRANCH   6   7
ATOM      7  C   UNL     1       7.320   7.526  17.574  0.00  0.00    +0.000 C 
BRANCH   7   8
ATOM      8  N   UNL     1       8.045   8.758  17.870  0.00  0.00    +0.000 NA
ATOM      9  H   UNL     1       8.534   8.654  18.758  0.00  0.00    +0.000 HD
ATOM     10  H   UNL     1       7.373   9.516  18.016  0.00  0.00    +0.000 HD
ENDBRANCH   7   8
ENDBRANCH   6   7
ENDBRANCH   5   6
ENDBRANCH   1   5
BRANCH   1  11
ATOM     11  C   UNL     1       4.401   3.716  17.064  0.00  0.00    +0.000 C 
BRANCH  11  12
ATOM     12  C   UNL     1       3.608   2.647  17.841  0.00  0.00    +0.000 C 
BRANCH  12  13
ATOM     13  C   UNL     1       2.085   2.821  17.789  0.00  0.00    +0.000 C 
ATOM     14  C   UNL     1       1.663   4.294  17.914  0.00  0.00    +0.000 C 
ATOM     15  C   UNL     1       1.829   4.828  19.335  0.00  0.00    +0.000 C 
ATOM     16  C   UNL     1       1.193   3.885  20.347  0.00  0.00    +0.000 C 
ATOM     17  C   UNL     1       1.643   2.448  20.126  0.00  0.00    +0.000 C 
ATOM     18  O   UNL     1       1.415   2.033  18.780  0.00  0.00    +0.000 OA
ENDBRANCH  12  13
ENDBRANCH  11  12
ENDBRANCH   1  11
TORSDOF 8
ENDMDL
MODEL 7
REMARK VINA RESULT:      -5.5      2.570      5.998
REMARK  Name = 
REMARK  8 active torsions:
REMARK  status: ('A' for Active; 'I' for Inactive)
REMARK    1  A    between atoms: N_1  and  C_2
REMARK    2  A    between atoms: C_2  and  C_3
REMARK    3  A    between atoms: C_3  and  C_4
REMARK    4  A    between atoms: C_4  and  P_5
REMARK    5  A    between atoms: P_5  and  O_7
REMARK    6  A    between atoms: P_5  and  C_8
REMARK    7  A    between atoms: C_8  and  C_9
REMARK    8  A    between atoms: C_9  and  C_10
REMARK                            x       y       z     vdW  Elec       q    Type
REMARK                         _______ _______ _______ _____ _____    ______ ____
ROOT
ATOM      1  P   UNL     1       5.589   4.432  17.252  0.00  0.00    +0.000 P 
ATOM      2  O   UNL     1       5.108   5.381  18.361  0.00  0.00    +0.000 OA
ENDROOT
BRANCH   1   3
ATOM      3  O   UNL     1       5.751   5.411  15.930  0.00  0.00    +0.000 OA
ATOM      4  H   UNL     1       6.552   5.975  16.016  0.00  0.00    +0.000 HD
ENDBRANCH   1   3
BRANCH   1   5
ATOM      5  C   UNL     1       7.326   4.829  17.672  0.00  0.00    +0.000 C 
BRANCH   5   6
ATOM      6  C   UNL     1       7.539   5.849  18.788  0.00  0.00    +0.000 C 
BRANCH   6   7
ATOM      7  C   UNL     1       8.005   7.211  18.290  0.00  0.00    +0.000 C 
BRANCH   7   8
ATOM      8  N   UNL     1       7.265   7.612  17.097  0.00  0.00    +0.000 NA
ATOM      9  H   UNL     1       6.298   7.805  17.352  0.00  0.00    +0.000 HD
ATOM     10  H   UNL     1       7.224   6.824  16.446  0.00  0.00    +0.000 HD
ENDBRANCH   7   8
ENDBRANCH   6   7
ENDBRANCH   5   6
ENDBRANCH   1   5
BRANCH   1  11
ATOM     11  C   UNL     1       3.853   4.036  16.831  0.00  0.00    +0.000 C 
BRANCH  11  12
ATOM     12  C   UNL     1       2.889   4.150  18.029  0.00  0.00    +0.000 C 
BRANCH  12  13
ATOM     13  C   UNL     1       2.295   2.816  18.497  0.00  0.00    +0.000 C 
ATOM     14  C   UNL     1       0.957   3.001  19.232  0.00  0.00    +0.000 C 
ATOM     15  C   UNL     1       1.137   3.587  20.631  0.00  0.00    +0.000 C 
ATOM     16  C   UNL     1       2.201   2.822  21.406  0.00  0.00    +0.000 C 
ATOM     17  C   UNL     1       3.475   2.661  20.590  0.00  0.00    +0.000 C 
ATOM     18  O   UNL     1       3.206   2.074  19.316  0.00  0.00    +0.000 OA
ENDBRANCH  12  13
ENDBRANCH  11  12
ENDBRANCH   1  11
TORSDOF 8
ENDMDL
MODEL 8
REMARK VINA RESULT:      -5.4      3.492      6.316
REMARK  Name = 
REMARK  8 active torsions:
REMARK  status: ('A' for Active; 'I' for Inactive)
REMARK    1  A    between atoms: N_1  and  C_2
REMARK    2  A    between atoms: C_2  and  C_3
REMARK    3  A    between atoms: C_3  and  C_4
REMARK    4  A    between atoms: C_4  and  P_5
REMARK    5  A    between atoms: P_5  and  O_7
REMARK    6  A    between atoms: P_5  and  C_8
REMARK    7  A    between atoms: C_8  and  C_9
REMARK    8  A    between atoms: C_9  and  C_10
REMARK                            x       y       z     vdW  Elec       q    Type
REMARK                         _______ _______ _______ _____ _____    ______ ____
ROOT
ATOM      1  P   UNL     1       6.477   5.227  16.164  0.00  0.00    +0.000 P 
ATOM      2  O   UNL     1       7.553   6.324  16.184  0.00  0.00    +0.000 OA
ENDROOT
BRANCH   1   3
ATOM      3  O   UNL     1       5.130   5.997  15.597  0.00  0.00    +0.000 OA
ATOM      4  H   UNL     1       4.771   6.608  16.278  0.00  0.00    +0.000 HD
ENDBRANCH   1   3
BRANCH   1   5
ATOM      5  C   UNL     1       6.906   4.845  14.427  0.00  0.00    +0.000 C 
BRANCH   5   6
ATOM      6  C   UNL     1       6.013   3.832  13.713  0.00  0.00    +0.000 C 
BRANCH   6   7
ATOM      7  C   UNL     1       6.456   3.524  12.289  0.00  0.00    +0.000 C 
BRANCH   7   8
ATOM      8  N   UNL     1       5.976   2.211  11.865  0.00  0.00    +0.000 NA
ATOM      9  H   UNL     1       5.551   2.293  10.942  0.00  0.00    +0.000 HD
ATOM     10  H   UNL     1       5.220   1.913  12.487  0.00  0.00    +0.000 HD
ENDBRANCH   7   8
ENDBRANCH   6   7
ENDBRANCH   5   6
ENDBRANCH   1   5
BRANCH   1  11
ATOM     11  C   UNL     1       6.049   5.610  17.902  0.00  0.00    +0.000 C 
BRANCH  11  12
ATOM     12  C   UNL     1       4.551   5.428  18.220  0.00  0.00    +0.000 C 
BRANCH  12  13
ATOM     13  C   UNL     1       4.100   3.968  18.346  0.00  0.00    +0.000 C 
ATOM     14  C   UNL     1       2.956   3.627  17.378  0.00  0.00    +0.000 C 
ATOM     15  C   UNL     1       1.624   4.235  17.813  0.00  0.00    +0.000 C 
ATOM     16  C   UNL     1       1.344   3.934  19.279  0.00  0.00    +0.000 C 
ATOM     17  C   UNL     1       2.540   4.273  20.155  0.00  0.00    +0.000 C 
ATOM     18  O   UNL     1       3.726   3.630  19.688  0.00  0.00    +0.000 OA
ENDBRANCH  12  13
ENDBRANCH  11  12
ENDBRANCH   1  11
TORSDOF 8
ENDMDL
MODEL 9
REMARK VINA RESULT:      -5.4      2.321      5.696
REMARK  Name = 
REMARK  8 active torsions:
REMARK  status: ('A' for Active; 'I' for Inactive)
REMARK    1  A    between atoms: N_1  and  C_2
REMARK    2  A    between atoms: C_2  and  C_3
REMARK    3  A    between atoms: C_3  and  C_4
REMARK    4  A    between atoms: C_4  and  P_5
REMARK    5  A    between atoms: P_5  and  O_7
REMARK    6  A    between atoms: P_5  and  C_8
REMARK    7  A    between atoms: C_8  and  C_9
REMARK    8  A    between atoms: C_9  and  C_10
REMARK                            x       y       z     vdW  Elec       q    Type
REMARK                         _______ _______ _______ _____ _____    ______ ____
ROOT
ATOM      1  P   UNL     1       4.971   4.324  16.979  0.00  0.00    +0.000 P 
ATOM      2  O   UNL     1       5.199   3.939  18.449  0.00  0.00    +0.000 OA
ENDROOT
BRANCH   1   3
ATOM      3  O   UNL     1       4.183   5.773  17.062  0.00  0.00    +0.000 OA
ATOM      4  H   UNL     1       3.654   5.831  17.889  0.00  0.00    +0.000 HD
ENDBRANCH   1   3
BRANCH   1   5
ATOM      5  C   UNL     1       6.544   5.258  16.984  0.00  0.00    +0.000 C 
BRANCH   5   6
ATOM      6  C   UNL     1       7.565   4.866  18.051  0.00  0.00    +0.000 C 
BRANCH   6   7
ATOM      7  C   UNL     1       7.859   5.976  19.051  0.00  0.00    +0.000 C 
BRANCH   7   8
ATOM      8  N   UNL     1       8.061   5.431  20.391  0.00  0.00    +0.000 NA
ATOM      9  H   UNL     1       7.655   6.067  21.076  0.00  0.00    +0.000 HD
ATOM     10  H   UNL     1       9.063   5.411  20.597  0.00  0.00    +0.000 HD
ENDBRANCH   7   8
ENDBRANCH   6   7
ENDBRANCH   5   6
ENDBRANCH   1   5
BRANCH   1  11
ATOM     11  C   UNL     1       3.397   3.390  16.974  0.00  0.00    +0.000 C 
BRANCH  11  12
ATOM     12  C   UNL     1       3.197   2.515  18.227  0.00  0.00    +0.000 C 
BRANCH  12  13
ATOM     13  C   UNL     1       1.826   2.665  18.896  0.00  0.00    +0.000 C 
ATOM     14  C   UNL     1       1.367   4.130  18.961  0.00  0.00    +0.000 C 
ATOM     15  C   UNL     1       2.135   4.935  20.007  0.00  0.00    +0.000 C 
ATOM     16  C   UNL     1       2.159   4.205  21.342  0.00  0.00    +0.000 C 
ATOM     17  C   UNL     1       2.594   2.757  21.176  0.00  0.00    +0.000 C 
ATOM     18  O   UNL     1       1.794   2.082  20.205  0.00  0.00    +0.000 OA
ENDBRANCH  12  13
ENDBRANCH  11  12
ENDBRANCH   1  11
TORSDOF 8
ENDMDL
