MODEL 1
REMARK VINA RESULT:      -8.7      0.000      0.000
REMARK  Name = 
REMARK  8 active torsions:
REMARK  status: ('A' for Active; 'I' for Inactive)
REMARK    1  A    between atoms: C_1  and  C_2
REMARK    2  A    between atoms: C_2  and  C_3
REMARK    3  A    between atoms: C_2  and  C_18
REMARK    4  A    between atoms: C_3  and  O_5
REMARK    5  A    between atoms: O_5  and  C_6
REMARK    6  A    between atoms: C_9  and  C_10
REMARK    7  A    between atoms: C_21  and  C_22
REMARK    8  A    between atoms: C_22  and  C_24
REMARK                            x       y       z     vdW  Elec       q    Type
REMARK                         _______ _______ _______ _____ _____    ______ ____
ROOT
ATOM      1  C   UNL     1       1.063   3.665  18.687  0.00  0.00    +0.000 C 
ATOM      2  C   UNL     1       1.820   4.988  18.687  0.00  0.00    +0.000 C 
ENDROOT
BRANCH   2   3
ATOM      3  C   UNL     1       3.091   4.934  17.851  0.00  0.00    +0.000 A 
ATOM      4  C   UNL     1       3.651   3.697  17.489  0.00  0.00    +0.000 A 
ATOM      5  C   UNL     1       4.860   3.637  16.788  0.00  0.00    +0.000 A 
ATOM      6  C   UNL     1       5.532   4.814  16.440  0.00  0.00    +0.000 A 
ATOM      7  C   UNL     1       4.942   6.048  16.728  0.00  0.00    +0.000 A 
ATOM      8  C   UNL     1       3.742   6.107  17.439  0.00  0.00    +0.000 A 
BRANCH   6   9
ATOM      9  C   UNL     1       6.849   4.717  15.752  0.00  0.00    +0.000 C 
ATOM     10  O   UNL     1       7.878   4.733  16.422  0.00  0.00    +0.000 OA
BRANCH   9  11
ATOM     11  C   UNL     1       6.945   4.606  14.269  0.00  0.00    +0.000 A 
ATOM     12  C   UNL     1       6.161   3.645  13.619  0.00  0.00    +0.000 A 
ATOM     13  C   UNL     1       6.201   3.531  12.228  0.00  0.00    +0.000 A 
ATOM     14  C   UNL     1       7.029   4.370  11.481  0.00  0.00    +0.000 A 
ATOM     15  C   UNL     1       7.837   5.307  12.125  0.00  0.00    +0.000 A 
ATOM     16  C   UNL     1       7.808   5.415  13.518  0.00  0.00    +0.000 A 
ENDBRANCH   9  11
ENDBRANCH   6   9
ENDBRANCH   2   3
BRANCH   2  17
ATOM     17  C   UNL     1       2.067   5.429  20.128  0.00  0.00    +0.000 C 
ATOM     18  O   UNL     1       1.782   4.804  21.141  0.00  0.00    +0.000 OA
BRANCH  17  19
ATOM     19  O   UNL     1       2.675   6.680  20.101  0.00  0.00    +0.000 OA
BRANCH  19  20
ATOM     20  C   UNL     1       1.762   7.725  20.274  0.00  0.00    +0.000 A 
ATOM     21  C   UNL     1       1.138   7.930  21.508  0.00  0.00    +0.000 A 
ATOM     22  C   UNL     1       0.291   9.019  21.679  0.00  0.00    +0.000 A 
ATOM     23  C   UNL     1       0.080   9.917  20.628  0.00  0.00    +0.000 A 
ATOM     24  C   UNL     1       0.748   9.726  19.407  0.00  0.00    +0.000 A 
ATOM     25  C   UNL     1       1.593   8.628  19.229  0.00  0.00    +0.000 A 
BRANCH  23  26
ATOM     26  C   UNL     1      -0.826  11.047  20.817  0.00  0.00    +0.000 A 
ATOM     27  C   UNL     1      -1.190  11.478  22.029  0.00  0.00    +0.000 A 
ATOM     28  C   UNL     1      -2.129  12.618  22.053  0.00  0.00    +0.000 A 
ATOM     29  S   UNL     1      -2.709  13.345  23.442  0.00  0.00    +0.000 S 
ATOM     30  S   UNL     1      -2.583  13.145  20.438  0.00  0.00    +0.000 S 
ATOM     31  S   UNL     1      -1.454  11.799  19.399  0.00  0.00    +0.000 S 
ENDBRANCH  23  26
ENDBRANCH  19  20
ENDBRANCH  17  19
ENDBRANCH   2  17
TORSDOF 7
ENDMDL
MODEL 2
REMARK VINA RESULT:      -8.7      1.336      1.964
REMARK  Name = 
REMARK  8 active torsions:
REMARK  status: ('A' for Active; 'I' for Inactive)
REMARK    1  A    between atoms: C_1  and  C_2
REMARK    2  A    between atoms: C_2  and  C_3
REMARK    3  A    between atoms: C_2  and  C_18
REMARK    4  A    between atoms: C_3  and  O_5
REMARK    5  A    between atoms: O_5  and  C_6
REMARK    6  A    between atoms: C_9  and  C_10
REMARK    7  A    between atoms: C_21  and  C_22
REMARK    8  A    between atoms: C_22  and  C_24
REMARK                            x       y       z     vdW  Elec       q    Type
REMARK                         _______ _______ _______ _____ _____    ______ ____
ROOT
ATOM      1  C   UNL     1       3.409   2.515  20.823  0.00  0.00    +0.000 C 
ATOM      2  C   UNL     1       2.776   3.248  19.646  0.00  0.00    +0.000 C 
ENDROOT
BRANCH   2   3
ATOM      3  C   UNL     1       3.803   3.693  18.614  0.00  0.00    +0.000 A 
ATOM      4  C   UNL     1       5.143   3.893  18.987  0.00  0.00    +0.000 A 
ATOM      5  C   UNL     1       6.078   4.376  18.064  0.00  0.00    +0.000 A 
ATOM      6  C   UNL     1       5.686   4.671  16.754  0.00  0.00    +0.000 A 
ATOM      7  C   UNL     1       4.374   4.402  16.356  0.00  0.00    +0.000 A 
ATOM      8  C   UNL     1       3.439   3.932  17.280  0.00  0.00    +0.000 A 
BRANCH   6   9
ATOM      9  C   UNL     1       6.687   5.246  15.813  0.00  0.00    +0.000 C 
ATOM     10  O   UNL     1       7.465   6.106  16.218  0.00  0.00    +0.000 OA
BRANCH   9  11
ATOM     11  C   UNL     1       6.763   4.804  14.392  0.00  0.00    +0.000 A 
ATOM     12  C   UNL     1       7.672   5.442  13.541  0.00  0.00    +0.000 A 
ATOM     13  C   UNL     1       7.793   5.035  12.211  0.00  0.00    +0.000 A 
ATOM     14  C   UNL     1       7.001   3.995  11.724  0.00  0.00    +0.000 A 
ATOM     15  C   UNL     1       6.070   3.376  12.557  0.00  0.00    +0.000 A 
ATOM     16  C   UNL     1       5.938   3.790  13.886  0.00  0.00    +0.000 A 
ENDBRANCH   9  11
ENDBRANCH   6   9
ENDBRANCH   2   3
BRANCH   2  17
ATOM     17  C   UNL     1       1.915   4.396  20.170  0.00  0.00    +0.000 C 
ATOM     18  O   UNL     1       0.702   4.385  20.326  0.00  0.00    +0.000 OA
BRANCH  17  19
ATOM     19  O   UNL     1       2.750   5.475  20.440  0.00  0.00    +0.000 OA
BRANCH  19  20
ATOM     20  C   UNL     1       2.125   6.706  20.219  0.00  0.00    +0.000 A 
ATOM     21  C   UNL     1       1.416   7.339  21.244  0.00  0.00    +0.000 A 
ATOM     22  C   UNL     1       0.866   8.597  21.025  0.00  0.00    +0.000 A 
ATOM     23  C   UNL     1       1.038   9.236  19.792  0.00  0.00    +0.000 A 
ATOM     24  C   UNL     1       1.792   8.609  18.786  0.00  0.00    +0.000 A 
ATOM     25  C   UNL     1       2.339   7.341  19.000  0.00  0.00    +0.000 A 
BRANCH  23  26
ATOM     26  C   UNL     1       0.440  10.550  19.572  0.00  0.00    +0.000 A 
ATOM     27  C   UNL     1      -0.794  10.854  19.987  0.00  0.00    +0.000 A 
ATOM     28  C   UNL     1      -1.263  12.218  19.668  0.00  0.00    +0.000 A 
ATOM     29  S   UNL     1      -2.754  12.837  20.100  0.00  0.00    +0.000 S 
ATOM     30  S   UNL     1      -0.068  13.144  18.770  0.00  0.00    +0.000 S 
ATOM     31  S   UNL     1       1.380  11.707  18.706  0.00  0.00    +0.000 S 
ENDBRANCH  23  26
ENDBRANCH  19  20
ENDBRANCH  17  19
ENDBRANCH   2  17
TORSDOF 7
ENDMDL
MODEL 3
REMARK VINA RESULT:      -8.6      0.902      1.344
REMARK  Name = 
REMARK  8 active torsions:
REMARK  status: ('A' for Active; 'I' for Inactive)
REMARK    1  A    between atoms: C_1  and  C_2
REMARK    2  A    between atoms: C_2  and  C_3
REMARK    3  A    between atoms: C_2  and  C_18
REMARK    4  A    between atoms: C_3  and  O_5
REMARK    5  A    between atoms: O_5  and  C_6
REMARK    6  A    between atoms: C_9  and  C_10
REMARK    7  A    between atoms: C_21  and  C_22
REMARK    8  A    between atoms: C_22  and  C_24
REMARK                            x       y       z     vdW  Elec       q    Type
REMARK                         _______ _______ _______ _____ _____    ______ ____
ROOT
ATOM      1  C   UNL     1       1.021   3.300  18.734  0.00  0.00    +0.000 C 
ATOM      2  C   UNL     1       1.724   4.651  18.692  0.00  0.00    +0.000 C 
ENDROOT
BRANCH   2   3
ATOM      3  C   UNL     1       3.006   4.617  17.871  0.00  0.00    +0.000 A 
ATOM      4  C   UNL     1       3.679   3.403  17.655  0.00  0.00    +0.000 A 
ATOM      5  C   UNL     1       4.898   3.373  16.968  0.00  0.00    +0.000 A 
ATOM      6  C   UNL     1       5.465   4.559  16.488  0.00  0.00    +0.000 A 
ATOM      7  C   UNL     1       4.763   5.759  16.631  0.00  0.00    +0.000 A 
ATOM      8  C   UNL     1       3.554   5.789  17.328  0.00  0.00    +0.000 A 
BRANCH   6   9
ATOM      9  C   UNL     1       6.794   4.504  15.819  0.00  0.00    +0.000 C 
ATOM     10  O   UNL     1       7.811   4.489  16.506  0.00  0.00    +0.000 OA
BRANCH   9  11
ATOM     11  C   UNL     1       6.916   4.471  14.334  0.00  0.00    +0.000 A 
ATOM     12  C   UNL     1       7.773   5.388  13.713  0.00  0.00    +0.000 A 
ATOM     13  C   UNL     1       7.936   5.367  12.326  0.00  0.00    +0.000 A 
ATOM     14  C   UNL     1       7.239   4.438  11.554  0.00  0.00    +0.000 A 
ATOM     15  C   UNL     1       6.360   3.543  12.162  0.00  0.00    +0.000 A 
ATOM     16  C   UNL     1       6.185   3.569  13.549  0.00  0.00    +0.000 A 
ENDBRANCH   9  11
ENDBRANCH   6   9
ENDBRANCH   2   3
BRANCH   2  17
ATOM     17  C   UNL     1       1.939   5.153  20.118  0.00  0.00    +0.000 C 
ATOM     18  O   UNL     1       1.478   4.664  21.141  0.00  0.00    +0.000 OA
BRANCH  17  19
ATOM     19  O   UNL     1       2.752   6.281  20.064  0.00  0.00    +0.000 OA
BRANCH  19  20
ATOM     20  C   UNL     1       2.020   7.470  19.996  0.00  0.00    +0.000 A 
ATOM     21  C   UNL     1       1.340   7.953  21.118  0.00  0.00    +0.000 A 
ATOM     22  C   UNL     1       0.680   9.174  21.049  0.00  0.00    +0.000 A 
ATOM     23  C   UNL     1       0.712   9.926  19.870  0.00  0.00    +0.000 A 
ATOM     24  C   UNL     1       1.438   9.452  18.764  0.00  0.00    +0.000 A 
ATOM     25  C   UNL     1       2.095   8.221  18.827  0.00  0.00    +0.000 A 
BRANCH  23  26
ATOM     26  C   UNL     1       0.000  11.200  19.808  0.00  0.00    +0.000 A 
ATOM     27  C   UNL     1      -1.240  11.352  20.284  0.00  0.00    +0.000 A 
ATOM     28  C   UNL     1      -1.831  12.696  20.127  0.00  0.00    +0.000 A 
ATOM     29  S   UNL     1      -3.353  13.134  20.660  0.00  0.00    +0.000 S 
ATOM     30  S   UNL     1      -0.748  13.811  19.306  0.00  0.00    +0.000 S 
ATOM     31  S   UNL     1       0.812  12.519  19.052  0.00  0.00    +0.000 S 
ENDBRANCH  23  26
ENDBRANCH  19  20
ENDBRANCH  17  19
ENDBRANCH   2  17
TORSDOF 7
ENDMDL
MODEL 4
REMARK VINA RESULT:      -8.4      4.707      5.999
REMARK  Name = 
REMARK  8 active torsions:
REMARK  status: ('A' for Active; 'I' for Inactive)
REMARK    1  A    between atoms: C_1  and  C_2
REMARK    2  A    between atoms: C_2  and  C_3
REMARK    3  A    between atoms: C_2  and  C_18
REMARK    4  A    between atoms: C_3  and  O_5
REMARK    5  A    between atoms: O_5  and  C_6
REMARK    6  A    between atoms: C_9  and  C_10
REMARK    7  A    between atoms: C_21  and  C_22
REMARK    8  A    between atoms: C_22  and  C_24
REMARK                            x       y       z     vdW  Elec       q    Type
REMARK                         _______ _______ _______ _____ _____    ______ ____
ROOT
ATOM      1  C   UNL     1       7.612   4.423  16.964  0.00  0.00    +0.000 C 
ATOM      2  C   UNL     1       6.651   5.566  17.267  0.00  0.00    +0.000 C 
ENDROOT
BRANCH   2   3
ATOM      3  C   UNL     1       7.367   6.819  17.752  0.00  0.00    +0.000 A 
ATOM      4  C   UNL     1       8.230   6.761  18.859  0.00  0.00    +0.000 A 
ATOM      5  C   UNL     1       8.833   7.920  19.358  0.00  0.00    +0.000 A 
ATOM      6  C   UNL     1       8.579   9.160  18.761  0.00  0.00    +0.000 A 
ATOM      7  C   UNL     1       7.783   9.214  17.613  0.00  0.00    +0.000 A 
ATOM      8  C   UNL     1       7.173   8.059  17.123  0.00  0.00    +0.000 A 
BRANCH   6   9
ATOM      9  C   UNL     1       9.182  10.385  19.355  0.00  0.00    +0.000 C 
ATOM     10  O   UNL     1       9.173  10.526  20.575  0.00  0.00    +0.000 OA
BRANCH   9  11
ATOM     11  C   UNL     1       9.791  11.444  18.502  0.00  0.00    +0.000 A 
ATOM     12  C   UNL     1       8.995  12.528  18.113  0.00  0.00    +0.000 A 
ATOM     13  C   UNL     1       9.539  13.556  17.339  0.00  0.00    +0.000 A 
ATOM     14  C   UNL     1      10.875  13.500  16.943  0.00  0.00    +0.000 A 
ATOM     15  C   UNL     1      11.664  12.407  17.299  0.00  0.00    +0.000 A 
ATOM     16  C   UNL     1      11.119  11.371  18.064  0.00  0.00    +0.000 A 
ENDBRANCH   9  11
ENDBRANCH   6   9
ENDBRANCH   2   3
BRANCH   2  17
ATOM     17  C   UNL     1       5.575   5.078  18.236  0.00  0.00    +0.000 C 
ATOM     18  O   UNL     1       5.756   4.622  19.356  0.00  0.00    +0.000 OA
BRANCH  17  19
ATOM     19  O   UNL     1       4.336   5.235  17.623  0.00  0.00    +0.000 OA
BRANCH  19  20
ATOM     20  C   UNL     1       3.581   6.265  18.192  0.00  0.00    +0.000 A 
ATOM     21  C   UNL     1       3.419   7.483  17.525  0.00  0.00    +0.000 A 
ATOM     22  C   UNL     1       2.603   8.465  18.075  0.00  0.00    +0.000 A 
ATOM     23  C   UNL     1       1.931   8.229  19.279  0.00  0.00    +0.000 A 
ATOM     24  C   UNL     1       2.066   6.984  19.916  0.00  0.00    +0.000 A 
ATOM     25  C   UNL     1       2.892   5.998  19.371  0.00  0.00    +0.000 A 
BRANCH  23  26
ATOM     26  C   UNL     1       1.091   9.277  19.852  0.00  0.00    +0.000 A 
ATOM     27  C   UNL     1       0.637   9.224  21.108  0.00  0.00    +0.000 A 
ATOM     28  C   UNL     1      -0.220  10.350  21.533  0.00  0.00    +0.000 A 
ATOM     29  S   UNL     1      -0.886  10.518  23.056  0.00  0.00    +0.000 S 
ATOM     30  S   UNL     1      -0.471  11.521  20.245  0.00  0.00    +0.000 S 
ATOM     31  S   UNL     1       0.663  10.593  18.825  0.00  0.00    +0.000 S 
ENDBRANCH  23  26
ENDBRANCH  19  20
ENDBRANCH  17  19
ENDBRANCH   2  17
TORSDOF 7
ENDMDL
MODEL 5
REMARK VINA RESULT:      -8.3      1.927      2.280
REMARK  Name = 
REMARK  8 active torsions:
REMARK  status: ('A' for Active; 'I' for Inactive)
REMARK    1  A    between atoms: C_1  and  C_2
REMARK    2  A    between atoms: C_2  and  C_3
REMARK    3  A    between atoms: C_2  and  C_18
REMARK    4  A    between atoms: C_3  and  O_5
REMARK    5  A    between atoms: O_5  and  C_6
REMARK    6  A    between atoms: C_9  and  C_10
REMARK    7  A    between atoms: C_21  and  C_22
REMARK    8  A    between atoms: C_22  and  C_24
REMARK                            x       y       z     vdW  Elec       q    Type
REMARK                         _______ _______ _______ _____ _____    ______ ____
ROOT
ATOM      1  C   UNL     1       3.917   2.523  20.717  0.00  0.00    +0.000 C 
ATOM      2  C   UNL     1       3.271   3.452  19.695  0.00  0.00    +0.000 C 
ENDROOT
BRANCH   2   3
ATOM      3  C   UNL     1       4.238   3.879  18.600  0.00  0.00    +0.000 A 
ATOM      4  C   UNL     1       5.564   4.222  18.917  0.00  0.00    +0.000 A 
ATOM      5  C   UNL     1       6.438   4.688  17.928  0.00  0.00    +0.000 A 
ATOM      6  C   UNL     1       5.999   4.823  16.607  0.00  0.00    +0.000 A 
ATOM      7  C   UNL     1       4.707   4.411  16.271  0.00  0.00    +0.000 A 
ATOM      8  C   UNL     1       3.832   3.958  17.259  0.00  0.00    +0.000 A 
BRANCH   6   9
ATOM      9  C   UNL     1       6.931   5.385  15.591  0.00  0.00    +0.000 C 
ATOM     10  O   UNL     1       7.701   6.285  15.916  0.00  0.00    +0.000 OA
BRANCH   9  11
ATOM     11  C   UNL     1       6.948   4.881  14.188  0.00  0.00    +0.000 A 
ATOM     12  C   UNL     1       6.105   3.815  13.852  0.00  0.00    +0.000 A 
ATOM     13  C   UNL     1       6.070   3.335  12.541  0.00  0.00    +0.000 A 
ATOM     14  C   UNL     1       6.882   3.912  11.563  0.00  0.00    +0.000 A 
ATOM     15  C   UNL     1       7.747   4.953  11.899  0.00  0.00    +0.000 A 
ATOM     16  C   UNL     1       7.793   5.427  13.213  0.00  0.00    +0.000 A 
ENDBRANCH   9  11
ENDBRANCH   6   9
ENDBRANCH   2   3
BRANCH   2  17
ATOM     17  C   UNL     1       2.629   4.632  20.421  0.00  0.00    +0.000 C 
ATOM     18  O   UNL     1       1.656   4.591  21.162  0.00  0.00    +0.000 OA
BRANCH  17  19
ATOM     19  O   UNL     1       3.338   5.783  20.092  0.00  0.00    +0.000 OA
BRANCH  19  20
ATOM     20  C   UNL     1       2.503   6.852  19.754  0.00  0.00    +0.000 A 
ATOM     21  C   UNL     1       1.778   7.528  20.740  0.00  0.00    +0.000 A 
ATOM     22  C   UNL     1       1.012   8.635  20.393  0.00  0.00    +0.000 A 
ATOM     23  C   UNL     1       0.982   9.082  19.068  0.00  0.00    +0.000 A 
ATOM     24  C   UNL     1       1.751   8.422  18.095  0.00  0.00    +0.000 A 
ATOM     25  C   UNL     1       2.516   7.304  18.439  0.00  0.00    +0.000 A 
BRANCH  23  26
ATOM     26  C   UNL     1       0.159  10.237  18.716  0.00  0.00    +0.000 A 
ATOM     27  C   UNL     1      -1.072  10.111  18.211  0.00  0.00    +0.000 A 
ATOM     28  C   UNL     1      -1.767  11.374  17.885  0.00  0.00    +0.000 A 
ATOM     29  S   UNL     1      -3.316  11.475  17.266  0.00  0.00    +0.000 S 
ATOM     30  S   UNL     1      -0.779  12.788  18.224  0.00  0.00    +0.000 S 
ATOM     31  S   UNL     1       0.855  11.798  18.940  0.00  0.00    +0.000 S 
ENDBRANCH  23  26
ENDBRANCH  19  20
ENDBRANCH  17  19
ENDBRANCH   2  17
TORSDOF 7
ENDMDL
MODEL 6
REMARK VINA RESULT:      -8.3      2.970      4.328
REMARK  Name = 
REMARK  8 active torsions:
REMARK  status: ('A' for Active; 'I' for Inactive)
REMARK    1  A    between atoms: C_1  and  C_2
REMARK    2  A    between atoms: C_2  and  C_3
REMARK    3  A    between atoms: C_2  and  C_18
REMARK    4  A    between atoms: C_3  and  O_5
REMARK    5  A    between atoms: O_5  and  C_6
REMARK    6  A    between atoms: C_9  and  C_10
REMARK    7  A    between atoms: C_21  and  C_22
REMARK    8  A    between atoms: C_22  and  C_24
REMARK                            x       y       z     vdW  Elec       q    Type
REMARK                         _______ _______ _______ _____ _____    ______ ____
ROOT
ATOM      1  C   UNL     1       1.102   9.082  21.188  0.00  0.00    +0.000 C 
ATOM      2  C   UNL     1       0.982   8.720  19.712  0.00  0.00    +0.000 C 
ENDROOT
BRANCH   2   3
ATOM      3  C   UNL     1       2.037   7.716  19.269  0.00  0.00    +0.000 A 
ATOM      4  C   UNL     1       2.274   6.554  20.024  0.00  0.00    +0.000 A 
ATOM      5  C   UNL     1       3.294   5.665  19.667  0.00  0.00    +0.000 A 
ATOM      6  C   UNL     1       4.097   5.925  18.552  0.00  0.00    +0.000 A 
ATOM      7  C   UNL     1       3.817   7.037  17.752  0.00  0.00    +0.000 A 
ATOM      8  C   UNL     1       2.808   7.930  18.116  0.00  0.00    +0.000 A 
BRANCH   6   9
ATOM      9  C   UNL     1       5.217   4.995  18.236  0.00  0.00    +0.000 C 
ATOM     10  O   UNL     1       5.772   4.394  19.151  0.00  0.00    +0.000 OA
BRANCH   9  11
ATOM     11  C   UNL     1       5.679   4.783  16.835  0.00  0.00    +0.000 A 
ATOM     12  C   UNL     1       6.948   5.249  16.472  0.00  0.00    +0.000 A 
ATOM     13  C   UNL     1       7.428   5.041  15.177  0.00  0.00    +0.000 A 
ATOM     14  C   UNL     1       6.640   4.375  14.238  0.00  0.00    +0.000 A 
ATOM     15  C   UNL     1       5.362   3.937  14.583  0.00  0.00    +0.000 A 
ATOM     16  C   UNL     1       4.874   4.155  15.875  0.00  0.00    +0.000 A 
ENDBRANCH   9  11
ENDBRANCH   6   9
ENDBRANCH   2   3
BRANCH   2  17
ATOM     17  C   UNL     1       0.982   9.998  18.877  0.00  0.00    +0.000 C 
ATOM     18  O   UNL     1       1.602  11.026  19.116  0.00  0.00    +0.000 OA
BRANCH  17  19
ATOM     19  O   UNL     1       0.144   9.803  17.784  0.00  0.00    +0.000 OA
BRANCH  19  20
ATOM     20  C   UNL     1      -1.116  10.383  17.961  0.00  0.00    +0.000 A 
ATOM     21  C   UNL     1      -2.217   9.935  17.226  0.00  0.00    +0.000 A 
ATOM     22  C   UNL     1      -3.474  10.474  17.472  0.00  0.00    +0.000 A 
ATOM     23  C   UNL     1      -3.641  11.446  18.464  0.00  0.00    +0.000 A 
ATOM     24  C   UNL     1      -2.534  11.854  19.228  0.00  0.00    +0.000 A 
ATOM     25  C   UNL     1      -1.268  11.320  18.978  0.00  0.00    +0.000 A 
BRANCH  23  26
ATOM     26  C   UNL     1      -4.965  12.015  18.700  0.00  0.00    +0.000 A 
ATOM     27  C   UNL     1      -5.448  12.222  19.929  0.00  0.00    +0.000 A 
ATOM     28  C   UNL     1      -6.812  12.784  20.000  0.00  0.00    +0.000 A 
ATOM     29  S   UNL     1      -7.618  13.149  21.417  0.00  0.00    +0.000 S 
ATOM     30  S   UNL     1      -7.515  13.037  18.408  0.00  0.00    +0.000 S 
ATOM     31  S   UNL     1      -5.921  12.385  17.313  0.00  0.00    +0.000 S 
ENDBRANCH  23  26
ENDBRANCH  19  20
ENDBRANCH  17  19
ENDBRANCH   2  17
TORSDOF 7
ENDMDL
MODEL 7
REMARK VINA RESULT:      -8.3      0.500      1.569
REMARK  Name = 
REMARK  8 active torsions:
REMARK  status: ('A' for Active; 'I' for Inactive)
REMARK    1  A    between atoms: C_1  and  C_2
REMARK    2  A    between atoms: C_2  and  C_3
REMARK    3  A    between atoms: C_2  and  C_18
REMARK    4  A    between atoms: C_3  and  O_5
REMARK    5  A    between atoms: O_5  and  C_6
REMARK    6  A    between atoms: C_9  and  C_10
REMARK    7  A    between atoms: C_21  and  C_22
REMARK    8  A    between atoms: C_22  and  C_24
REMARK                            x       y       z     vdW  Elec       q    Type
REMARK                         _______ _______ _______ _____ _____    ______ ____
ROOT
ATOM      1  C   UNL     1       1.409   3.637  18.973  0.00  0.00    +0.000 C 
ATOM      2  C   UNL     1       1.890   5.069  18.774  0.00  0.00    +0.000 C 
ENDROOT
BRANCH   2   3
ATOM      3  C   UNL     1       3.181   5.146  17.971  0.00  0.00    +0.000 A 
ATOM      4  C   UNL     1       3.593   6.364  17.403  0.00  0.00    +0.000 A 
ATOM      5  C   UNL     1       4.736   6.428  16.599  0.00  0.00    +0.000 A 
ATOM      6  C   UNL     1       5.485   5.273  16.347  0.00  0.00    +0.000 A 
ATOM      7  C   UNL     1       5.126   4.075  16.971  0.00  0.00    +0.000 A 
ATOM      8  C   UNL     1       3.977   4.010  17.762  0.00  0.00    +0.000 A 
BRANCH   6   9
ATOM      9  C   UNL     1       6.659   5.360  15.434  0.00  0.00    +0.000 C 
ATOM     10  O   UNL     1       7.673   5.939  15.815  0.00  0.00    +0.000 OA
BRANCH   9  11
ATOM     11  C   UNL     1       6.628   4.762  14.069  0.00  0.00    +0.000 A 
ATOM     12  C   UNL     1       7.602   5.158  13.144  0.00  0.00    +0.000 A 
ATOM     13  C   UNL     1       7.623   4.597  11.865  0.00  0.00    +0.000 A 
ATOM     14  C   UNL     1       6.669   3.647  11.503  0.00  0.00    +0.000 A 
ATOM     15  C   UNL     1       5.677   3.272  12.408  0.00  0.00    +0.000 A 
ATOM     16  C   UNL     1       5.645   3.840  13.685  0.00  0.00    +0.000 A 
ENDBRANCH   9  11
ENDBRANCH   6   9
ENDBRANCH   2   3
BRANCH   2  17
ATOM     17  C   UNL     1       1.986   5.763  20.131  0.00  0.00    +0.000 C 
ATOM     18  O   UNL     1       1.566   5.337  21.199  0.00  0.00    +0.000 OA
BRANCH  17  19
ATOM     19  O   UNL     1       2.635   6.980  19.951  0.00  0.00    +0.000 OA
BRANCH  19  20
ATOM     20  C   UNL     1       1.796   8.076  20.180  0.00  0.00    +0.000 A 
ATOM     21  C   UNL     1       1.525   8.991  19.159  0.00  0.00    +0.000 A 
ATOM     22  C   UNL     1       0.630  10.030  19.386  0.00  0.00    +0.000 A 
ATOM     23  C   UNL     1      -0.012  10.148  20.623  0.00  0.00    +0.000 A 
ATOM     24  C   UNL     1       0.234   9.194  21.626  0.00  0.00    +0.000 A 
ATOM     25  C   UNL     1       1.139   8.154  21.404  0.00  0.00    +0.000 A 
BRANCH  23  26
ATOM     26  C   UNL     1      -0.938  11.254  20.853  0.00  0.00    +0.000 A 
ATOM     27  C   UNL     1      -1.157  11.765  22.068  0.00  0.00    +0.000 A 
ATOM     28  C   UNL     1      -2.138  12.867  22.138  0.00  0.00    +0.000 A 
ATOM     29  S   UNL     1      -2.561  13.677  23.536  0.00  0.00    +0.000 S 
ATOM     30  S   UNL     1      -2.828  13.248  20.566  0.00  0.00    +0.000 S 
ATOM     31  S   UNL     1      -1.784  11.869  19.483  0.00  0.00    +0.000 S 
ENDBRANCH  23  26
ENDBRANCH  19  20
ENDBRANCH  17  19
ENDBRANCH   2  17
TORSDOF 7
ENDMDL
MODEL 8
REMARK VINA RESULT:      -8.2      0.945      1.320
REMARK  Name = 
REMARK  8 active torsions:
REMARK  status: ('A' for Active; 'I' for Inactive)
REMARK    1  A    between atoms: C_1  and  C_2
REMARK    2  A    between atoms: C_2  and  C_3
REMARK    3  A    between atoms: C_2  and  C_18
REMARK    4  A    between atoms: C_3  and  O_5
REMARK    5  A    between atoms: O_5  and  C_6
REMARK    6  A    between atoms: C_9  and  C_10
REMARK    7  A    between atoms: C_21  and  C_22
REMARK    8  A    between atoms: C_22  and  C_24
REMARK                            x       y       z     vdW  Elec       q    Type
REMARK                         _______ _______ _______ _____ _____    ______ ____
ROOT
ATOM      1  C   UNL     1       0.908   3.635  18.350  0.00  0.00    +0.000 C 
ATOM      2  C   UNL     1       1.738   4.876  18.658  0.00  0.00    +0.000 C 
ENDROOT
BRANCH   2   3
ATOM      3  C   UNL     1       3.134   4.811  18.055  0.00  0.00    +0.000 A 
ATOM      4  C   UNL     1       3.535   5.748  17.088  0.00  0.00    +0.000 A 
ATOM      5  C   UNL     1       4.788   5.650  16.472  0.00  0.00    +0.000 A 
ATOM      6  C   UNL     1       5.659   4.609  16.811  0.00  0.00    +0.000 A 
ATOM      7  C   UNL     1       5.299   3.719  17.826  0.00  0.00    +0.000 A 
ATOM      8  C   UNL     1       4.044   3.811  18.431  0.00  0.00    +0.000 A 
BRANCH   6   9
ATOM      9  C   UNL     1       6.957   4.492  16.091  0.00  0.00    +0.000 C 
ATOM     10  O   UNL     1       7.996   4.404  16.739  0.00  0.00    +0.000 OA
BRANCH   9  11
ATOM     11  C   UNL     1       7.023   4.485  14.602  0.00  0.00    +0.000 A 
ATOM     12  C   UNL     1       6.156   3.638  13.900  0.00  0.00    +0.000 A 
ATOM     13  C   UNL     1       6.167   3.626  12.503  0.00  0.00    +0.000 A 
ATOM     14  C   UNL     1       7.048   4.451  11.804  0.00  0.00    +0.000 A 
ATOM     15  C   UNL     1       7.936   5.272  12.497  0.00  0.00    +0.000 A 
ATOM     16  C   UNL     1       7.936   5.278  13.895  0.00  0.00    +0.000 A 
ENDBRANCH   9  11
ENDBRANCH   6   9
ENDBRANCH   2   3
BRANCH   2  17
ATOM     17  C   UNL     1       1.747   5.116  20.167  0.00  0.00    +0.000 C 
ATOM     18  O   UNL     1       1.152   4.461  21.012  0.00  0.00    +0.000 OA
BRANCH  17  19
ATOM     19  O   UNL     1       2.551   6.221  20.426  0.00  0.00    +0.000 OA
BRANCH  19  20
ATOM     20  C   UNL     1       1.866   7.431  20.282  0.00  0.00    +0.000 A 
ATOM     21  C   UNL     1       1.123   7.959  21.342  0.00  0.00    +0.000 A 
ATOM     22  C   UNL     1       0.511   9.200  21.201  0.00  0.00    +0.000 A 
ATOM     23  C   UNL     1       0.654   9.924  20.014  0.00  0.00    +0.000 A 
ATOM     24  C   UNL     1       1.441   9.403  18.973  0.00  0.00    +0.000 A 
ATOM     25  C   UNL     1       2.050   8.153  19.108  0.00  0.00    +0.000 A 
BRANCH  23  26
ATOM     26  C   UNL     1      -0.009  11.219  19.875  0.00  0.00    +0.000 A 
ATOM     27  C   UNL     1      -1.223  11.459  20.381  0.00  0.00    +0.000 A 
ATOM     28  C   UNL     1      -1.766  12.812  20.138  0.00  0.00    +0.000 A 
ATOM     29  S   UNL     1      -3.248  13.355  20.687  0.00  0.00    +0.000 S 
ATOM     30  S   UNL     1      -0.672  13.812  19.192  0.00  0.00    +0.000 S 
ATOM     31  S   UNL     1       0.824  12.439  18.987  0.00  0.00    +0.000 S 
ENDBRANCH  23  26
ENDBRANCH  19  20
ENDBRANCH  17  19
ENDBRANCH   2  17
TORSDOF 7
ENDMDL
MODEL 9
REMARK VINA RESULT:      -8.1      2.672      4.680
REMARK  Name = 
REMARK  8 active torsions:
REMARK  status: ('A' for Active; 'I' for Inactive)
REMARK    1  A    between atoms: C_1  and  C_2
REMARK    2  A    between atoms: C_2  and  C_3
REMARK    3  A    between atoms: C_2  and  C_18
REMARK    4  A    between atoms: C_3  and  O_5
REMARK    5  A    between atoms: O_5  and  C_6
REMARK    6  A    between atoms: C_9  and  C_10
REMARK    7  A    between atoms: C_21  and  C_22
REMARK    8  A    between atoms: C_22  and  C_24
REMARK                            x       y       z     vdW  Elec       q    Type
REMARK                         _______ _______ _______ _____ _____    ______ ____
ROOT
ATOM      1  C   UNL     1      -0.698   8.357  21.593  0.00  0.00    +0.000 C 
ATOM      2  C   UNL     1       0.495   8.995  20.890  0.00  0.00    +0.000 C 
ENDROOT
BRANCH   2   3
ATOM      3  C   UNL     1       1.364   7.973  20.171  0.00  0.00    +0.000 A 
ATOM      4  C   UNL     1       1.950   8.284  18.932  0.00  0.00    +0.000 A 
ATOM      5  C   UNL     1       2.687   7.326  18.227  0.00  0.00    +0.000 A 
ATOM      6  C   UNL     1       2.846   6.037  18.748  0.00  0.00    +0.000 A 
ATOM      7  C   UNL     1       2.332   5.744  20.015  0.00  0.00    +0.000 A 
ATOM      8  C   UNL     1       1.587   6.697  20.711  0.00  0.00    +0.000 A 
BRANCH   6   9
ATOM      9  C   UNL     1       3.579   5.020  17.945  0.00  0.00    +0.000 C 
ATOM     10  O   UNL     1       2.941   4.204  17.285  0.00  0.00    +0.000 OA
BRANCH   9  11
ATOM     11  C   UNL     1       5.068   4.968  17.928  0.00  0.00    +0.000 A 
ATOM     12  C   UNL     1       5.706   4.466  16.788  0.00  0.00    +0.000 A 
ATOM     13  C   UNL     1       7.101   4.430  16.723  0.00  0.00    +0.000 A 
ATOM     14  C   UNL     1       7.863   4.886  17.799  0.00  0.00    +0.000 A 
ATOM     15  C   UNL     1       7.233   5.357  18.951  0.00  0.00    +0.000 A 
ATOM     16  C   UNL     1       5.838   5.383  19.023  0.00  0.00    +0.000 A 
ENDBRANCH   9  11
ENDBRANCH   6   9
ENDBRANCH   2   3
BRANCH   2  17
ATOM     17  C   UNL     1       1.273   9.847  21.890  0.00  0.00    +0.000 C 
ATOM     18  O   UNL     1       1.896   9.443  22.862  0.00  0.00    +0.000 OA
BRANCH  17  19
ATOM     19  O   UNL     1       1.152  11.180  21.511  0.00  0.00    +0.000 OA
BRANCH  19  20
ATOM     20  C   UNL     1      -0.157  11.656  21.630  0.00  0.00    +0.000 A 
ATOM     21  C   UNL     1      -0.847  11.549  22.841  0.00  0.00    +0.000 A 
ATOM     22  C   UNL     1      -2.120  12.096  22.958  0.00  0.00    +0.000 A 
ATOM     23  C   UNL     1      -2.699  12.767  21.877  0.00  0.00    +0.000 A 
ATOM     24  C   UNL     1      -1.977  12.908  20.680  0.00  0.00    +0.000 A 
ATOM     25  C   UNL     1      -0.702  12.353  20.556  0.00  0.00    +0.000 A 
BRANCH  23  26
ATOM     26  C   UNL     1      -4.044  13.322  22.010  0.00  0.00    +0.000 A 
ATOM     27  C   UNL     1      -4.891  12.926  22.966  0.00  0.00    +0.000 A 
ATOM     28  C   UNL     1      -6.222  13.566  22.954  0.00  0.00    +0.000 A 
ATOM     29  S   UNL     1      -7.438  13.254  24.057  0.00  0.00    +0.000 S 
ATOM     30  S   UNL     1      -6.399  14.716  21.636  0.00  0.00    +0.000 S 
ATOM     31  S   UNL     1      -4.529  14.500  20.849  0.00  0.00    +0.000 S 
ENDBRANCH  23  26
ENDBRANCH  19  20
ENDBRANCH  17  19
ENDBRANCH   2  17
TORSDOF 7
ENDMDL
