MODEL 1
REMARK VINA RESULT:      -6.3      0.000      0.000
REMARK  Name = 
REMARK  6 active torsions:
REMARK  status: ('A' for Active; 'I' for Inactive)
REMARK    1  A    between atoms: C_1  and  C_2
REMARK    2  A    between atoms: C_2  and  N_3
REMARK    3  A    between atoms: N_3  and  C_4
REMARK    4  A    between atoms: C_4  and  C_5
REMARK    5  A    between atoms: C_6  and  C_8
REMARK    6  A    between atoms: C_13  and  N_14
REMARK                            x       y       z     vdW  Elec       q    Type
REMARK                         _______ _______ _______ _____ _____    ______ ____
ROOT
ATOM      1  C   UNL     1       3.847   4.087  18.564  0.00  0.00    +0.000 A 
ATOM      2  C   UNL     1       2.705   4.660  17.978  0.00  0.00    +0.000 A 
ATOM      3  C   UNL     1       1.488   3.979  17.964  0.00  0.00    +0.000 A 
ATOM      4  C   UNL     1       1.410   2.693  18.489  0.00  0.00    +0.000 A 
ATOM      5  C   UNL     1       2.553   2.085  19.010  0.00  0.00    +0.000 A 
ATOM      6  C   UNL     1       3.788   2.747  19.014  0.00  0.00    +0.000 A 
ENDROOT
BRANCH   1   8
ATOM      7  N   UNL     1       5.961   4.910  17.430  0.00  0.00    +0.000 N 
ATOM      8  C   UNL     1       5.151   4.820  18.582  0.00  0.00    +0.000 C 
ATOM      9  O   UNL     1       5.488   5.331  19.651  0.00  0.00    +0.000 OA
BRANCH   7  11
ATOM     10  C   UNL     1       7.429   6.926  17.463  0.00  0.00    +0.000 C 
ATOM     11  C   UNL     1       7.323   5.417  17.626  0.00  0.00    +0.000 C 
ENDBRANCH   7  11
BRANCH   7  12
ATOM     12  C   UNL     1       5.539   4.465  16.093  0.00  0.00    +0.000 C 
ATOM     13  C   UNL     1       6.608   4.314  15.025  0.00  0.00    +0.000 C 
ENDBRANCH   7  12
ENDBRANCH   1   8
BRANCH   6  14
ATOM     14  N   UNL     1       4.877   2.121  19.663  0.00  0.00    +0.000 N 
ATOM     15  H   UNL     1       4.710   1.958  20.652  0.00  0.00    +0.000 HD
ATOM     16  H   UNL     1       5.123   1.247  19.184  0.00  0.00    +0.000 HD
ENDBRANCH   6  14
TORSDOF 4
ENDMDL
MODEL 2
REMARK VINA RESULT:      -6.2      1.621      1.889
REMARK  Name = 
REMARK  6 active torsions:
REMARK  status: ('A' for Active; 'I' for Inactive)
REMARK    1  A    between atoms: C_1  and  C_2
REMARK    2  A    between atoms: C_2  and  N_3
REMARK    3  A    between atoms: N_3  and  C_4
REMARK    4  A    between atoms: C_4  and  C_5
REMARK    5  A    between atoms: C_6  and  C_8
REMARK    6  A    between atoms: C_13  and  N_14
REMARK                            x       y       z     vdW  Elec       q    Type
REMARK                         _______ _______ _______ _____ _____    ______ ____
ROOT
ATOM      1  C   UNL     1       4.121   4.494  18.541  0.00  0.00    +0.000 A 
ATOM      2  C   UNL     1       3.972   3.355  17.731  0.00  0.00    +0.000 A 
ATOM      3  C   UNL     1       2.723   2.759  17.556  0.00  0.00    +0.000 A 
ATOM      4  C   UNL     1       1.616   3.262  18.231  0.00  0.00    +0.000 A 
ATOM      5  C   UNL     1       1.764   4.349  19.093  0.00  0.00    +0.000 A 
ATOM      6  C   UNL     1       3.015   4.948  19.297  0.00  0.00    +0.000 A 
ENDROOT
BRANCH   1   8
ATOM      7  N   UNL     1       6.000   6.006  17.757  0.00  0.00    +0.000 N 
ATOM      8  C   UNL     1       5.460   5.135  18.726  0.00  0.00    +0.000 C 
ATOM      9  O   UNL     1       6.072   4.857  19.759  0.00  0.00    +0.000 OA
BRANCH   7  11
ATOM     10  C   UNL     1       7.699   7.826  17.600  0.00  0.00    +0.000 C 
ATOM     11  C   UNL     1       7.414   6.364  17.914  0.00  0.00    +0.000 C 
ENDBRANCH   7  11
BRANCH   7  12
ATOM     12  C   UNL     1       5.253   6.501  16.591  0.00  0.00    +0.000 C 
ATOM     13  C   UNL     1       5.419   5.762  15.275  0.00  0.00    +0.000 C 
ENDBRANCH   7  12
ENDBRANCH   1   8
BRANCH   6  14
ATOM     14  N   UNL     1       3.072   6.117  20.089  0.00  0.00    +0.000 N 
ATOM     15  H   UNL     1       3.306   5.929  21.060  0.00  0.00    +0.000 HD
ATOM     16  H   UNL     1       3.726   6.794  19.680  0.00  0.00    +0.000 HD
ENDBRANCH   6  14
TORSDOF 4
ENDMDL
MODEL 3
REMARK VINA RESULT:      -6.1      1.887      2.454
REMARK  Name = 
REMARK  6 active torsions:
REMARK  status: ('A' for Active; 'I' for Inactive)
REMARK    1  A    between atoms: C_1  and  C_2
REMARK    2  A    between atoms: C_2  and  N_3
REMARK    3  A    between atoms: N_3  and  C_4
REMARK    4  A    between atoms: C_4  and  C_5
REMARK    5  A    between atoms: C_6  and  C_8
REMARK    6  A    between atoms: C_13  and  N_14
REMARK                            x       y       z     vdW  Elec       q    Type
REMARK                         _______ _______ _______ _____ _____    ______ ____
ROOT
ATOM      1  C   UNL     1       3.556   3.807  19.281  0.00  0.00    +0.000 A 
ATOM      2  C   UNL     1       2.502   4.683  19.593  0.00  0.00    +0.000 A 
ATOM      3  C   UNL     1       1.765   4.527  20.768  0.00  0.00    +0.000 A 
ATOM      4  C   UNL     1       2.037   3.459  21.617  0.00  0.00    +0.000 A 
ATOM      5  C   UNL     1       3.033   2.541  21.282  0.00  0.00    +0.000 A 
ATOM      6  C   UNL     1       3.771   2.672  20.097  0.00  0.00    +0.000 A 
ENDROOT
BRANCH   1   8
ATOM      7  N   UNL     1       5.510   4.778  17.987  0.00  0.00    +0.000 N 
ATOM      8  C   UNL     1       4.348   3.978  18.023  0.00  0.00    +0.000 C 
ATOM      9  O   UNL     1       3.932   3.396  17.020  0.00  0.00    +0.000 OA
BRANCH   7  11
ATOM     10  C   UNL     1       5.363   6.268  15.991  0.00  0.00    +0.000 C 
ATOM     11  C   UNL     1       6.052   5.086  16.659  0.00  0.00    +0.000 C 
ENDBRANCH   7  11
BRANCH   7  12
ATOM     12  C   UNL     1       6.143   5.360  19.180  0.00  0.00    +0.000 C 
ATOM     13  C   UNL     1       7.594   5.795  19.073  0.00  0.00    +0.000 C 
ENDBRANCH   7  12
ENDBRANCH   1   8
BRANCH   6  14
ATOM     14  N   UNL     1       4.843   1.778  19.878  0.00  0.00    +0.000 N 
ATOM     15  H   UNL     1       5.692   2.242  19.570  0.00  0.00    +0.000 HD
ATOM     16  H   UNL     1       5.017   1.217  20.721  0.00  0.00    +0.000 HD
ENDBRANCH   6  14
TORSDOF 4
ENDMDL
MODEL 4
REMARK VINA RESULT:      -6.1      1.583      4.526
REMARK  Name = 
REMARK  6 active torsions:
REMARK  status: ('A' for Active; 'I' for Inactive)
REMARK    1  A    between atoms: C_1  and  C_2
REMARK    2  A    between atoms: C_2  and  N_3
REMARK    3  A    between atoms: N_3  and  C_4
REMARK    4  A    between atoms: C_4  and  C_5
REMARK    5  A    between atoms: C_6  and  C_8
REMARK    6  A    between atoms: C_13  and  N_14
REMARK                            x       y       z     vdW  Elec       q    Type
REMARK                         _______ _______ _______ _____ _____    ______ ____
ROOT
ATOM      1  C   UNL     1       5.000   4.663  18.019  0.00  0.00    +0.000 A 
ATOM      2  C   UNL     1       4.545   4.416  16.713  0.00  0.00    +0.000 A 
ATOM      3  C   UNL     1       5.444   4.265  15.657  0.00  0.00    +0.000 A 
ATOM      4  C   UNL     1       6.809   4.414  15.886  0.00  0.00    +0.000 A 
ATOM      5  C   UNL     1       7.268   4.730  17.164  0.00  0.00    +0.000 A 
ATOM      6  C   UNL     1       6.377   4.905  18.232  0.00  0.00    +0.000 A 
ENDROOT
BRANCH   1   8
ATOM      7  N   UNL     1       3.534   3.705  19.853  0.00  0.00    +0.000 N 
ATOM      8  C   UNL     1       4.034   4.821  19.151  0.00  0.00    +0.000 C 
ATOM      9  O   UNL     1       3.690   5.970  19.433  0.00  0.00    +0.000 OA
BRANCH   7  11
ATOM     10  C   UNL     1       1.051   3.756  20.092  0.00  0.00    +0.000 C 
ATOM     11  C   UNL     1       2.405   3.953  20.758  0.00  0.00    +0.000 C 
ENDBRANCH   7  11
BRANCH   7  12
ATOM     12  C   UNL     1       4.029   2.332  19.673  0.00  0.00    +0.000 C 
ATOM     13  C   UNL     1       3.446   1.510  18.537  0.00  0.00    +0.000 C 
ENDBRANCH   7  12
ENDBRANCH   1   8
BRANCH   6  14
ATOM     14  N   UNL     1       6.916   5.105  19.523  0.00  0.00    +0.000 N 
ATOM     15  H   UNL     1       7.602   4.402  19.782  0.00  0.00    +0.000 HD
ATOM     16  H   UNL     1       7.313   6.049  19.601  0.00  0.00    +0.000 HD
ENDBRANCH   6  14
TORSDOF 4
ENDMDL
MODEL 5
REMARK VINA RESULT:      -6.1      2.186      5.256
REMARK  Name = 
REMARK  6 active torsions:
REMARK  status: ('A' for Active; 'I' for Inactive)
REMARK    1  A    between atoms: C_1  and  C_2
REMARK    2  A    between atoms: C_2  and  N_3
REMARK    3  A    between atoms: N_3  and  C_4
REMARK    4  A    between atoms: C_4  and  C_5
REMARK    5  A    between atoms: C_6  and  C_8
REMARK    6  A    between atoms: C_13  and  N_14
REMARK                            x       y       z     vdW  Elec       q    Type
REMARK                         _______ _______ _______ _____ _____    ______ ____
ROOT
ATOM      1  C   UNL     1       5.429   5.459  17.822  0.00  0.00    +0.000 A 
ATOM      2  C   UNL     1       6.096   5.107  19.009  0.00  0.00    +0.000 A 
ATOM      3  C   UNL     1       7.309   5.705  19.353  0.00  0.00    +0.000 A 
ATOM      4  C   UNL     1       7.896   6.622  18.488  0.00  0.00    +0.000 A 
ATOM      5  C   UNL     1       7.279   6.927  17.274  0.00  0.00    +0.000 A 
ATOM      6  C   UNL     1       6.071   6.321  16.904  0.00  0.00    +0.000 A 
ENDROOT
BRANCH   1   8
ATOM      7  N   UNL     1       2.903   5.291  17.977  0.00  0.00    +0.000 N 
ATOM      8  C   UNL     1       4.127   4.820  17.456  0.00  0.00    +0.000 C 
ATOM      9  O   UNL     1       4.175   3.858  16.688  0.00  0.00    +0.000 OA
BRANCH   7  11
ATOM     10  C   UNL     1       1.299   3.688  19.017  0.00  0.00    +0.000 C 
ATOM     11  C   UNL     1       1.729   4.437  17.764  0.00  0.00    +0.000 C 
ENDBRANCH   7  11
BRANCH   7  12
ATOM     12  C   UNL     1       2.766   6.527  18.761  0.00  0.00    +0.000 C 
ATOM     13  C   UNL     1       2.579   7.831  18.006  0.00  0.00    +0.000 C 
ENDBRANCH   7  12
ENDBRANCH   1   8
BRANCH   6  14
ATOM     14  N   UNL     1       5.441   6.763  15.718  0.00  0.00    +0.000 N 
ATOM     15  H   UNL     1       4.476   7.044  15.861  0.00  0.00    +0.000 HD
ATOM     16  H   UNL     1       5.983   7.522  15.288  0.00  0.00    +0.000 HD
ENDBRANCH   6  14
TORSDOF 4
ENDMDL
MODEL 6
REMARK VINA RESULT:      -6.1      1.930      2.641
REMARK  Name = 
REMARK  6 active torsions:
REMARK  status: ('A' for Active; 'I' for Inactive)
REMARK    1  A    between atoms: C_1  and  C_2
REMARK    2  A    between atoms: C_2  and  N_3
REMARK    3  A    between atoms: N_3  and  C_4
REMARK    4  A    between atoms: C_4  and  C_5
REMARK    5  A    between atoms: C_6  and  C_8
REMARK    6  A    between atoms: C_13  and  N_14
REMARK                            x       y       z     vdW  Elec       q    Type
REMARK                         _______ _______ _______ _____ _____    ______ ____
ROOT
ATOM      1  C   UNL     1       3.063   3.317  19.055  0.00  0.00    +0.000 A 
ATOM      2  C   UNL     1       1.772   3.873  19.079  0.00  0.00    +0.000 A 
ATOM      3  C   UNL     1       1.008   3.858  20.247  0.00  0.00    +0.000 A 
ATOM      4  C   UNL     1       1.504   3.239  21.389  0.00  0.00    +0.000 A 
ATOM      5  C   UNL     1       2.755   2.622  21.357  0.00  0.00    +0.000 A 
ATOM      6  C   UNL     1       3.528   2.610  20.188  0.00  0.00    +0.000 A 
ENDROOT
BRANCH   1   8
ATOM      7  N   UNL     1       4.524   4.513  17.361  0.00  0.00    +0.000 N 
ATOM      8  C   UNL     1       3.883   3.337  17.804  0.00  0.00    +0.000 C 
ATOM      9  O   UNL     1       3.963   2.280  17.174  0.00  0.00    +0.000 OA
BRANCH   7  11
ATOM     10  C   UNL     1       6.596   4.426  15.973  0.00  0.00    +0.000 C 
ATOM     11  C   UNL     1       5.075   4.486  16.001  0.00  0.00    +0.000 C 
ENDBRANCH   7  11
BRANCH   7  12
ATOM     12  C   UNL     1       4.601   5.752  18.149  0.00  0.00    +0.000 C 
ATOM     13  C   UNL     1       3.677   6.895  17.768  0.00  0.00    +0.000 C 
ENDBRANCH   7  12
ENDBRANCH   1   8
BRANCH   6  14
ATOM     14  N   UNL     1       4.833   2.072  20.258  0.00  0.00    +0.000 N 
ATOM     15  H   UNL     1       5.170   1.726  19.365  0.00  0.00    +0.000 HD
ATOM     16  H   UNL     1       5.483   2.764  20.651  0.00  0.00    +0.000 HD
ENDBRANCH   6  14
TORSDOF 4
ENDMDL
MODEL 7
REMARK VINA RESULT:      -6.0      1.983      4.919
REMARK  Name = 
REMARK  6 active torsions:
REMARK  status: ('A' for Active; 'I' for Inactive)
REMARK    1  A    between atoms: C_1  and  C_2
REMARK    2  A    between atoms: C_2  and  N_3
REMARK    3  A    between atoms: N_3  and  C_4
REMARK    4  A    between atoms: C_4  and  C_5
REMARK    5  A    between atoms: C_6  and  C_8
REMARK    6  A    between atoms: C_13  and  N_14
REMARK                            x       y       z     vdW  Elec       q    Type
REMARK                         _______ _______ _______ _____ _____    ______ ____
ROOT
ATOM      1  C   UNL     1       5.341   5.567  17.624  0.00  0.00    +0.000 A 
ATOM      2  C   UNL     1       5.754   6.757  16.999  0.00  0.00    +0.000 A 
ATOM      3  C   UNL     1       6.982   7.341  17.312  0.00  0.00    +0.000 A 
ATOM      4  C   UNL     1       7.787   6.772  18.293  0.00  0.00    +0.000 A 
ATOM      5  C   UNL     1       7.356   5.631  18.971  0.00  0.00    +0.000 A 
ATOM      6  C   UNL     1       6.117   5.042  18.683  0.00  0.00    +0.000 A 
ENDROOT
BRANCH   1   8
ATOM      7  N   UNL     1       2.826   5.370  17.890  0.00  0.00    +0.000 N 
ATOM      8  C   UNL     1       4.026   4.939  17.285  0.00  0.00    +0.000 C 
ATOM      9  O   UNL     1       4.042   4.022  16.461  0.00  0.00    +0.000 OA
BRANCH   7  11
ATOM     10  C   UNL     1       1.375   3.584  18.855  0.00  0.00    +0.000 C 
ATOM     11  C   UNL     1       1.648   4.519  17.686  0.00  0.00    +0.000 C 
ENDBRANCH   7  11
BRANCH   7  12
ATOM     12  C   UNL     1       2.721   6.558  18.750  0.00  0.00    +0.000 C 
ATOM     13  C   UNL     1       2.396   7.886  18.089  0.00  0.00    +0.000 C 
ENDBRANCH   7  12
ENDBRANCH   1   8
BRANCH   6  14
ATOM     14  N   UNL     1       5.796   3.823  19.321  0.00  0.00    +0.000 N 
ATOM     15  H   UNL     1       4.852   3.505  19.121  0.00  0.00    +0.000 HD
ATOM     16  H   UNL     1       6.485   3.101  19.077  0.00  0.00    +0.000 HD
ENDBRANCH   6  14
TORSDOF 4
ENDMDL
MODEL 8
REMARK VINA RESULT:      -6.0      1.233      1.249
REMARK  Name = 
REMARK  6 active torsions:
REMARK  status: ('A' for Active; 'I' for Inactive)
REMARK    1  A    between atoms: C_1  and  C_2
REMARK    2  A    between atoms: C_2  and  N_3
REMARK    3  A    between atoms: N_3  and  C_4
REMARK    4  A    between atoms: C_4  and  C_5
REMARK    5  A    between atoms: C_6  and  C_8
REMARK    6  A    between atoms: C_13  and  N_14
REMARK                            x       y       z     vdW  Elec       q    Type
REMARK                         _______ _______ _______ _____ _____    ______ ____
ROOT
ATOM      1  C   UNL     1       4.173   4.481  19.545  0.00  0.00    +0.000 A 
ATOM      2  C   UNL     1       3.081   5.355  19.682  0.00  0.00    +0.000 A 
ATOM      3  C   UNL     1       1.839   4.889  20.114  0.00  0.00    +0.000 A 
ATOM      4  C   UNL     1       1.659   3.532  20.364  0.00  0.00    +0.000 A 
ATOM      5  C   UNL     1       2.716   2.643  20.164  0.00  0.00    +0.000 A 
ATOM      6  C   UNL     1       3.965   3.092  19.711  0.00  0.00    +0.000 A 
ENDROOT
BRANCH   1   8
ATOM      7  N   UNL     1       5.786   5.176  17.716  0.00  0.00    +0.000 N 
ATOM      8  C   UNL     1       5.505   4.982  19.085  0.00  0.00    +0.000 C 
ATOM      9  O   UNL     1       6.347   5.207  19.957  0.00  0.00    +0.000 OA
BRANCH   7  11
ATOM     10  C   UNL     1       7.547   6.892  17.294  0.00  0.00    +0.000 C 
ATOM     11  C   UNL     1       7.190   5.414  17.364  0.00  0.00    +0.000 C 
ENDBRANCH   7  11
BRANCH   7  12
ATOM     12  C   UNL     1       4.777   5.083  16.650  0.00  0.00    +0.000 C 
ATOM     13  C   UNL     1       5.222   4.557  15.296  0.00  0.00    +0.000 C 
ENDBRANCH   7  12
ENDBRANCH   1   8
BRANCH   6  14
ATOM     14  N   UNL     1       5.023   2.157  19.644  0.00  0.00    +0.000 N 
ATOM     15  H   UNL     1       5.688   2.253  20.407  0.00  0.00    +0.000 HD
ATOM     16  H   UNL     1       4.652   1.201  19.601  0.00  0.00    +0.000 HD
ENDBRANCH   6  14
TORSDOF 4
ENDMDL
MODEL 9
REMARK VINA RESULT:      -6.0      1.764      4.603
REMARK  Name = 
REMARK  6 active torsions:
REMARK  status: ('A' for Active; 'I' for Inactive)
REMARK    1  A    between atoms: C_1  and  C_2
REMARK    2  A    between atoms: C_2  and  N_3
REMARK    3  A    between atoms: N_3  and  C_4
REMARK    4  A    between atoms: C_4  and  C_5
REMARK    5  A    between atoms: C_6  and  C_8
REMARK    6  A    between atoms: C_13  and  N_14
REMARK                            x       y       z     vdW  Elec       q    Type
REMARK                         _______ _______ _______ _____ _____    ______ ____
ROOT
ATOM      1  C   UNL     1       5.255   4.099  17.942  0.00  0.00    +0.000 A 
ATOM      2  C   UNL     1       4.890   3.761  16.627  0.00  0.00    +0.000 A 
ATOM      3  C   UNL     1       5.732   4.051  15.553  0.00  0.00    +0.000 A 
ATOM      4  C   UNL     1       6.925   4.731  15.774  0.00  0.00    +0.000 A 
ATOM      5  C   UNL     1       7.265   5.135  17.065  0.00  0.00    +0.000 A 
ATOM      6  C   UNL     1       6.422   4.870  18.154  0.00  0.00    +0.000 A 
ENDROOT
BRANCH   1   8
ATOM      7  N   UNL     1       3.139   4.477  19.289  0.00  0.00    +0.000 N 
ATOM      8  C   UNL     1       4.354   3.785  19.094  0.00  0.00    +0.000 C 
ATOM      9  O   UNL     1       4.727   2.901  19.868  0.00  0.00    +0.000 OA
BRANCH   7  11
ATOM     10  C   UNL     1       1.054   3.738  20.442  0.00  0.00    +0.000 C 
ATOM     11  C   UNL     1       2.472   4.274  20.580  0.00  0.00    +0.000 C 
ENDBRANCH   7  11
BRANCH   7  12
ATOM     12  C   UNL     1       2.566   5.419  18.317  0.00  0.00    +0.000 C 
ATOM     13  C   UNL     1       2.917   6.890  18.460  0.00  0.00    +0.000 C 
ENDBRANCH   7  12
ENDBRANCH   1   8
BRANCH   6  14
ATOM     14  N   UNL     1       6.882   5.201  19.448  0.00  0.00    +0.000 N 
ATOM     15  H   UNL     1       7.164   6.173  19.535  0.00  0.00    +0.000 HD
ATOM     16  H   UNL     1       6.173   4.961  20.151  0.00  0.00    +0.000 HD
ENDBRANCH   6  14
TORSDOF 4
ENDMDL
