MODEL 1
REMARK VINA RESULT:      -8.2      0.000      0.000
REMARK  Name = 
REMARK  7 active torsions:
REMARK  status: ('A' for Active; 'I' for Inactive)
REMARK    1  A    between atoms: C_1  and  N_2
REMARK    2  A    between atoms: N_2  and  C_3
REMARK    3  A    between atoms: N_2  and  C_16
REMARK    4  A    between atoms: C_3  and  C_4
REMARK    5  A    between atoms: C_5  and  C_6
REMARK    6  A    between atoms: C_9  and  C_10
REMARK    7  A    between atoms: C_16  and  C_17
REMARK                            x       y       z     vdW  Elec       q    Type
REMARK                         _______ _______ _______ _____ _____    ______ ____
ROOT
ATOM      1  C   UNL     1       6.459   4.196  15.615  0.00  0.00    +0.000 C 
ATOM      2  N   UNL     1       5.413   4.651  16.556  0.00  0.00    +0.000 NA
ENDROOT
BRANCH   2   3
ATOM      3  C   UNL     1       5.200   6.114  16.436  0.00  0.00    +0.000 C 
BRANCH   3   4
ATOM      4  C   UNL     1       4.451   6.652  17.633  0.00  0.00    +0.000 C 
ATOM      5  C   UNL     1       3.184   7.088  17.517  0.00  0.00    +0.000 C 
BRANCH   5   6
ATOM      6  C   UNL     1       2.404   7.701  18.625  0.00  0.00    +0.000 A 
ATOM      7  C   UNL     1       2.298   6.988  19.829  0.00  0.00    +0.000 A 
ATOM      8  C   UNL     1       1.540   7.487  20.890  0.00  0.00    +0.000 A 
ATOM      9  C   UNL     1       0.886   8.724  20.778  0.00  0.00    +0.000 A 
ATOM     10  C   UNL     1       1.010   9.453  19.584  0.00  0.00    +0.000 A 
ATOM     11  C   UNL     1       1.754   8.946  18.514  0.00  0.00    +0.000 A 
BRANCH   9  12
ATOM     12  C   UNL     1       0.052   9.281  21.904  0.00  0.00    +0.000 C 
ATOM     13  F   UNL     1      -0.896   8.370  22.340  0.00  0.00    +0.000 F 
ATOM     14  F   UNL     1       0.872   9.608  22.969  0.00  0.00    +0.000 F 
ATOM     15  F   UNL     1      -0.604  10.420  21.473  0.00  0.00    +0.000 F 
ENDBRANCH   9  12
ENDBRANCH   5   6
ENDBRANCH   3   4
ENDBRANCH   2   3
BRANCH   2  16
ATOM     16  C   UNL     1       4.178   3.894  16.251  0.00  0.00    +0.000 C 
BRANCH  16  17
ATOM     17  C   UNL     1       3.322   3.653  17.465  0.00  0.00    +0.000 A 
ATOM     18  C   UNL     1       1.916   3.839  17.382  0.00  0.00    +0.000 A 
ATOM     19  C   UNL     1       1.095   3.608  18.499  0.00  0.00    +0.000 A 
ATOM     20  C   UNL     1       1.705   3.195  19.677  0.00  0.00    +0.000 A 
ATOM     21  C   UNL     1       1.168   2.890  20.906  0.00  0.00    +0.000 A 
ATOM     22  C   UNL     1       2.248   2.531  21.703  0.00  0.00    +0.000 A 
ATOM     23  N   UNL     1       3.403   2.608  21.001  0.00  0.00    +0.000 N 
ATOM     24  C   UNL     1       3.061   3.013  19.767  0.00  0.00    +0.000 A 
ATOM     25  C   UNL     1       3.906   3.234  18.677  0.00  0.00    +0.000 A 
ATOM     26  H   UNL     1       4.361   2.392  21.349  0.00  0.00    +0.000 HD
ENDBRANCH  16  17
ENDBRANCH   2  16
TORSDOF 6
ENDMDL
MODEL 2
REMARK VINA RESULT:      -8.0      1.053      1.778
REMARK  Name = 
REMARK  7 active torsions:
REMARK  status: ('A' for Active; 'I' for Inactive)
REMARK    1  A    between atoms: C_1  and  N_2
REMARK    2  A    between atoms: N_2  and  C_3
REMARK    3  A    between atoms: N_2  and  C_16
REMARK    4  A    between atoms: C_3  and  C_4
REMARK    5  A    between atoms: C_5  and  C_6
REMARK    6  A    between atoms: C_9  and  C_10
REMARK    7  A    between atoms: C_16  and  C_17
REMARK                            x       y       z     vdW  Elec       q    Type
REMARK                         _______ _______ _______ _____ _____    ______ ____
ROOT
ATOM      1  C   UNL     1       7.397   4.780  17.342  0.00  0.00    +0.000 C 
ATOM      2  N   UNL     1       5.942   5.034  17.416  0.00  0.00    +0.000 NA
ENDROOT
BRANCH   2   3
ATOM      3  C   UNL     1       5.552   6.126  16.491  0.00  0.00    +0.000 C 
BRANCH   3   4
ATOM      4  C   UNL     1       4.666   7.134  17.186  0.00  0.00    +0.000 C 
ATOM      5  C   UNL     1       3.553   6.745  17.834  0.00  0.00    +0.000 C 
BRANCH   5   6
ATOM      6  C   UNL     1       2.589   7.676  18.476  0.00  0.00    +0.000 A 
ATOM      7  C   UNL     1       2.105   8.752  17.716  0.00  0.00    +0.000 A 
ATOM      8  C   UNL     1       1.236   9.690  18.276  0.00  0.00    +0.000 A 
ATOM      9  C   UNL     1       0.811   9.560  19.609  0.00  0.00    +0.000 A 
ATOM     10  C   UNL     1       1.273   8.471  20.365  0.00  0.00    +0.000 A 
ATOM     11  C   UNL     1       2.159   7.541  19.811  0.00  0.00    +0.000 A 
BRANCH   9  12
ATOM     12  C   UNL     1      -0.119  10.564  20.242  0.00  0.00    +0.000 C 
ATOM     13  F   UNL     1       0.540  11.738  20.569  0.00  0.00    +0.000 F 
ATOM     14  F   UNL     1      -1.143  10.864  19.363  0.00  0.00    +0.000 F 
ATOM     15  F   UNL     1      -0.657  10.028  21.398  0.00  0.00    +0.000 F 
ENDBRANCH   9  12
ENDBRANCH   5   6
ENDBRANCH   3   4
ENDBRANCH   2   3
BRANCH   2  16
ATOM     16  C   UNL     1       5.251   3.767  17.084  0.00  0.00    +0.000 C 
BRANCH  16  17
ATOM     17  C   UNL     1       4.028   3.527  17.928  0.00  0.00    +0.000 A 
ATOM     18  C   UNL     1       2.746   3.497  17.317  0.00  0.00    +0.000 A 
ATOM     19  C   UNL     1       1.592   3.262  18.083  0.00  0.00    +0.000 A 
ATOM     20  C   UNL     1       1.750   3.061  19.449  0.00  0.00    +0.000 A 
ATOM     21  C   UNL     1       0.823   2.806  20.431  0.00  0.00    +0.000 A 
ATOM     22  C   UNL     1       1.551   2.689  21.608  0.00  0.00    +0.000 A 
ATOM     23  N   UNL     1       2.872   2.863  21.367  0.00  0.00    +0.000 N 
ATOM     24  C   UNL     1       2.983   3.088  20.048  0.00  0.00    +0.000 A 
ATOM     25  C   UNL     1       4.150   3.320  19.317  0.00  0.00    +0.000 A 
ATOM     26  H   UNL     1       3.645   2.825  22.066  0.00  0.00    +0.000 HD
ENDBRANCH  16  17
ENDBRANCH   2  16
TORSDOF 6
ENDMDL
MODEL 3
REMARK VINA RESULT:      -7.4      0.759      1.227
REMARK  Name = 
REMARK  7 active torsions:
REMARK  status: ('A' for Active; 'I' for Inactive)
REMARK    1  A    between atoms: C_1  and  N_2
REMARK    2  A    between atoms: N_2  and  C_3
REMARK    3  A    between atoms: N_2  and  C_16
REMARK    4  A    between atoms: C_3  and  C_4
REMARK    5  A    between atoms: C_5  and  C_6
REMARK    6  A    between atoms: C_9  and  C_10
REMARK    7  A    between atoms: C_16  and  C_17
REMARK                            x       y       z     vdW  Elec       q    Type
REMARK                         _______ _______ _______ _____ _____    ______ ____
ROOT
ATOM      1  C   UNL     1       6.740   4.034  15.883  0.00  0.00    +0.000 C 
ATOM      2  N   UNL     1       5.521   4.701  16.386  0.00  0.00    +0.000 NA
ENDROOT
BRANCH   2   3
ATOM      3  C   UNL     1       5.310   5.998  15.698  0.00  0.00    +0.000 C 
BRANCH   3   4
ATOM      4  C   UNL     1       4.179   6.772  16.336  0.00  0.00    +0.000 C 
ATOM      5  C   UNL     1       4.197   7.066  17.649  0.00  0.00    +0.000 C 
BRANCH   5   6
ATOM      6  C   UNL     1       3.093   7.754  18.368  0.00  0.00    +0.000 A 
ATOM      7  C   UNL     1       2.633   7.188  19.567  0.00  0.00    +0.000 A 
ATOM      8  C   UNL     1       1.567   7.760  20.265  0.00  0.00    +0.000 A 
ATOM      9  C   UNL     1       0.948   8.927  19.788  0.00  0.00    +0.000 A 
ATOM     10  C   UNL     1       1.421   9.510  18.602  0.00  0.00    +0.000 A 
ATOM     11  C   UNL     1       2.477   8.928  17.892  0.00  0.00    +0.000 A 
BRANCH   9  12
ATOM     12  C   UNL     1      -0.212   9.558  20.516  0.00  0.00    +0.000 C 
ATOM     13  F   UNL     1       0.127  10.791  21.048  0.00  0.00    +0.000 F 
ATOM     14  F   UNL     1      -1.267   9.732  19.639  0.00  0.00    +0.000 F 
ATOM     15  F   UNL     1      -0.613   8.731  21.549  0.00  0.00    +0.000 F 
ENDBRANCH   9  12
ENDBRANCH   5   6
ENDBRANCH   3   4
ENDBRANCH   2   3
BRANCH   2  16
ATOM     16  C   UNL     1       4.384   3.778  16.168  0.00  0.00    +0.000 C 
BRANCH  16  17
ATOM     17  C   UNL     1       3.488   3.655  17.370  0.00  0.00    +0.000 A 
ATOM     18  C   UNL     1       2.111   3.986  17.259  0.00  0.00    +0.000 A 
ATOM     19  C   UNL     1       1.253   3.866  18.365  0.00  0.00    +0.000 A 
ATOM     20  C   UNL     1       1.797   3.415  19.561  0.00  0.00    +0.000 A 
ATOM     21  C   UNL     1       1.212   3.194  20.786  0.00  0.00    +0.000 A 
ATOM     22  C   UNL     1       2.234   2.740  21.610  0.00  0.00    +0.000 A 
ATOM     23  N   UNL     1       3.402   2.680  20.927  0.00  0.00    +0.000 N 
ATOM     24  C   UNL     1       3.124   3.093  19.679  0.00  0.00    +0.000 A 
ATOM     25  C   UNL     1       4.005   3.201  18.601  0.00  0.00    +0.000 A 
ATOM     26  H   UNL     1       4.326   2.372  21.296  0.00  0.00    +0.000 HD
ENDBRANCH  16  17
ENDBRANCH   2  16
TORSDOF 6
ENDMDL
MODEL 4
REMARK VINA RESULT:      -7.3      5.700      6.603
REMARK  Name = 
REMARK  7 active torsions:
REMARK  status: ('A' for Active; 'I' for Inactive)
REMARK    1  A    between atoms: C_1  and  N_2
REMARK    2  A    between atoms: N_2  and  C_3
REMARK    3  A    between atoms: N_2  and  C_16
REMARK    4  A    between atoms: C_3  and  C_4
REMARK    5  A    between atoms: C_5  and  C_6
REMARK    6  A    between atoms: C_9  and  C_10
REMARK    7  A    between atoms: C_16  and  C_17
REMARK                            x       y       z     vdW  Elec       q    Type
REMARK                         _______ _______ _______ _____ _____    ______ ____
ROOT
ATOM      1  C   UNL     1       6.360   4.484  17.642  0.00  0.00    +0.000 C 
ATOM      2  N   UNL     1       6.237   5.918  17.982  0.00  0.00    +0.000 NA
ENDROOT
BRANCH   2   3
ATOM      3  C   UNL     1       7.242   6.721  17.244  0.00  0.00    +0.000 C 
BRANCH   3   4
ATOM      4  C   UNL     1       7.778   7.842  18.105  0.00  0.00    +0.000 C 
ATOM      5  C   UNL     1       8.085   9.037  17.570  0.00  0.00    +0.000 C 
BRANCH   5   6
ATOM      6  C   UNL     1       8.686  10.165  18.329  0.00  0.00    +0.000 A 
ATOM      7  C   UNL     1       8.693  11.434  17.729  0.00  0.00    +0.000 A 
ATOM      8  C   UNL     1       9.287  12.524  18.369  0.00  0.00    +0.000 A 
ATOM      9  C   UNL     1       9.869  12.374  19.638  0.00  0.00    +0.000 A 
ATOM     10  C   UNL     1       9.841  11.112  20.253  0.00  0.00    +0.000 A 
ATOM     11  C   UNL     1       9.264  10.015  19.605  0.00  0.00    +0.000 A 
BRANCH   9  12
ATOM     12  C   UNL     1      10.526  13.531  20.347  0.00  0.00    +0.000 C 
ATOM     13  F   UNL     1      10.061  14.749  19.880  0.00  0.00    +0.000 F 
ATOM     14  F   UNL     1      10.265  13.451  21.703  0.00  0.00    +0.000 F 
ATOM     15  F   UNL     1      11.893  13.478  20.146  0.00  0.00    +0.000 F 
ENDBRANCH   9  12
ENDBRANCH   5   6
ENDBRANCH   3   4
ENDBRANCH   2   3
BRANCH   2  16
ATOM     16  C   UNL     1       4.856   6.338  17.651  0.00  0.00    +0.000 C 
BRANCH  16  17
ATOM     17  C   UNL     1       3.809   5.440  18.254  0.00  0.00    +0.000 A 
ATOM     18  C   UNL     1       2.947   4.696  17.404  0.00  0.00    +0.000 A 
ATOM     19  C   UNL     1       1.970   3.842  17.944  0.00  0.00    +0.000 A 
ATOM     20  C   UNL     1       1.881   3.753  19.327  0.00  0.00    +0.000 A 
ATOM     21  C   UNL     1       1.044   3.009  20.126  0.00  0.00    +0.000 A 
ATOM     22  C   UNL     1       1.409   3.313  21.431  0.00  0.00    +0.000 A 
ATOM     23  N   UNL     1       2.427   4.206  21.443  0.00  0.00    +0.000 N 
ATOM     24  C   UNL     1       2.708   4.467  20.155  0.00  0.00    +0.000 A 
ATOM     25  C   UNL     1       3.688   5.325  19.654  0.00  0.00    +0.000 A 
ATOM     26  H   UNL     1       2.899   4.605  22.283  0.00  0.00    +0.000 HD
ENDBRANCH  16  17
ENDBRANCH   2  16
TORSDOF 6
ENDMDL
MODEL 5
REMARK VINA RESULT:      -7.2      0.790      1.394
REMARK  Name = 
REMARK  7 active torsions:
REMARK  status: ('A' for Active; 'I' for Inactive)
REMARK    1  A    between atoms: C_1  and  N_2
REMARK    2  A    between atoms: N_2  and  C_3
REMARK    3  A    between atoms: N_2  and  C_16
REMARK    4  A    between atoms: C_3  and  C_4
REMARK    5  A    between atoms: C_5  and  C_6
REMARK    6  A    between atoms: C_9  and  C_10
REMARK    7  A    between atoms: C_16  and  C_17
REMARK                            x       y       z     vdW  Elec       q    Type
REMARK                         _______ _______ _______ _____ _____    ______ ____
ROOT
ATOM      1  C   UNL     1       6.570   4.085  15.283  0.00  0.00    +0.000 C 
ATOM      2  N   UNL     1       5.717   4.493  16.420  0.00  0.00    +0.000 NA
ENDROOT
BRANCH   2   3
ATOM      3  C   UNL     1       5.813   5.954  16.652  0.00  0.00    +0.000 C 
BRANCH   3   4
ATOM      4  C   UNL     1       4.717   6.430  17.577  0.00  0.00    +0.000 C 
ATOM      5  C   UNL     1       3.890   7.427  17.214  0.00  0.00    +0.000 C 
BRANCH   5   6
ATOM      6  C   UNL     1       2.838   8.004  18.091  0.00  0.00    +0.000 A 
ATOM      7  C   UNL     1       2.255   9.222  17.706  0.00  0.00    +0.000 A 
ATOM      8  C   UNL     1       1.296   9.841  18.511  0.00  0.00    +0.000 A 
ATOM      9  C   UNL     1       0.882   9.243  19.713  0.00  0.00    +0.000 A 
ATOM     10  C   UNL     1       1.445   8.013  20.089  0.00  0.00    +0.000 A 
ATOM     11  C   UNL     1       2.419   7.401  19.292  0.00  0.00    +0.000 A 
BRANCH   9  12
ATOM     12  C   UNL     1      -0.143   9.895  20.606  0.00  0.00    +0.000 C 
ATOM     13  F   UNL     1      -1.276  10.265  19.902  0.00  0.00    +0.000 F 
ATOM     14  F   UNL     1      -0.514   9.012  21.604  0.00  0.00    +0.000 F 
ATOM     15  F   UNL     1       0.402  11.027  21.184  0.00  0.00    +0.000 F 
ENDBRANCH   9  12
ENDBRANCH   5   6
ENDBRANCH   3   4
ENDBRANCH   2   3
BRANCH   2  16
ATOM     16  C   UNL     1       4.329   4.083  16.105  0.00  0.00    +0.000 C 
BRANCH  16  17
ATOM     17  C   UNL     1       3.506   3.803  17.333  0.00  0.00    +0.000 A 
ATOM     18  C   UNL     1       2.118   4.103  17.333  0.00  0.00    +0.000 A 
ATOM     19  C   UNL     1       1.327   3.839  18.464  0.00  0.00    +0.000 A 
ATOM     20  C   UNL     1       1.949   3.278  19.573  0.00  0.00    +0.000 A 
ATOM     21  C   UNL     1       1.440   2.908  20.796  0.00  0.00    +0.000 A 
ATOM     22  C   UNL     1       2.518   2.399  21.508  0.00  0.00    +0.000 A 
ATOM     23  N   UNL     1       3.646   2.448  20.761  0.00  0.00    +0.000 N 
ATOM     24  C   UNL     1       3.288   2.985  19.583  0.00  0.00    +0.000 A 
ATOM     25  C   UNL     1       4.103   3.235  18.477  0.00  0.00    +0.000 A 
ATOM     26  H   UNL     1       4.597   2.130  21.044  0.00  0.00    +0.000 HD
ENDBRANCH  16  17
ENDBRANCH   2  16
TORSDOF 6
ENDMDL
MODEL 6
REMARK VINA RESULT:      -7.2      5.786      6.523
REMARK  Name = 
REMARK  7 active torsions:
REMARK  status: ('A' for Active; 'I' for Inactive)
REMARK    1  A    between atoms: C_1  and  N_2
REMARK    2  A    between atoms: N_2  and  C_3
REMARK    3  A    between atoms: N_2  and  C_16
REMARK    4  A    between atoms: C_3  and  C_4
REMARK    5  A    between atoms: C_5  and  C_6
REMARK    6  A    between atoms: C_9  and  C_10
REMARK    7  A    between atoms: C_16  and  C_17
REMARK                            x       y       z     vdW  Elec       q    Type
REMARK                         _______ _______ _______ _____ _____    ______ ____
ROOT
ATOM      1  C   UNL     1       7.818   5.751  19.102  0.00  0.00    +0.000 C 
ATOM      2  N   UNL     1       6.692   6.265  18.294  0.00  0.00    +0.000 NA
ENDROOT
BRANCH   2   3
ATOM      3  C   UNL     1       7.176   7.217  17.264  0.00  0.00    +0.000 C 
BRANCH   3   4
ATOM      4  C   UNL     1       7.443   8.577  17.866  0.00  0.00    +0.000 C 
ATOM      5  C   UNL     1       8.692   9.074  17.925  0.00  0.00    +0.000 C 
BRANCH   5   6
ATOM      6  C   UNL     1       9.050  10.366  18.567  0.00  0.00    +0.000 A 
ATOM      7  C   UNL     1       9.493  10.339  19.899  0.00  0.00    +0.000 A 
ATOM      8  C   UNL     1       9.798  11.522  20.574  0.00  0.00    +0.000 A 
ATOM      9  C   UNL     1       9.689  12.762  19.924  0.00  0.00    +0.000 A 
ATOM     10  C   UNL     1       9.270  12.791  18.583  0.00  0.00    +0.000 A 
ATOM     11  C   UNL     1       8.946  11.608  17.911  0.00  0.00    +0.000 A 
BRANCH   9  12
ATOM     12  C   UNL     1      10.001  14.056  20.632  0.00  0.00    +0.000 C 
ATOM     13  F   UNL     1       9.774  13.962  21.995  0.00  0.00    +0.000 F 
ATOM     14  F   UNL     1      11.329  14.384  20.429  0.00  0.00    +0.000 F 
ATOM     15  F   UNL     1       9.203  15.064  20.124  0.00  0.00    +0.000 F 
ENDBRANCH   9  12
ENDBRANCH   5   6
ENDBRANCH   3   4
ENDBRANCH   2   3
BRANCH   2  16
ATOM     16  C   UNL     1       6.013   5.100  17.682  0.00  0.00    +0.000 C 
BRANCH  16  17
ATOM     17  C   UNL     1       4.657   4.831  18.277  0.00  0.00    +0.000 A 
ATOM     18  C   UNL     1       3.522   5.531  17.787  0.00  0.00    +0.000 A 
ATOM     19  C   UNL     1       2.245   5.287  18.320  0.00  0.00    +0.000 A 
ATOM     20  C   UNL     1       2.135   4.343  19.334  0.00  0.00    +0.000 A 
ATOM     21  C   UNL     1       1.035   3.897  20.028  0.00  0.00    +0.000 A 
ATOM     22  C   UNL     1       1.519   2.947  20.919  0.00  0.00    +0.000 A 
ATOM     23  N   UNL     1       2.859   2.808  20.783  0.00  0.00    +0.000 N 
ATOM     24  C   UNL     1       3.224   3.663  19.813  0.00  0.00    +0.000 A 
ATOM     25  C   UNL     1       4.508   3.881  19.309  0.00  0.00    +0.000 A 
ATOM     26  H   UNL     1       3.478   2.164  21.319  0.00  0.00    +0.000 HD
ENDBRANCH  16  17
ENDBRANCH   2  16
TORSDOF 6
ENDMDL
MODEL 7
REMARK VINA RESULT:      -7.1      6.104      6.965
REMARK  Name = 
REMARK  7 active torsions:
REMARK  status: ('A' for Active; 'I' for Inactive)
REMARK    1  A    between atoms: C_1  and  N_2
REMARK    2  A    between atoms: N_2  and  C_3
REMARK    3  A    between atoms: N_2  and  C_16
REMARK    4  A    between atoms: C_3  and  C_4
REMARK    5  A    between atoms: C_5  and  C_6
REMARK    6  A    between atoms: C_9  and  C_10
REMARK    7  A    between atoms: C_16  and  C_17
REMARK                            x       y       z     vdW  Elec       q    Type
REMARK                         _______ _______ _______ _____ _____    ______ ____
ROOT
ATOM      1  C   UNL     1       7.790   5.455  18.972  0.00  0.00    +0.000 C 
ATOM      2  N   UNL     1       6.888   6.277  18.135  0.00  0.00    +0.000 NA
ENDROOT
BRANCH   2   3
ATOM      3  C   UNL     1       7.661   7.270  17.350  0.00  0.00    +0.000 C 
BRANCH   3   4
ATOM      4  C   UNL     1       8.078   8.437  18.214  0.00  0.00    +0.000 C 
ATOM      5  C   UNL     1       8.502   9.589  17.663  0.00  0.00    +0.000 C 
BRANCH   5   6
ATOM      6  C   UNL     1       9.001  10.755  18.438  0.00  0.00    +0.000 A 
ATOM      7  C   UNL     1       8.913  12.025  17.847  0.00  0.00    +0.000 A 
ATOM      8  C   UNL     1       9.408  13.154  18.503  0.00  0.00    +0.000 A 
ATOM      9  C   UNL     1       9.986  13.041  19.777  0.00  0.00    +0.000 A 
ATOM     10  C   UNL     1      10.054  11.775  20.382  0.00  0.00    +0.000 A 
ATOM     11  C   UNL     1       9.575  10.641  19.719  0.00  0.00    +0.000 A 
BRANCH   9  12
ATOM     12  C   UNL     1      10.539  14.242  20.503  0.00  0.00    +0.000 C 
ATOM     13  F   UNL     1      11.876  14.448  20.208  0.00  0.00    +0.000 F 
ATOM     14  F   UNL     1       9.828  15.370  20.138  0.00  0.00    +0.000 F 
ATOM     15  F   UNL     1      10.417  14.052  21.868  0.00  0.00    +0.000 F 
ENDBRANCH   9  12
ENDBRANCH   5   6
ENDBRANCH   3   4
ENDBRANCH   2   3
BRANCH   2  16
ATOM     16  C   UNL     1       6.134   5.355  17.255  0.00  0.00    +0.000 C 
BRANCH  16  17
ATOM     17  C   UNL     1       4.832   4.901  17.858  0.00  0.00    +0.000 A 
ATOM     18  C   UNL     1       4.183   3.747  17.343  0.00  0.00    +0.000 A 
ATOM     19  C   UNL     1       2.973   3.297  17.899  0.00  0.00    +0.000 A 
ATOM     20  C   UNL     1       2.441   4.017  18.962  0.00  0.00    +0.000 A 
ATOM     21  C   UNL     1       1.298   3.815  19.699  0.00  0.00    +0.000 A 
ATOM     22  C   UNL     1       1.274   4.840  20.636  0.00  0.00    +0.000 A 
ATOM     23  N   UNL     1       2.355   5.642  20.489  0.00  0.00    +0.000 N 
ATOM     24  C   UNL     1       3.060   5.131  19.466  0.00  0.00    +0.000 A 
ATOM     25  C   UNL     1       4.262   5.607  18.938  0.00  0.00    +0.000 A 
ATOM     26  H   UNL     1       2.591   6.483  21.058  0.00  0.00    +0.000 HD
ENDBRANCH  16  17
ENDBRANCH   2  16
TORSDOF 6
ENDMDL
MODEL 8
REMARK VINA RESULT:      -7.0      1.359      1.690
REMARK  Name = 
REMARK  7 active torsions:
REMARK  status: ('A' for Active; 'I' for Inactive)
REMARK    1  A    between atoms: C_1  and  N_2
REMARK    2  A    between atoms: N_2  and  C_3
REMARK    3  A    between atoms: N_2  and  C_16
REMARK    4  A    between atoms: C_3  and  C_4
REMARK    5  A    between atoms: C_5  and  C_6
REMARK    6  A    between atoms: C_9  and  C_10
REMARK    7  A    between atoms: C_16  and  C_17
REMARK                            x       y       z     vdW  Elec       q    Type
REMARK                         _______ _______ _______ _____ _____    ______ ____
ROOT
ATOM      1  C   UNL     1       7.776   5.274  18.305  0.00  0.00    +0.000 C 
ATOM      2  N   UNL     1       6.303   5.384  18.220  0.00  0.00    +0.000 NA
ENDROOT
BRANCH   2   3
ATOM      3  C   UNL     1       5.911   6.489  17.311  0.00  0.00    +0.000 C 
BRANCH   3   4
ATOM      4  C   UNL     1       4.914   7.410  17.977  0.00  0.00    +0.000 C 
ATOM      5  C   UNL     1       3.591   7.238  17.805  0.00  0.00    +0.000 C 
BRANCH   5   6
ATOM      6  C   UNL     1       2.550   8.141  18.360  0.00  0.00    +0.000 A 
ATOM      7  C   UNL     1       2.061   7.870  19.648  0.00  0.00    +0.000 A 
ATOM      8  C   UNL     1       1.048   8.652  20.206  0.00  0.00    +0.000 A 
ATOM      9  C   UNL     1       0.514   9.740  19.496  0.00  0.00    +0.000 A 
ATOM     10  C   UNL     1       1.018  10.029  18.218  0.00  0.00    +0.000 A 
ATOM     11  C   UNL     1       2.020   9.235  17.649  0.00  0.00    +0.000 A 
BRANCH   9  12
ATOM     12  C   UNL     1      -0.588  10.594  20.071  0.00  0.00    +0.000 C 
ATOM     13  F   UNL     1      -0.943  10.183  21.345  0.00  0.00    +0.000 F 
ATOM     14  F   UNL     1      -0.168  11.910  20.133  0.00  0.00    +0.000 F 
ATOM     15  F   UNL     1      -1.704  10.514  19.258  0.00  0.00    +0.000 F 
ENDBRANCH   9  12
ENDBRANCH   5   6
ENDBRANCH   3   4
ENDBRANCH   2   3
BRANCH   2  16
ATOM     16  C   UNL     1       5.785   4.080  17.747  0.00  0.00    +0.000 C 
BRANCH  16  17
ATOM     17  C   UNL     1       4.429   3.748  18.309  0.00  0.00    +0.000 A 
ATOM     18  C   UNL     1       3.331   3.558  17.429  0.00  0.00    +0.000 A 
ATOM     19  C   UNL     1       2.058   3.235  17.930  0.00  0.00    +0.000 A 
ATOM     20  C   UNL     1       1.917   3.110  19.307  0.00  0.00    +0.000 A 
ATOM     21  C   UNL     1       0.816   2.800  20.071  0.00  0.00    +0.000 A 
ATOM     22  C   UNL     1       1.262   2.810  21.386  0.00  0.00    +0.000 A 
ATOM     23  N   UNL     1       2.581   3.111  21.437  0.00  0.00    +0.000 N 
ATOM     24  C   UNL     1       2.971   3.291  20.164  0.00  0.00    +0.000 A 
ATOM     25  C   UNL     1       4.248   3.614  19.701  0.00  0.00    +0.000 A 
ATOM     26  H   UNL     1       3.173   3.184  22.292  0.00  0.00    +0.000 HD
ENDBRANCH  16  17
ENDBRANCH   2  16
TORSDOF 6
ENDMDL
MODEL 9
REMARK VINA RESULT:      -7.0      5.696      6.633
REMARK  Name = 
REMARK  7 active torsions:
REMARK  status: ('A' for Active; 'I' for Inactive)
REMARK    1  A    between atoms: C_1  and  N_2
REMARK    2  A    between atoms: N_2  and  C_3
REMARK    3  A    between atoms: N_2  and  C_16
REMARK    4  A    between atoms: C_3  and  C_4
REMARK    5  A    between atoms: C_5  and  C_6
REMARK    6  A    between atoms: C_9  and  C_10
REMARK    7  A    between atoms: C_16  and  C_17
REMARK                            x       y       z     vdW  Elec       q    Type
REMARK                         _______ _______ _______ _____ _____    ______ ____
ROOT
ATOM      1  C   UNL     1       6.543   4.644  17.379  0.00  0.00    +0.000 C 
ATOM      2  N   UNL     1       6.322   6.061  17.739  0.00  0.00    +0.000 NA
ENDROOT
BRANCH   2   3
ATOM      3  C   UNL     1       7.352   6.928  17.115  0.00  0.00    +0.000 C 
BRANCH   3   4
ATOM      4  C   UNL     1       7.700   8.089  18.017  0.00  0.00    +0.000 C 
ATOM      5  C   UNL     1       8.356   9.163  17.538  0.00  0.00    +0.000 C 
BRANCH   5   6
ATOM      6  C   UNL     1       8.803  10.310  18.370  0.00  0.00    +0.000 A 
ATOM      7  C   UNL     1       8.713  11.598  17.819  0.00  0.00    +0.000 A 
ATOM      8  C   UNL     1       9.161  12.713  18.530  0.00  0.00    +0.000 A 
ATOM      9  C   UNL     1       9.693  12.567  19.822  0.00  0.00    +0.000 A 
ATOM     10  C   UNL     1       9.762  11.283  20.387  0.00  0.00    +0.000 A 
ATOM     11  C   UNL     1       9.330  10.163  19.668  0.00  0.00    +0.000 A 
BRANCH   9  12
ATOM     12  C   UNL     1      10.195  13.752  20.608  0.00  0.00    +0.000 C 
ATOM     13  F   UNL     1       9.486  14.903  20.309  0.00  0.00    +0.000 F 
ATOM     14  F   UNL     1      10.068  13.496  21.961  0.00  0.00    +0.000 F 
ATOM     15  F   UNL     1      11.528  13.970  20.312  0.00  0.00    +0.000 F 
ENDBRANCH   9  12
ENDBRANCH   5   6
ENDBRANCH   3   4
ENDBRANCH   2   3
BRANCH   2  16
ATOM     16  C   UNL     1       4.959   6.428  17.293  0.00  0.00    +0.000 C 
BRANCH  16  17
ATOM     17  C   UNL     1       3.878   5.722  18.066  0.00  0.00    +0.000 A 
ATOM     18  C   UNL     1       3.374   6.302  19.260  0.00  0.00    +0.000 A 
ATOM     19  C   UNL     1       2.356   5.666  19.992  0.00  0.00    +0.000 A 
ATOM     20  C   UNL     1       1.865   4.461  19.507  0.00  0.00    +0.000 A 
ATOM     21  C   UNL     1       0.883   3.631  19.994  0.00  0.00    +0.000 A 
ATOM     22  C   UNL     1       0.812   2.573  19.097  0.00  0.00    +0.000 A 
ATOM     23  N   UNL     1       1.709   2.738  18.096  0.00  0.00    +0.000 N 
ATOM     24  C   UNL     1       2.345   3.893  18.355  0.00  0.00    +0.000 A 
ATOM     25  C   UNL     1       3.356   4.496  17.604  0.00  0.00    +0.000 A 
ATOM     26  H   UNL     1       1.868   2.100  17.287  0.00  0.00    +0.000 HD
ENDBRANCH  16  17
ENDBRANCH   2  16
TORSDOF 6
ENDMDL
