MODEL 1
REMARK VINA RESULT:      -8.0      0.000      0.000
REMARK  Name = 
REMARK  11 active torsions:
REMARK  status: ('A' for Active; 'I' for Inactive)
REMARK    1  A    between atoms: C_5  and  N_6
REMARK    2  A    between atoms: N_6  and  C_7
REMARK    3  A    between atoms: C_7  and  C_8
REMARK    4  A    between atoms: C_8  and  C_9
REMARK    5  A    between atoms: C_9  and  C_10
REMARK    6  A    between atoms: C_10  and  C_11
REMARK    7  A    between atoms: C_11  and  C_12
REMARK    8  A    between atoms: C_12  and  C_13
REMARK    9  A    between atoms: C_13  and  C_14
REMARK   10  A    between atoms: C_14  and  N_15
REMARK   11  A    between atoms: N_15  and  C_16
REMARK                            x       y       z     vdW  Elec       q    Type
REMARK                         _______ _______ _______ _____ _____    ______ ____
ROOT
ATOM      1  C   UNL     1       2.156   6.356  19.756  0.00  0.00    +0.000 C 
ENDROOT
BRANCH   1   2
ATOM      2  C   UNL     1       2.064   7.888  19.704  0.00  0.00    +0.000 C 
BRANCH   2   3
ATOM      3  C   UNL     1       2.405   8.454  18.317  0.00  0.00    +0.000 C 
BRANCH   3   4
ATOM      4  C   UNL     1       1.753   9.819  18.032  0.00  0.00    +0.000 C 
BRANCH   4   5
ATOM      5  N   UNL     1       0.356   9.722  17.623  0.00  0.00    +0.000 N 
ATOM      6  H   UNL     1       0.122   9.090  16.848  0.00  0.00    +0.000 HD
BRANCH   5  11
ATOM      7  C   UNL     1      -4.540  11.213  16.627  0.00  0.00    +0.000 A 
ATOM      8  C   UNL     1      -3.619  10.467  15.894  0.00  0.00    +0.000 A 
ATOM      9  C   UNL     1      -2.339  10.212  16.405  0.00  0.00    +0.000 A 
ATOM     10  C   UNL     1      -1.959  10.709  17.675  0.00  0.00    +0.000 A 
ATOM     11  C   UNL     1      -0.678  10.483  18.270  0.00  0.00    +0.000 A 
ATOM     12  C   UNL     1      -0.431  11.045  19.542  0.00  0.00    +0.000 A 
ATOM     13  C   UNL     1      -1.406  11.791  20.195  0.00  0.00    +0.000 A 
ATOM     14  N   UNL     1      -2.611  11.987  19.620  0.00  0.00    +0.000 NA
ATOM     15  C   UNL     1      -2.916  11.476  18.401  0.00  0.00    +0.000 A 
ATOM     16  C   UNL     1      -4.189  11.717  17.875  0.00  0.00    +0.000 A 
ENDBRANCH   5  11
ENDBRANCH   4   5
ENDBRANCH   3   4
ENDBRANCH   2   3
ENDBRANCH   1   2
BRANCH   1  17
ATOM     17  C   UNL     1       2.674   5.821  18.436  0.00  0.00    +0.000 C 
BRANCH  17  18
ATOM     18  C   UNL     1       1.874   4.589  17.988  0.00  0.00    +0.000 C 
BRANCH  18  19
ATOM     19  C   UNL     1       2.445   3.299  18.589  0.00  0.00    +0.000 C 
BRANCH  19  20
ATOM     20  C   UNL     1       3.314   2.548  17.570  0.00  0.00    +0.000 C 
BRANCH  20  21
ATOM     21  N   UNL     1       4.713   2.882  17.700  0.00  0.00    +0.000 N 
ATOM     22  H   UNL     1       5.298   2.270  18.284  0.00  0.00    +0.000 HD
BRANCH  21  23
ATOM     23  C   UNL     1       5.291   3.958  16.950  0.00  0.00    +0.000 A 
ATOM     24  C   UNL     1       5.002   4.098  15.575  0.00  0.00    +0.000 A 
ATOM     25  C   UNL     1       5.539   5.151  14.845  0.00  0.00    +0.000 A 
ATOM     26  N   UNL     1       6.356   6.048  15.443  0.00  0.00    +0.000 NA
ATOM     27  C   UNL     1       6.688   5.954  16.756  0.00  0.00    +0.000 A 
ATOM     28  C   UNL     1       7.562   6.893  17.308  0.00  0.00    +0.000 A 
ATOM     29  C   UNL     1       7.942   6.802  18.645  0.00  0.00    +0.000 A 
ATOM     30  C   UNL     1       7.451   5.768  19.440  0.00  0.00    +0.000 A 
ATOM     31  C   UNL     1       6.567   4.826  18.909  0.00  0.00    +0.000 A 
ATOM     32  C   UNL     1       6.164   4.902  17.556  0.00  0.00    +0.000 A 
ENDBRANCH  21  23
ENDBRANCH  20  21
ENDBRANCH  19  20
ENDBRANCH  18  19
ENDBRANCH  17  18
ENDBRANCH   1  17
TORSDOF 11
ENDMDL
MODEL 2
REMARK VINA RESULT:      -7.6      2.107      3.508
REMARK  Name = 
REMARK  11 active torsions:
REMARK  status: ('A' for Active; 'I' for Inactive)
REMARK    1  A    between atoms: C_5  and  N_6
REMARK    2  A    between atoms: N_6  and  C_7
REMARK    3  A    between atoms: C_7  and  C_8
REMARK    4  A    between atoms: C_8  and  C_9
REMARK    5  A    between atoms: C_9  and  C_10
REMARK    6  A    between atoms: C_10  and  C_11
REMARK    7  A    between atoms: C_11  and  C_12
REMARK    8  A    between atoms: C_12  and  C_13
REMARK    9  A    between atoms: C_13  and  C_14
REMARK   10  A    between atoms: C_14  and  N_15
REMARK   11  A    between atoms: N_15  and  C_16
REMARK                            x       y       z     vdW  Elec       q    Type
REMARK                         _______ _______ _______ _____ _____    ______ ____
ROOT
ATOM      1  C   UNL     1       1.964   7.178  18.018  0.00  0.00    +0.000 C 
ENDROOT
BRANCH   1   2
ATOM      2  C   UNL     1       2.900   8.384  17.855  0.00  0.00    +0.000 C 
BRANCH   2   3
ATOM      3  C   UNL     1       2.140   9.716  17.776  0.00  0.00    +0.000 C 
BRANCH   3   4
ATOM      4  C   UNL     1       0.691   9.629  18.289  0.00  0.00    +0.000 C 
BRANCH   4   5
ATOM      5  N   UNL     1       0.309  10.745  19.146  0.00  0.00    +0.000 N 
ATOM      6  H   UNL     1       0.206  11.672  18.717  0.00  0.00    +0.000 HD
BRANCH   5  11
ATOM      7  C   UNL     1      -2.914  12.619  22.791  0.00  0.00    +0.000 A 
ATOM      8  C   UNL     1      -2.787  12.880  21.428  0.00  0.00    +0.000 A 
ATOM      9  C   UNL     1      -1.809  12.227  20.665  0.00  0.00    +0.000 A 
ATOM     10  C   UNL     1      -0.934  11.290  21.266  0.00  0.00    +0.000 A 
ATOM     11  C   UNL     1       0.081  10.575  20.556  0.00  0.00    +0.000 A 
ATOM     12  C   UNL     1       0.889   9.673  21.283  0.00  0.00    +0.000 A 
ATOM     13  C   UNL     1       0.700   9.488  22.649  0.00  0.00    +0.000 A 
ATOM     14  N   UNL     1      -0.268  10.167  23.300  0.00  0.00    +0.000 NA
ATOM     15  C   UNL     1      -1.080  11.047  22.663  0.00  0.00    +0.000 A 
ATOM     16  C   UNL     1      -2.063  11.707  23.406  0.00  0.00    +0.000 A 
ENDBRANCH   5  11
ENDBRANCH   4   5
ENDBRANCH   3   4
ENDBRANCH   2   3
ENDBRANCH   1   2
BRANCH   1  17
ATOM     17  C   UNL     1       2.727   6.003  18.596  0.00  0.00    +0.000 C 
BRANCH  17  18
ATOM     18  C   UNL     1       2.388   4.704  17.847  0.00  0.00    +0.000 C 
BRANCH  18  19
ATOM     19  C   UNL     1       2.924   3.473  18.587  0.00  0.00    +0.000 C 
BRANCH  19  20
ATOM     20  C   UNL     1       4.091   3.846  19.514  0.00  0.00    +0.000 C 
BRANCH  20  21
ATOM     21  N   UNL     1       5.373   3.536  18.923  0.00  0.00    +0.000 N 
ATOM     22  H   UNL     1       5.694   2.561  18.964  0.00  0.00    +0.000 HD
BRANCH  21  23
ATOM     23  C   UNL     1       6.116   4.528  18.204  0.00  0.00    +0.000 A 
ATOM     24  C   UNL     1       6.756   5.576  18.899  0.00  0.00    +0.000 A 
ATOM     25  C   UNL     1       7.497   6.530  18.211  0.00  0.00    +0.000 A 
ATOM     26  N   UNL     1       7.604   6.469  16.863  0.00  0.00    +0.000 NA
ATOM     27  C   UNL     1       6.994   5.497  16.139  0.00  0.00    +0.000 A 
ATOM     28  C   UNL     1       7.116   5.506  14.747  0.00  0.00    +0.000 A 
ATOM     29  C   UNL     1       6.476   4.538  13.977  0.00  0.00    +0.000 A 
ATOM     30  C   UNL     1       5.707   3.553  14.594  0.00  0.00    +0.000 A 
ATOM     31  C   UNL     1       5.582   3.521  15.985  0.00  0.00    +0.000 A 
ATOM     32  C   UNL     1       6.227   4.490  16.786  0.00  0.00    +0.000 A 
ENDBRANCH  21  23
ENDBRANCH  20  21
ENDBRANCH  19  20
ENDBRANCH  18  19
ENDBRANCH  17  18
ENDBRANCH   1  17
TORSDOF 11
ENDMDL
MODEL 3
REMARK VINA RESULT:      -7.6      2.444      8.229
REMARK  Name = 
REMARK  11 active torsions:
REMARK  status: ('A' for Active; 'I' for Inactive)
REMARK    1  A    between atoms: C_5  and  N_6
REMARK    2  A    between atoms: N_6  and  C_7
REMARK    3  A    between atoms: C_7  and  C_8
REMARK    4  A    between atoms: C_8  and  C_9
REMARK    5  A    between atoms: C_9  and  C_10
REMARK    6  A    between atoms: C_10  and  C_11
REMARK    7  A    between atoms: C_11  and  C_12
REMARK    8  A    between atoms: C_12  and  C_13
REMARK    9  A    between atoms: C_13  and  C_14
REMARK   10  A    between atoms: C_14  and  N_15
REMARK   11  A    between atoms: N_15  and  C_16
REMARK                            x       y       z     vdW  Elec       q    Type
REMARK                         _______ _______ _______ _____ _____    ______ ____
ROOT
ATOM      1  C   UNL     1       6.731   7.589  17.376  0.00  0.00    +0.000 C 
ENDROOT
BRANCH   1   2
ATOM      2  C   UNL     1       7.796   6.726  18.069  0.00  0.00    +0.000 C 
BRANCH   2   3
ATOM      3  C   UNL     1       7.185   5.664  18.995  0.00  0.00    +0.000 C 
BRANCH   3   4
ATOM      4  C   UNL     1       6.701   4.405  18.251  0.00  0.00    +0.000 C 
BRANCH   4   5
ATOM      5  N   UNL     1       5.718   3.629  19.000  0.00  0.00    +0.000 N 
ATOM      6  H   UNL     1       6.025   3.158  19.858  0.00  0.00    +0.000 HD
BRANCH   5  11
ATOM      7  C   UNL     1       1.019   2.938  21.152  0.00  0.00    +0.000 A 
ATOM      8  C   UNL     1       2.298   3.025  21.699  0.00  0.00    +0.000 A 
ATOM      9  C   UNL     1       3.416   3.211  20.874  0.00  0.00    +0.000 A 
ATOM     10  C   UNL     1       3.266   3.312  19.470  0.00  0.00    +0.000 A 
ATOM     11  C   UNL     1       4.353   3.513  18.563  0.00  0.00    +0.000 A 
ATOM     12  C   UNL     1       4.059   3.589  17.183  0.00  0.00    +0.000 A 
ATOM     13  C   UNL     1       2.750   3.475  16.725  0.00  0.00    +0.000 A 
ATOM     14  N   UNL     1       1.738   3.294  17.597  0.00  0.00    +0.000 NA
ATOM     15  C   UNL     1       1.948   3.212  18.935  0.00  0.00    +0.000 A 
ATOM     16  C   UNL     1       0.845   3.030  19.775  0.00  0.00    +0.000 A 
ENDBRANCH   5  11
ENDBRANCH   4   5
ENDBRANCH   3   4
ENDBRANCH   2   3
ENDBRANCH   1   2
BRANCH   1  17
ATOM     17  C   UNL     1       5.864   6.725  16.482  0.00  0.00    +0.000 C 
BRANCH  17  18
ATOM     18  C   UNL     1       4.378   7.073  16.653  0.00  0.00    +0.000 C 
BRANCH  18  19
ATOM     19  C   UNL     1       4.022   7.310  18.125  0.00  0.00    +0.000 C 
BRANCH  19  20
ATOM     20  C   UNL     1       2.566   6.917  18.416  0.00  0.00    +0.000 C 
BRANCH  20  21
ATOM     21  N   UNL     1       2.064   7.546  19.616  0.00  0.00    +0.000 N 
ATOM     22  H   UNL     1       2.300   7.112  20.517  0.00  0.00    +0.000 HD
BRANCH  21  23
ATOM     23  C   UNL     1       1.363   8.795  19.559  0.00  0.00    +0.000 A 
ATOM     24  C   UNL     1       1.316   9.527  18.354  0.00  0.00    +0.000 A 
ATOM     25  C   UNL     1       0.619  10.728  18.284  0.00  0.00    +0.000 A 
ATOM     26  N   UNL     1      -0.013  11.214  19.377  0.00  0.00    +0.000 NA
ATOM     27  C   UNL     1       0.015  10.566  20.569  0.00  0.00    +0.000 A 
ATOM     28  C   UNL     1      -0.631  11.135  21.670  0.00  0.00    +0.000 A 
ATOM     29  C   UNL     1      -0.593  10.506  22.912  0.00  0.00    +0.000 A 
ATOM     30  C   UNL     1       0.093   9.302  23.063  0.00  0.00    +0.000 A 
ATOM     31  C   UNL     1       0.736   8.713  21.972  0.00  0.00    +0.000 A 
ATOM     32  C   UNL     1       0.706   9.331  20.701  0.00  0.00    +0.000 A 
ENDBRANCH  21  23
ENDBRANCH  20  21
ENDBRANCH  19  20
ENDBRANCH  18  19
ENDBRANCH  17  18
ENDBRANCH   1  17
TORSDOF 11
ENDMDL
MODEL 4
REMARK VINA RESULT:      -7.5      1.180      9.562
REMARK  Name = 
REMARK  11 active torsions:
REMARK  status: ('A' for Active; 'I' for Inactive)
REMARK    1  A    between atoms: C_5  and  N_6
REMARK    2  A    between atoms: N_6  and  C_7
REMARK    3  A    between atoms: C_7  and  C_8
REMARK    4  A    between atoms: C_8  and  C_9
REMARK    5  A    between atoms: C_9  and  C_10
REMARK    6  A    between atoms: C_10  and  C_11
REMARK    7  A    between atoms: C_11  and  C_12
REMARK    8  A    between atoms: C_12  and  C_13
REMARK    9  A    between atoms: C_13  and  C_14
REMARK   10  A    between atoms: C_14  and  N_15
REMARK   11  A    between atoms: N_15  and  C_16
REMARK                            x       y       z     vdW  Elec       q    Type
REMARK                         _______ _______ _______ _____ _____    ______ ____
ROOT
ATOM      1  C   UNL     1       2.378   6.101  19.965  0.00  0.00    +0.000 C 
ENDROOT
BRANCH   1   2
ATOM      2  C   UNL     1       1.651   4.796  20.323  0.00  0.00    +0.000 C 
BRANCH   2   3
ATOM      3  C   UNL     1       2.415   3.960  21.361  0.00  0.00    +0.000 C 
BRANCH   3   4
ATOM      4  C   UNL     1       3.062   2.693  20.774  0.00  0.00    +0.000 C 
BRANCH   4   5
ATOM      5  N   UNL     1       4.367   2.934  20.167  0.00  0.00    +0.000 N 
ATOM      6  H   UNL     1       5.204   2.703  20.713  0.00  0.00    +0.000 HD
BRANCH   5  11
ATOM      7  C   UNL     1       7.395   6.386  17.697  0.00  0.00    +0.000 A 
ATOM      8  C   UNL     1       7.365   5.941  19.018  0.00  0.00    +0.000 A 
ATOM      9  C   UNL     1       6.421   4.989  19.428  0.00  0.00    +0.000 A 
ATOM     10  C   UNL     1       5.482   4.463  18.507  0.00  0.00    +0.000 A 
ATOM     11  C   UNL     1       4.497   3.482  18.844  0.00  0.00    +0.000 A 
ATOM     12  C   UNL     1       3.618   3.051  17.826  0.00  0.00    +0.000 A 
ATOM     13  C   UNL     1       3.711   3.564  16.537  0.00  0.00    +0.000 A 
ATOM     14  N   UNL     1       4.652   4.483  16.237  0.00  0.00    +0.000 NA
ATOM     15  C   UNL     1       5.529   4.941  17.165  0.00  0.00    +0.000 A 
ATOM     16  C   UNL     1       6.480   5.889  16.775  0.00  0.00    +0.000 A 
ENDBRANCH   5  11
ENDBRANCH   4   5
ENDBRANCH   3   4
ENDBRANCH   2   3
ENDBRANCH   1   2
BRANCH   1  17
ATOM     17  C   UNL     1       2.092   6.476  18.525  0.00  0.00    +0.000 C 
BRANCH  17  18
ATOM     18  C   UNL     1       3.212   7.358  17.952  0.00  0.00    +0.000 C 
BRANCH  18  19
ATOM     19  C   UNL     1       2.728   8.792  17.707  0.00  0.00    +0.000 C 
BRANCH  19  20
ATOM     20  C   UNL     1       1.511   9.126  18.582  0.00  0.00    +0.000 C 
BRANCH  20  21
ATOM     21  N   UNL     1       0.403   9.624  17.802  0.00  0.00    +0.000 N 
ATOM     22  H   UNL     1       0.336   9.324  16.821  0.00  0.00    +0.000 HD
BRANCH  21  23
ATOM     23  C   UNL     1      -0.630  10.416  18.403  0.00  0.00    +0.000 A 
ATOM     24  C   UNL     1      -0.435  10.981  19.681  0.00  0.00    +0.000 A 
ATOM     25  C   UNL     1      -1.422  11.768  20.263  0.00  0.00    +0.000 A 
ATOM     26  N   UNL     1      -2.588  11.992  19.612  0.00  0.00    +0.000 NA
ATOM     27  C   UNL     1      -2.841  11.457  18.390  0.00  0.00    +0.000 A 
ATOM     28  C   UNL     1      -4.076  11.699  17.783  0.00  0.00    +0.000 A 
ATOM     29  C   UNL     1      -4.373  11.138  16.543  0.00  0.00    +0.000 A 
ATOM     30  C   UNL     1      -3.437  10.330  15.901  0.00  0.00    +0.000 A 
ATOM     31  C   UNL     1      -2.193  10.086  16.487  0.00  0.00    +0.000 A 
ATOM     32  C   UNL     1      -1.868  10.649  17.743  0.00  0.00    +0.000 A 
ENDBRANCH  21  23
ENDBRANCH  20  21
ENDBRANCH  19  20
ENDBRANCH  18  19
ENDBRANCH  17  18
ENDBRANCH   1  17
TORSDOF 11
ENDMDL
MODEL 5
REMARK VINA RESULT:      -7.5      2.572      3.055
REMARK  Name = 
REMARK  11 active torsions:
REMARK  status: ('A' for Active; 'I' for Inactive)
REMARK    1  A    between atoms: C_5  and  N_6
REMARK    2  A    between atoms: N_6  and  C_7
REMARK    3  A    between atoms: C_7  and  C_8
REMARK    4  A    between atoms: C_8  and  C_9
REMARK    5  A    between atoms: C_9  and  C_10
REMARK    6  A    between atoms: C_10  and  C_11
REMARK    7  A    between atoms: C_11  and  C_12
REMARK    8  A    between atoms: C_12  and  C_13
REMARK    9  A    between atoms: C_13  and  C_14
REMARK   10  A    between atoms: C_14  and  N_15
REMARK   11  A    between atoms: N_15  and  C_16
REMARK                            x       y       z     vdW  Elec       q    Type
REMARK                         _______ _______ _______ _____ _____    ______ ____
ROOT
ATOM      1  C   UNL     1       2.016   5.327  18.909  0.00  0.00    +0.000 C 
ENDROOT
BRANCH   1   2
ATOM      2  C   UNL     1       2.979   6.497  19.160  0.00  0.00    +0.000 C 
BRANCH   2   3
ATOM      3  C   UNL     1       3.246   7.325  17.894  0.00  0.00    +0.000 C 
BRANCH   3   4
ATOM      4  C   UNL     1       2.252   8.485  17.698  0.00  0.00    +0.000 C 
BRANCH   4   5
ATOM      5  N   UNL     1       1.327   8.654  18.813  0.00  0.00    +0.000 N 
ATOM      6  H   UNL     1       0.868   7.817  19.191  0.00  0.00    +0.000 HD
BRANCH   5  11
ATOM      7  C   UNL     1      -0.880  10.592  23.121  0.00  0.00    +0.000 A 
ATOM      8  C   UNL     1      -0.677   9.286  22.677  0.00  0.00    +0.000 A 
ATOM      9  C   UNL     1      -0.049   9.040  21.448  0.00  0.00    +0.000 A 
ATOM     10  C   UNL     1       0.391  10.114  20.637  0.00  0.00    +0.000 A 
ATOM     11  C   UNL     1       1.049   9.947  19.378  0.00  0.00    +0.000 A 
ATOM     12  C   UNL     1       1.428  11.108  18.669  0.00  0.00    +0.000 A 
ATOM     13  C   UNL     1       1.170  12.374  19.184  0.00  0.00    +0.000 A 
ATOM     14  N   UNL     1       0.554  12.511  20.376  0.00  0.00    +0.000 NA
ATOM     15  C   UNL     1       0.164  11.439  21.110  0.00  0.00    +0.000 A 
ATOM     16  C   UNL     1      -0.462  11.664  22.339  0.00  0.00    +0.000 A 
ENDBRANCH   5  11
ENDBRANCH   4   5
ENDBRANCH   3   4
ENDBRANCH   2   3
ENDBRANCH   1   2
BRANCH   1  17
ATOM     17  C   UNL     1       1.465   4.818  20.226  0.00  0.00    +0.000 C 
BRANCH  17  18
ATOM     18  C   UNL     1       1.689   3.304  20.368  0.00  0.00    +0.000 C 
BRANCH  18  19
ATOM     19  C   UNL     1       2.793   2.809  19.427  0.00  0.00    +0.000 C 
BRANCH  19  20
ATOM     20  C   UNL     1       4.187   3.069  20.019  0.00  0.00    +0.000 C 
BRANCH  20  21
ATOM     21  N   UNL     1       5.231   2.924  19.031  0.00  0.00    +0.000 N 
ATOM     22  H   UNL     1       5.798   2.068  19.058  0.00  0.00    +0.000 HD
BRANCH  21  23
ATOM     23  C   UNL     1       5.394   3.886  17.981  0.00  0.00    +0.000 A 
ATOM     24  C   UNL     1       4.677   3.745  16.774  0.00  0.00    +0.000 A 
ATOM     25  C   UNL     1       4.812   4.684  15.758  0.00  0.00    +0.000 A 
ATOM     26  N   UNL     1       5.644   5.740  15.913  0.00  0.00    +0.000 NA
ATOM     27  C   UNL     1       6.376   5.917  17.042  0.00  0.00    +0.000 A 
ATOM     28  C   UNL     1       7.242   7.011  17.128  0.00  0.00    +0.000 A 
ATOM     29  C   UNL     1       8.026   7.200  18.263  0.00  0.00    +0.000 A 
ATOM     30  C   UNL     1       7.953   6.295  19.321  0.00  0.00    +0.000 A 
ATOM     31  C   UNL     1       7.085   5.202  19.257  0.00  0.00    +0.000 A 
ATOM     32  C   UNL     1       6.275   4.993  18.117  0.00  0.00    +0.000 A 
ENDBRANCH  21  23
ENDBRANCH  20  21
ENDBRANCH  19  20
ENDBRANCH  18  19
ENDBRANCH  17  18
ENDBRANCH   1  17
TORSDOF 11
ENDMDL
MODEL 6
REMARK VINA RESULT:      -7.4      2.513      3.873
REMARK  Name = 
REMARK  11 active torsions:
REMARK  status: ('A' for Active; 'I' for Inactive)
REMARK    1  A    between atoms: C_5  and  N_6
REMARK    2  A    between atoms: N_6  and  C_7
REMARK    3  A    between atoms: C_7  and  C_8
REMARK    4  A    between atoms: C_8  and  C_9
REMARK    5  A    between atoms: C_9  and  C_10
REMARK    6  A    between atoms: C_10  and  C_11
REMARK    7  A    between atoms: C_11  and  C_12
REMARK    8  A    between atoms: C_12  and  C_13
REMARK    9  A    between atoms: C_13  and  C_14
REMARK   10  A    between atoms: C_14  and  N_15
REMARK   11  A    between atoms: N_15  and  C_16
REMARK                            x       y       z     vdW  Elec       q    Type
REMARK                         _______ _______ _______ _____ _____    ______ ____
ROOT
ATOM      1  C   UNL     1       0.897   2.554  20.144  0.00  0.00    +0.000 C 
ENDROOT
BRANCH   1   2
ATOM      2  C   UNL     1       1.503   3.116  21.439  0.00  0.00    +0.000 C 
BRANCH   2   3
ATOM      3  C   UNL     1       2.419   4.322  21.188  0.00  0.00    +0.000 C 
BRANCH   3   4
ATOM      4  C   UNL     1       1.658   5.603  20.801  0.00  0.00    +0.000 C 
BRANCH   4   5
ATOM      5  N   UNL     1       2.515   6.641  20.238  0.00  0.00    +0.000 N 
ATOM      6  H   UNL     1       3.528   6.482  20.233  0.00  0.00    +0.000 HD
BRANCH   5  11
ATOM      7  C   UNL     1      -0.233  10.726  21.956  0.00  0.00    +0.000 A 
ATOM      8  C   UNL     1       0.230   9.573  22.589  0.00  0.00    +0.000 A 
ATOM      9  C   UNL     1       0.956   8.610  21.876  0.00  0.00    +0.000 A 
ATOM     10  C   UNL     1       1.232   8.791  20.499  0.00  0.00    +0.000 A 
ATOM     11  C   UNL     1       1.974   7.862  19.704  0.00  0.00    +0.000 A 
ATOM     12  C   UNL     1       2.170   8.167  18.338  0.00  0.00    +0.000 A 
ATOM     13  C   UNL     1       1.657   9.336  17.787  0.00  0.00    +0.000 A 
ATOM     14  N   UNL     1       0.965  10.203  18.555  0.00  0.00    +0.000 NA
ATOM     15  C   UNL     1       0.741   9.974  19.873  0.00  0.00    +0.000 A 
ATOM     16  C   UNL     1       0.021  10.925  20.603  0.00  0.00    +0.000 A 
ENDBRANCH   5  11
ENDBRANCH   4   5
ENDBRANCH   3   4
ENDBRANCH   2   3
ENDBRANCH   1   2
BRANCH   1  17
ATOM     17  C   UNL     1       1.838   1.537  19.530  0.00  0.00    +0.000 C 
BRANCH  17  18
ATOM     18  C   UNL     1       2.558   2.122  18.305  0.00  0.00    +0.000 C 
BRANCH  18  19
ATOM     19  C   UNL     1       1.810   3.333  17.739  0.00  0.00    +0.000 C 
BRANCH  19  20
ATOM     20  C   UNL     1       2.787   4.389  17.198  0.00  0.00    +0.000 C 
BRANCH  20  21
ATOM     21  N   UNL     1       3.729   3.825  16.260  0.00  0.00    +0.000 N 
ATOM     22  H   UNL     1       3.405   3.052  15.664  0.00  0.00    +0.000 HD
BRANCH  21  23
ATOM     23  C   UNL     1       5.030   4.398  16.082  0.00  0.00    +0.000 A 
ATOM     24  C   UNL     1       5.593   4.492  14.792  0.00  0.00    +0.000 A 
ATOM     25  C   UNL     1       6.845   5.067  14.608  0.00  0.00    +0.000 A 
ATOM     26  N   UNL     1       7.544   5.532  15.669  0.00  0.00    +0.000 NA
ATOM     27  C   UNL     1       7.065   5.450  16.936  0.00  0.00    +0.000 A 
ATOM     28  C   UNL     1       7.848   5.920  17.993  0.00  0.00    +0.000 A 
ATOM     29  C   UNL     1       7.393   5.821  19.305  0.00  0.00    +0.000 A 
ATOM     30  C   UNL     1       6.150   5.249  19.571  0.00  0.00    +0.000 A 
ATOM     31  C   UNL     1       5.348   4.783  18.526  0.00  0.00    +0.000 A 
ATOM     32  C   UNL     1       5.788   4.879  17.186  0.00  0.00    +0.000 A 
ENDBRANCH  21  23
ENDBRANCH  20  21
ENDBRANCH  19  20
ENDBRANCH  18  19
ENDBRANCH  17  18
ENDBRANCH   1  17
TORSDOF 11
ENDMDL
MODEL 7
REMARK VINA RESULT:      -7.4      1.364      2.998
REMARK  Name = 
REMARK  11 active torsions:
REMARK  status: ('A' for Active; 'I' for Inactive)
REMARK    1  A    between atoms: C_5  and  N_6
REMARK    2  A    between atoms: N_6  and  C_7
REMARK    3  A    between atoms: C_7  and  C_8
REMARK    4  A    between atoms: C_8  and  C_9
REMARK    5  A    between atoms: C_9  and  C_10
REMARK    6  A    between atoms: C_10  and  C_11
REMARK    7  A    between atoms: C_11  and  C_12
REMARK    8  A    between atoms: C_12  and  C_13
REMARK    9  A    between atoms: C_13  and  C_14
REMARK   10  A    between atoms: C_14  and  N_15
REMARK   11  A    between atoms: N_15  and  C_16
REMARK                            x       y       z     vdW  Elec       q    Type
REMARK                         _______ _______ _______ _____ _____    ______ ____
ROOT
ATOM      1  C   UNL     1       2.958   7.626  18.743  0.00  0.00    +0.000 C 
ENDROOT
BRANCH   1   2
ATOM      2  C   UNL     1       2.064   8.268  17.672  0.00  0.00    +0.000 C 
BRANCH   2   3
ATOM      3  C   UNL     1       1.563   9.662  18.078  0.00  0.00    +0.000 C 
BRANCH   3   4
ATOM      4  C   UNL     1       0.034   9.743  18.239  0.00  0.00    +0.000 C 
BRANCH   4   5
ATOM      5  N   UNL     1      -0.537  10.993  17.751  0.00  0.00    +0.000 N 
ATOM      6  H   UNL     1       0.104  11.761  17.522  0.00  0.00    +0.000 HD
BRANCH   5  11
ATOM      7  C   UNL     1      -4.542  12.837  20.535  0.00  0.00    +0.000 A 
ATOM      8  C   UNL     1      -3.182  12.712  20.817  0.00  0.00    +0.000 A 
ATOM      9  C   UNL     1      -2.305  12.163  19.870  0.00  0.00    +0.000 A 
ATOM     10  C   UNL     1      -2.786  11.726  18.612  0.00  0.00    +0.000 A 
ATOM     11  C   UNL     1      -1.956  11.167  17.590  0.00  0.00    +0.000 A 
ATOM     12  C   UNL     1      -2.570  10.766  16.383  0.00  0.00    +0.000 A 
ATOM     13  C   UNL     1      -3.940  10.915  16.196  0.00  0.00    +0.000 A 
ATOM     14  N   UNL     1      -4.705  11.451  17.169  0.00  0.00    +0.000 NA
ATOM     15  C   UNL     1      -4.181  11.858  18.352  0.00  0.00    +0.000 A 
ATOM     16  C   UNL     1      -5.039  12.410  19.308  0.00  0.00    +0.000 A 
ENDBRANCH   5  11
ENDBRANCH   4   5
ENDBRANCH   3   4
ENDBRANCH   2   3
ENDBRANCH   1   2
BRANCH   1  17
ATOM     17  C   UNL     1       2.380   6.292  19.171  0.00  0.00    +0.000 C 
BRANCH  17  18
ATOM     18  C   UNL     1       2.422   5.278  18.018  0.00  0.00    +0.000 C 
BRANCH  18  19
ATOM     19  C   UNL     1       2.818   3.882  18.512  0.00  0.00    +0.000 C 
BRANCH  19  20
ATOM     20  C   UNL     1       3.997   3.953  19.494  0.00  0.00    +0.000 C 
BRANCH  20  21
ATOM     21  N   UNL     1       5.246   3.585  18.868  0.00  0.00    +0.000 N 
ATOM     22  H   UNL     1       5.513   2.593  18.883  0.00  0.00    +0.000 HD
BRANCH  21  23
ATOM     23  C   UNL     1       6.028   4.549  18.152  0.00  0.00    +0.000 A 
ATOM     24  C   UNL     1       6.677   5.592  18.847  0.00  0.00    +0.000 A 
ATOM     25  C   UNL     1       7.455   6.519  18.163  0.00  0.00    +0.000 A 
ATOM     26  N   UNL     1       7.590   6.437  16.819  0.00  0.00    +0.000 NA
ATOM     27  C   UNL     1       6.972   5.470  16.094  0.00  0.00    +0.000 A 
ATOM     28  C   UNL     1       7.125   5.457  14.705  0.00  0.00    +0.000 A 
ATOM     29  C   UNL     1       6.478   4.494  13.935  0.00  0.00    +0.000 A 
ATOM     30  C   UNL     1       5.673   3.535  14.547  0.00  0.00    +0.000 A 
ATOM     31  C   UNL     1       5.518   3.525  15.936  0.00  0.00    +0.000 A 
ATOM     32  C   UNL     1       6.168   4.490  16.738  0.00  0.00    +0.000 A 
ENDBRANCH  21  23
ENDBRANCH  20  21
ENDBRANCH  19  20
ENDBRANCH  18  19
ENDBRANCH  17  18
ENDBRANCH   1  17
TORSDOF 11
ENDMDL
MODEL 8
REMARK VINA RESULT:      -7.4      4.924      8.915
REMARK  Name = 
REMARK  11 active torsions:
REMARK  status: ('A' for Active; 'I' for Inactive)
REMARK    1  A    between atoms: C_5  and  N_6
REMARK    2  A    between atoms: N_6  and  C_7
REMARK    3  A    between atoms: C_7  and  C_8
REMARK    4  A    between atoms: C_8  and  C_9
REMARK    5  A    between atoms: C_9  and  C_10
REMARK    6  A    between atoms: C_10  and  C_11
REMARK    7  A    between atoms: C_11  and  C_12
REMARK    8  A    between atoms: C_12  and  C_13
REMARK    9  A    between atoms: C_13  and  C_14
REMARK   10  A    between atoms: C_14  and  N_15
REMARK   11  A    between atoms: N_15  and  C_16
REMARK                            x       y       z     vdW  Elec       q    Type
REMARK                         _______ _______ _______ _____ _____    ______ ____
ROOT
ATOM      1  C   UNL     1       7.341   6.584  17.199  0.00  0.00    +0.000 C 
ENDROOT
BRANCH   1   2
ATOM      2  C   UNL     1       8.095   7.486  18.187  0.00  0.00    +0.000 C 
BRANCH   2   3
ATOM      3  C   UNL     1       7.785   8.976  17.981  0.00  0.00    +0.000 C 
BRANCH   3   4
ATOM      4  C   UNL     1       9.033   9.876  18.028  0.00  0.00    +0.000 C 
BRANCH   4   5
ATOM      5  N   UNL     1       9.378  10.323  19.373  0.00  0.00    +0.000 N 
ATOM      6  H   UNL     1       9.073   9.748  20.167  0.00  0.00    +0.000 HD
BRANCH   5  11
ATOM      7  C   UNL     1       9.151  14.447  22.556  0.00  0.00    +0.000 A 
ATOM      8  C   UNL     1       8.345  13.318  22.425  0.00  0.00    +0.000 A 
ATOM      9  C   UNL     1       8.634  12.342  21.461  0.00  0.00    +0.000 A 
ATOM     10  C   UNL     1       9.751  12.488  20.603  0.00  0.00    +0.000 A 
ATOM     11  C   UNL     1      10.120  11.534  19.603  0.00  0.00    +0.000 A 
ATOM     12  C   UNL     1      11.257  11.809  18.811  0.00  0.00    +0.000 A 
ATOM     13  C   UNL     1      11.994  12.973  19.002  0.00  0.00    +0.000 A 
ATOM     14  N   UNL     1      11.635  13.857  19.955  0.00  0.00    +0.000 NA
ATOM     15  C   UNL     1      10.555  13.655  20.752  0.00  0.00    +0.000 A 
ATOM     16  C   UNL     1      10.251  14.616  21.721  0.00  0.00    +0.000 A 
ENDBRANCH   5  11
ENDBRANCH   4   5
ENDBRANCH   3   4
ENDBRANCH   2   3
ENDBRANCH   1   2
BRANCH   1  17
ATOM     17  C   UNL     1       5.927   7.094  17.006  0.00  0.00    +0.000 C 
BRANCH  17  18
ATOM     18  C   UNL     1       5.178   6.257  15.957  0.00  0.00    +0.000 C 
BRANCH  18  19
ATOM     19  C   UNL     1       5.985   5.021  15.544  0.00  0.00    +0.000 C 
BRANCH  19  20
ATOM     20  C   UNL     1       5.346   3.733  16.084  0.00  0.00    +0.000 C 
BRANCH  20  21
ATOM     21  N   UNL     1       5.211   3.757  17.522  0.00  0.00    +0.000 N 
ATOM     22  H   UNL     1       5.969   4.187  18.066  0.00  0.00    +0.000 HD
BRANCH  21  23
ATOM     23  C   UNL     1       4.011   3.302  18.160  0.00  0.00    +0.000 A 
ATOM     24  C   UNL     1       3.575   1.971  17.984  0.00  0.00    +0.000 A 
ATOM     25  C   UNL     1       2.425   1.515  18.618  0.00  0.00    +0.000 A 
ATOM     26  N   UNL     1       1.703   2.348  19.402  0.00  0.00    +0.000 NA
ATOM     27  C   UNL     1       2.060   3.644  19.592  0.00  0.00    +0.000 A 
ATOM     28  C   UNL     1       1.255   4.463  20.389  0.00  0.00    +0.000 A 
ATOM     29  C   UNL     1       1.582   5.804  20.576  0.00  0.00    +0.000 A 
ATOM     30  C   UNL     1       2.716   6.337  19.966  0.00  0.00    +0.000 A 
ATOM     31  C   UNL     1       3.539   5.531  19.175  0.00  0.00    +0.000 A 
ATOM     32  C   UNL     1       3.229   4.166  18.976  0.00  0.00    +0.000 A 
ENDBRANCH  21  23
ENDBRANCH  20  21
ENDBRANCH  19  20
ENDBRANCH  18  19
ENDBRANCH  17  18
ENDBRANCH   1  17
TORSDOF 11
ENDMDL
MODEL 9
REMARK VINA RESULT:      -7.3      4.749      8.629
REMARK  Name = 
REMARK  11 active torsions:
REMARK  status: ('A' for Active; 'I' for Inactive)
REMARK    1  A    between atoms: C_5  and  N_6
REMARK    2  A    between atoms: N_6  and  C_7
REMARK    3  A    between atoms: C_7  and  C_8
REMARK    4  A    between atoms: C_8  and  C_9
REMARK    5  A    between atoms: C_9  and  C_10
REMARK    6  A    between atoms: C_10  and  C_11
REMARK    7  A    between atoms: C_11  and  C_12
REMARK    8  A    between atoms: C_12  and  C_13
REMARK    9  A    between atoms: C_13  and  C_14
REMARK   10  A    between atoms: C_14  and  N_15
REMARK   11  A    between atoms: N_15  and  C_16
REMARK                            x       y       z     vdW  Elec       q    Type
REMARK                         _______ _______ _______ _____ _____    ______ ____
ROOT
ATOM      1  C   UNL     1       7.400   5.975  17.543  0.00  0.00    +0.000 C 
ENDROOT
BRANCH   1   2
ATOM      2  C   UNL     1       7.969   7.098  18.423  0.00  0.00    +0.000 C 
BRANCH   2   3
ATOM      3  C   UNL     1       8.119   8.425  17.665  0.00  0.00    +0.000 C 
BRANCH   3   4
ATOM      4  C   UNL     1       8.697   9.563  18.525  0.00  0.00    +0.000 C 
BRANCH   4   5
ATOM      5  N   UNL     1       8.454  10.892  17.973  0.00  0.00    +0.000 N 
ATOM      6  H   UNL     1       7.521  11.095  17.596  0.00  0.00    +0.000 HD
BRANCH   5  11
ATOM      7  C   UNL     1       8.748  16.096  17.873  0.00  0.00    +0.000 A 
ATOM      8  C   UNL     1       7.666  15.218  17.888  0.00  0.00    +0.000 A 
ATOM      9  C   UNL     1       7.872  13.832  17.908  0.00  0.00    +0.000 A 
ATOM     10  C   UNL     1       9.184  13.300  17.914  0.00  0.00    +0.000 A 
ATOM     11  C   UNL     1       9.478  11.900  17.945  0.00  0.00    +0.000 A 
ATOM     12  C   UNL     1      10.836  11.508  17.941  0.00  0.00    +0.000 A 
ATOM     13  C   UNL     1      11.852  12.457  17.909  0.00  0.00    +0.000 A 
ATOM     14  N   UNL     1      11.555  13.773  17.887  0.00  0.00    +0.000 NA
ATOM     15  C   UNL     1      10.273  14.219  17.890  0.00  0.00    +0.000 A 
ATOM     16  C   UNL     1      10.047  15.598  17.873  0.00  0.00    +0.000 A 
ENDBRANCH   5  11
ENDBRANCH   4   5
ENDBRANCH   3   4
ENDBRANCH   2   3
ENDBRANCH   1   2
BRANCH   1  17
ATOM     17  C   UNL     1       6.355   6.534  16.600  0.00  0.00    +0.000 C 
BRANCH  17  18
ATOM     18  C   UNL     1       5.175   5.562  16.446  0.00  0.00    +0.000 C 
BRANCH  18  19
ATOM     19  C   UNL     1       5.350   4.322  17.329  0.00  0.00    +0.000 C 
BRANCH  19  20
ATOM     20  C   UNL     1       4.354   3.218  16.944  0.00  0.00    +0.000 C 
BRANCH  20  21
ATOM     21  N   UNL     1       2.985   3.621  17.170  0.00  0.00    +0.000 N 
ATOM     22  H   UNL     1       2.359   3.661  16.356  0.00  0.00    +0.000 HD
BRANCH  21  23
ATOM     23  C   UNL     1       2.487   3.845  18.495  0.00  0.00    +0.000 A 
ATOM     24  C   UNL     1       2.174   2.750  19.328  0.00  0.00    +0.000 A 
ATOM     25  C   UNL     1       1.712   2.957  20.623  0.00  0.00    +0.000 A 
ATOM     26  N   UNL     1       1.547   4.215  21.094  0.00  0.00    +0.000 NA
ATOM     27  C   UNL     1       1.811   5.307  20.333  0.00  0.00    +0.000 A 
ATOM     28  C   UNL     1       1.590   6.579  20.866  0.00  0.00    +0.000 A 
ATOM     29  C   UNL     1       1.824   7.716  20.097  0.00  0.00    +0.000 A 
ATOM     30  C   UNL     1       2.281   7.589  18.786  0.00  0.00    +0.000 A 
ATOM     31  C   UNL     1       2.518   6.326  18.239  0.00  0.00    +0.000 A 
ATOM     32  C   UNL     1       2.292   5.158  19.004  0.00  0.00    +0.000 A 
ENDBRANCH  21  23
ENDBRANCH  20  21
ENDBRANCH  19  20
ENDBRANCH  18  19
ENDBRANCH  17  18
ENDBRANCH   1  17
TORSDOF 11
ENDMDL
