MODEL 1
REMARK VINA RESULT:      -7.6      0.000      0.000
REMARK  Name = 
REMARK  8 active torsions:
REMARK  status: ('A' for Active; 'I' for Inactive)
REMARK    1  A    between atoms: C_1  and  C_2
REMARK    2  A    between atoms: C_2  and  C_3
REMARK    3  A    between atoms: C_2  and  N_4
REMARK    4  A    between atoms: N_6  and  C_7
REMARK    5  A    between atoms: C_7  and  C_8
REMARK    6  A    between atoms: C_8  and  C_9
REMARK    7  A    between atoms: N_20  and  C_21
REMARK    8  A    between atoms: N_24  and  C_25
REMARK                            x       y       z     vdW  Elec       q    Type
REMARK                         _______ _______ _______ _____ _____    ______ ____
ROOT
ATOM      1  N   UNL     1       5.166   5.039  17.067  0.00  0.00    +0.000 N 
ATOM      2  C   UNL     1       5.320   6.407  17.284  0.00  0.00    +0.000 A 
ATOM      3  N   UNL     1       6.260   7.189  16.706  0.00  0.00    +0.000 N 
ATOM      4  N   UNL     1       4.425   6.846  18.143  0.00  0.00    +0.000 NA
ATOM      5  C   UNL     1       3.679   5.772  18.475  0.00  0.00    +0.000 A 
ATOM      6  C   UNL     1       4.111   4.631  17.868  0.00  0.00    +0.000 A 
ATOM      7  C   UNL     1       3.483   3.370  18.113  0.00  0.00    +0.000 A 
ATOM      8  O   UNL     1       3.854   2.316  17.604  0.00  0.00    +0.000 OA
ATOM      9  N   UNL     1       2.400   3.453  19.004  0.00  0.00    +0.000 N 
ATOM     10  C   UNL     1       1.678   2.240  19.343  0.00  0.00    +0.000 C 
ATOM     11  C   UNL     1       1.920   4.632  19.609  0.00  0.00    +0.000 A 
ATOM     12  O   UNL     1       0.940   4.611  20.355  0.00  0.00    +0.000 OA
ATOM     13  N   UNL     1       2.603   5.807  19.323  0.00  0.00    +0.000 N 
ATOM     14  C   UNL     1       2.169   7.073  19.887  0.00  0.00    +0.000 C 
ATOM     15  H   UNL     1       6.940   6.836  16.047  0.00  0.00    +0.000 HD
ENDROOT
BRANCH   1  17
ATOM     16  C   UNL     1       5.565   4.323  14.714  0.00  0.00    +0.000 C 
ATOM     17  C   UNL     1       5.950   4.176  16.187  0.00  0.00    +0.000 C 
ATOM     18  C   UNL     1       7.461   4.309  16.396  0.00  0.00    +0.000 C 
ENDBRANCH   1  17
BRANCH   3  19
ATOM     19  C   UNL     1       6.641   8.403  17.442  0.00  0.00    +0.000 C 
BRANCH  19  20
ATOM     20  C   UNL     1       8.111   8.381  17.874  0.00  0.00    +0.000 C 
BRANCH  20  21
ATOM     21  C   UNL     1       8.600   9.747  18.305  0.00  0.00    +0.000 A 
ATOM     22  C   UNL     1       8.309  10.884  17.539  0.00  0.00    +0.000 A 
ATOM     23  C   UNL     1       8.775  12.146  17.928  0.00  0.00    +0.000 A 
ATOM     24  C   UNL     1       9.530  12.284  19.085  0.00  0.00    +0.000 A 
ATOM     25  C   UNL     1       9.832  11.161  19.856  0.00  0.00    +0.000 A 
ATOM     26  C   UNL     1       9.372   9.900  19.465  0.00  0.00    +0.000 A 
ENDBRANCH  20  21
ENDBRANCH  19  20
ENDBRANCH   3  19
TORSDOF 4
ENDMDL
MODEL 2
REMARK VINA RESULT:      -7.4      2.525      4.289
REMARK  Name = 
REMARK  8 active torsions:
REMARK  status: ('A' for Active; 'I' for Inactive)
REMARK    1  A    between atoms: C_1  and  C_2
REMARK    2  A    between atoms: C_2  and  C_3
REMARK    3  A    between atoms: C_2  and  N_4
REMARK    4  A    between atoms: N_6  and  C_7
REMARK    5  A    between atoms: C_7  and  C_8
REMARK    6  A    between atoms: C_8  and  C_9
REMARK    7  A    between atoms: N_20  and  C_21
REMARK    8  A    between atoms: N_24  and  C_25
REMARK                            x       y       z     vdW  Elec       q    Type
REMARK                         _______ _______ _______ _____ _____    ______ ____
ROOT
ATOM      1  N   UNL     1       3.044   4.421  18.732  0.00  0.00    +0.000 N 
ATOM      2  C   UNL     1       3.586   4.746  17.490  0.00  0.00    +0.000 A 
ATOM      3  N   UNL     1       4.193   3.876  16.652  0.00  0.00    +0.000 N 
ATOM      4  N   UNL     1       3.437   6.028  17.238  0.00  0.00    +0.000 NA
ATOM      5  C   UNL     1       2.786   6.538  18.304  0.00  0.00    +0.000 A 
ATOM      6  C   UNL     1       2.549   5.602  19.265  0.00  0.00    +0.000 A 
ATOM      7  C   UNL     1       1.905   5.939  20.497  0.00  0.00    +0.000 A 
ATOM      8  O   UNL     1       1.692   5.132  21.396  0.00  0.00    +0.000 OA
ATOM      9  N   UNL     1       1.545   7.295  20.580  0.00  0.00    +0.000 N 
ATOM     10  C   UNL     1       0.887   7.771  21.783  0.00  0.00    +0.000 C 
ATOM     11  C   UNL     1       1.750   8.265  19.579  0.00  0.00    +0.000 A 
ATOM     12  O   UNL     1       1.369   9.427  19.731  0.00  0.00    +0.000 OA
ATOM     13  N   UNL     1       2.397   7.848  18.423  0.00  0.00    +0.000 N 
ATOM     14  C   UNL     1       2.636   8.773  17.330  0.00  0.00    +0.000 C 
ATOM     15  H   UNL     1       4.298   2.893  16.860  0.00  0.00    +0.000 HD
ENDROOT
BRANCH   1  17
ATOM     16  C   UNL     1       2.097   2.118  18.646  0.00  0.00    +0.000 C 
ATOM     17  C   UNL     1       3.000   3.112  19.378  0.00  0.00    +0.000 C 
ATOM     18  C   UNL     1       4.387   2.524  19.652  0.00  0.00    +0.000 C 
ENDBRANCH   1  17
BRANCH   3  19
ATOM     19  C   UNL     1       5.171   4.448  15.715  0.00  0.00    +0.000 C 
BRANCH  19  20
ATOM     20  C   UNL     1       6.615   4.176  16.148  0.00  0.00    +0.000 C 
BRANCH  20  21
ATOM     21  C   UNL     1       7.143   5.248  17.078  0.00  0.00    +0.000 A 
ATOM     22  C   UNL     1       7.178   6.589  16.675  0.00  0.00    +0.000 A 
ATOM     23  C   UNL     1       7.682   7.579  17.528  0.00  0.00    +0.000 A 
ATOM     24  C   UNL     1       8.151   7.238  18.790  0.00  0.00    +0.000 A 
ATOM     25  C   UNL     1       8.126   5.906  19.205  0.00  0.00    +0.000 A 
ATOM     26  C   UNL     1       7.629   4.916  18.351  0.00  0.00    +0.000 A 
ENDBRANCH  20  21
ENDBRANCH  19  20
ENDBRANCH   3  19
TORSDOF 4
ENDMDL
MODEL 3
REMARK VINA RESULT:      -7.2      3.197      6.582
REMARK  Name = 
REMARK  8 active torsions:
REMARK  status: ('A' for Active; 'I' for Inactive)
REMARK    1  A    between atoms: C_1  and  C_2
REMARK    2  A    between atoms: C_2  and  C_3
REMARK    3  A    between atoms: C_2  and  N_4
REMARK    4  A    between atoms: N_6  and  C_7
REMARK    5  A    between atoms: C_7  and  C_8
REMARK    6  A    between atoms: C_8  and  C_9
REMARK    7  A    between atoms: N_20  and  C_21
REMARK    8  A    between atoms: N_24  and  C_25
REMARK                            x       y       z     vdW  Elec       q    Type
REMARK                         _______ _______ _______ _____ _____    ______ ____
ROOT
ATOM      1  N   UNL     1       2.719   4.583  19.441  0.00  0.00    +0.000 N 
ATOM      2  C   UNL     1       2.472   5.904  19.810  0.00  0.00    +0.000 A 
ATOM      3  N   UNL     1       1.679   6.292  20.836  0.00  0.00    +0.000 N 
ATOM      4  N   UNL     1       3.109   6.737  19.017  0.00  0.00    +0.000 NA
ATOM      5  C   UNL     1       3.784   5.965  18.141  0.00  0.00    +0.000 A 
ATOM      6  C   UNL     1       3.555   4.635  18.336  0.00  0.00    +0.000 A 
ATOM      7  C   UNL     1       4.143   3.643  17.491  0.00  0.00    +0.000 A 
ATOM      8  O   UNL     1       3.946   2.438  17.618  0.00  0.00    +0.000 OA
ATOM      9  N   UNL     1       4.967   4.184  16.490  0.00  0.00    +0.000 N 
ATOM     10  C   UNL     1       5.622   3.283  15.559  0.00  0.00    +0.000 C 
ATOM     11  C   UNL     1       5.243   5.553  16.301  0.00  0.00    +0.000 A 
ATOM     12  O   UNL     1       6.007   5.933  15.412  0.00  0.00    +0.000 OA
ATOM     13  N   UNL     1       4.614   6.445  17.161  0.00  0.00    +0.000 N 
ATOM     14  C   UNL     1       4.852   7.873  17.053  0.00  0.00    +0.000 C 
ATOM     15  H   UNL     1       1.197   5.639  21.436  0.00  0.00    +0.000 HD
ENDROOT
BRANCH   1  17
ATOM     16  C   UNL     1       2.390   3.354  21.583  0.00  0.00    +0.000 C 
ATOM     17  C   UNL     1       2.208   3.365  20.065  0.00  0.00    +0.000 C 
ATOM     18  C   UNL     1       0.767   3.037  19.662  0.00  0.00    +0.000 C 
ENDBRANCH   1  17
BRANCH   3  19
ATOM     19  C   UNL     1       1.088   7.634  20.729  0.00  0.00    +0.000 C 
BRANCH  19  20
ATOM     20  C   UNL     1       1.488   8.537  21.901  0.00  0.00    +0.000 C 
BRANCH  20  21
ATOM     21  C   UNL     1       0.573   9.736  22.036  0.00  0.00    +0.000 A 
ATOM     22  C   UNL     1      -0.383   9.794  23.059  0.00  0.00    +0.000 A 
ATOM     23  C   UNL     1      -1.242  10.894  23.173  0.00  0.00    +0.000 A 
ATOM     24  C   UNL     1      -1.148  11.947  22.273  0.00  0.00    +0.000 A 
ATOM     25  C   UNL     1      -0.203  11.904  21.248  0.00  0.00    +0.000 A 
ATOM     26  C   UNL     1       0.649  10.802  21.128  0.00  0.00    +0.000 A 
ENDBRANCH  20  21
ENDBRANCH  19  20
ENDBRANCH   3  19
TORSDOF 4
ENDMDL
MODEL 4
REMARK VINA RESULT:      -7.0      5.657      9.061
REMARK  Name = 
REMARK  8 active torsions:
REMARK  status: ('A' for Active; 'I' for Inactive)
REMARK    1  A    between atoms: C_1  and  C_2
REMARK    2  A    between atoms: C_2  and  C_3
REMARK    3  A    between atoms: C_2  and  N_4
REMARK    4  A    between atoms: N_6  and  C_7
REMARK    5  A    between atoms: C_7  and  C_8
REMARK    6  A    between atoms: C_8  and  C_9
REMARK    7  A    between atoms: N_20  and  C_21
REMARK    8  A    between atoms: N_24  and  C_25
REMARK                            x       y       z     vdW  Elec       q    Type
REMARK                         _______ _______ _______ _____ _____    ______ ____
ROOT
ATOM      1  N   UNL     1      -0.532  10.769  19.714  0.00  0.00    +0.000 N 
ATOM      2  C   UNL     1       0.084   9.924  18.793  0.00  0.00    +0.000 A 
ATOM      3  N   UNL     1       1.306   9.363  18.944  0.00  0.00    +0.000 N 
ATOM      4  N   UNL     1      -0.682   9.747  17.739  0.00  0.00    +0.000 NA
ATOM      5  C   UNL     1      -1.802  10.461  17.975  0.00  0.00    +0.000 A 
ATOM      6  C   UNL     1      -1.749  11.133  19.160  0.00  0.00    +0.000 A 
ATOM      7  C   UNL     1      -2.818  11.983  19.586  0.00  0.00    +0.000 A 
ATOM      8  O   UNL     1      -2.801  12.622  20.633  0.00  0.00    +0.000 OA
ATOM      9  N   UNL     1      -3.891  12.020  18.680  0.00  0.00    +0.000 N 
ATOM     10  C   UNL     1      -5.041  12.850  18.992  0.00  0.00    +0.000 C 
ATOM     11  C   UNL     1      -3.975  11.300  17.472  0.00  0.00    +0.000 A 
ATOM     12  O   UNL     1      -4.975  11.372  16.756  0.00  0.00    +0.000 OA
ATOM     13  N   UNL     1      -2.882  10.513  17.133  0.00  0.00    +0.000 N 
ATOM     14  C   UNL     1      -2.886   9.722  15.915  0.00  0.00    +0.000 C 
ATOM     15  H   UNL     1       1.882   9.509  19.761  0.00  0.00    +0.000 HD
ENDROOT
BRANCH   1  17
ATOM     16  C   UNL     1       0.330  10.048  21.938  0.00  0.00    +0.000 C 
ATOM     17  C   UNL     1      -0.020  11.212  21.009  0.00  0.00    +0.000 C 
ATOM     18  C   UNL     1       1.131  12.215  20.896  0.00  0.00    +0.000 C 
ENDBRANCH   1  17
BRANCH   3  19
ATOM     19  C   UNL     1       2.015   9.005  17.707  0.00  0.00    +0.000 C 
BRANCH  19  20
ATOM     20  C   UNL     1       3.095   7.944  17.946  0.00  0.00    +0.000 C 
BRANCH  20  21
ATOM     21  C   UNL     1       2.536   6.697  18.598  0.00  0.00    +0.000 A 
ATOM     22  C   UNL     1       2.330   6.646  19.983  0.00  0.00    +0.000 A 
ATOM     23  C   UNL     1       1.829   5.488  20.589  0.00  0.00    +0.000 A 
ATOM     24  C   UNL     1       1.526   4.373  19.817  0.00  0.00    +0.000 A 
ATOM     25  C   UNL     1       1.729   4.407  18.437  0.00  0.00    +0.000 A 
ATOM     26  C   UNL     1       2.236   5.562  17.833  0.00  0.00    +0.000 A 
ENDBRANCH  20  21
ENDBRANCH  19  20
ENDBRANCH   3  19
TORSDOF 4
ENDMDL
MODEL 5
REMARK VINA RESULT:      -7.0      3.054      5.554
REMARK  Name = 
REMARK  8 active torsions:
REMARK  status: ('A' for Active; 'I' for Inactive)
REMARK    1  A    between atoms: C_1  and  C_2
REMARK    2  A    between atoms: C_2  and  C_3
REMARK    3  A    between atoms: C_2  and  N_4
REMARK    4  A    between atoms: N_6  and  C_7
REMARK    5  A    between atoms: C_7  and  C_8
REMARK    6  A    between atoms: C_8  and  C_9
REMARK    7  A    between atoms: N_20  and  C_21
REMARK    8  A    between atoms: N_24  and  C_25
REMARK                            x       y       z     vdW  Elec       q    Type
REMARK                         _______ _______ _______ _____ _____    ______ ____
ROOT
ATOM      1  N   UNL     1       4.399   6.097  17.922  0.00  0.00    +0.000 N 
ATOM      2  C   UNL     1       3.312   6.955  18.078  0.00  0.00    +0.000 A 
ATOM      3  N   UNL     1       3.161   8.145  17.454  0.00  0.00    +0.000 N 
ATOM      4  N   UNL     1       2.442   6.455  18.929  0.00  0.00    +0.000 NA
ATOM      5  C   UNL     1       2.950   5.267  19.317  0.00  0.00    +0.000 A 
ATOM      6  C   UNL     1       4.165   5.012  18.754  0.00  0.00    +0.000 A 
ATOM      7  C   UNL     1       4.898   3.824  19.062  0.00  0.00    +0.000 A 
ATOM      8  O   UNL     1       6.003   3.566  18.594  0.00  0.00    +0.000 OA
ATOM      9  N   UNL     1       4.229   2.978  19.963  0.00  0.00    +0.000 N 
ATOM     10  C   UNL     1       4.868   1.737  20.363  0.00  0.00    +0.000 C 
ATOM     11  C   UNL     1       2.957   3.211  20.522  0.00  0.00    +0.000 A 
ATOM     12  O   UNL     1       2.436   2.393  21.282  0.00  0.00    +0.000 OA
ATOM     13  N   UNL     1       2.328   4.400  20.178  0.00  0.00    +0.000 N 
ATOM     14  C   UNL     1       1.008   4.718  20.692  0.00  0.00    +0.000 C 
ATOM     15  H   UNL     1       3.839   8.514  16.802  0.00  0.00    +0.000 HD
ENDROOT
BRANCH   1  17
ATOM     16  C   UNL     1       5.218   6.357  15.583  0.00  0.00    +0.000 C 
ATOM     17  C   UNL     1       5.571   6.278  17.069  0.00  0.00    +0.000 C 
ATOM     18  C   UNL     1       6.463   7.444  17.505  0.00  0.00    +0.000 C 
ENDBRANCH   1  17
BRANCH   3  19
ATOM     19  C   UNL     1       2.309   9.133  18.132  0.00  0.00    +0.000 C 
BRANCH  19  20
ATOM     20  C   UNL     1       0.885   9.154  17.567  0.00  0.00    +0.000 C 
BRANCH  20  21
ATOM     21  C   UNL     1      -0.027  10.075  18.350  0.00  0.00    +0.000 A 
ATOM     22  C   UNL     1      -1.322  10.355  17.895  0.00  0.00    +0.000 A 
ATOM     23  C   UNL     1      -2.159  11.220  18.609  0.00  0.00    +0.000 A 
ATOM     24  C   UNL     1      -1.713  11.808  19.786  0.00  0.00    +0.000 A 
ATOM     25  C   UNL     1      -0.424  11.542  20.250  0.00  0.00    +0.000 A 
ATOM     26  C   UNL     1       0.415  10.683  19.533  0.00  0.00    +0.000 A 
ENDBRANCH  20  21
ENDBRANCH  19  20
ENDBRANCH   3  19
TORSDOF 4
ENDMDL
MODEL 6
REMARK VINA RESULT:      -6.9      3.766      5.779
REMARK  Name = 
REMARK  8 active torsions:
REMARK  status: ('A' for Active; 'I' for Inactive)
REMARK    1  A    between atoms: C_1  and  C_2
REMARK    2  A    between atoms: C_2  and  C_3
REMARK    3  A    between atoms: C_2  and  N_4
REMARK    4  A    between atoms: N_6  and  C_7
REMARK    5  A    between atoms: C_7  and  C_8
REMARK    6  A    between atoms: C_8  and  C_9
REMARK    7  A    between atoms: N_20  and  C_21
REMARK    8  A    between atoms: N_24  and  C_25
REMARK                            x       y       z     vdW  Elec       q    Type
REMARK                         _______ _______ _______ _____ _____    ______ ____
ROOT
ATOM      1  N   UNL     1       3.152   5.541  18.746  0.00  0.00    +0.000 N 
ATOM      2  C   UNL     1       3.753   6.072  17.606  0.00  0.00    +0.000 A 
ATOM      3  N   UNL     1       4.558   5.391  16.759  0.00  0.00    +0.000 N 
ATOM      4  N   UNL     1       3.440   7.341  17.463  0.00  0.00    +0.000 NA
ATOM      5  C   UNL     1       2.625   7.637  18.497  0.00  0.00    +0.000 A 
ATOM      6  C   UNL     1       2.440   6.576  19.333  0.00  0.00    +0.000 A 
ATOM      7  C   UNL     1       1.642   6.685  20.514  0.00  0.00    +0.000 A 
ATOM      8  O   UNL     1       1.468   5.761  21.304  0.00  0.00    +0.000 OA
ATOM      9  N   UNL     1       1.079   7.960  20.688  0.00  0.00    +0.000 N 
ATOM     10  C   UNL     1       0.249   8.206  21.853  0.00  0.00    +0.000 C 
ATOM     11  C   UNL     1       1.230   9.053  19.812  0.00  0.00    +0.000 A 
ATOM     12  O   UNL     1       0.670  10.129  20.032  0.00  0.00    +0.000 OA
ATOM     13  N   UNL     1       2.037   8.859  18.698  0.00  0.00    +0.000 N 
ATOM     14  C   UNL     1       2.237   9.923  17.730  0.00  0.00    +0.000 C 
ATOM     15  H   UNL     1       4.787   4.415  16.883  0.00  0.00    +0.000 HD
ENDROOT
BRANCH   1  17
ATOM     16  C   UNL     1       2.396   3.185  18.452  0.00  0.00    +0.000 C 
ATOM     17  C   UNL     1       3.242   4.175  19.255  0.00  0.00    +0.000 C 
ATOM     18  C   UNL     1       4.683   3.685  19.425  0.00  0.00    +0.000 C 
ENDBRANCH   1  17
BRANCH   3  19
ATOM     19  C   UNL     1       5.523   6.192  15.992  0.00  0.00    +0.000 C 
BRANCH  19  20
ATOM     20  C   UNL     1       6.807   5.414  15.687  0.00  0.00    +0.000 C 
BRANCH  20  21
ATOM     21  C   UNL     1       6.803   4.832  14.289  0.00  0.00    +0.000 A 
ATOM     22  C   UNL     1       7.708   5.290  13.321  0.00  0.00    +0.000 A 
ATOM     23  C   UNL     1       7.693   4.764  12.023  0.00  0.00    +0.000 A 
ATOM     24  C   UNL     1       6.780   3.775  11.683  0.00  0.00    +0.000 A 
ATOM     25  C   UNL     1       5.871   3.310  12.634  0.00  0.00    +0.000 A 
ATOM     26  C   UNL     1       5.880   3.840  13.928  0.00  0.00    +0.000 A 
ENDBRANCH  20  21
ENDBRANCH  19  20
ENDBRANCH   3  19
TORSDOF 4
ENDMDL
MODEL 7
REMARK VINA RESULT:      -6.8      6.174      9.378
REMARK  Name = 
REMARK  8 active torsions:
REMARK  status: ('A' for Active; 'I' for Inactive)
REMARK    1  A    between atoms: C_1  and  C_2
REMARK    2  A    between atoms: C_2  and  C_3
REMARK    3  A    between atoms: C_2  and  N_4
REMARK    4  A    between atoms: N_6  and  C_7
REMARK    5  A    between atoms: C_7  and  C_8
REMARK    6  A    between atoms: C_8  and  C_9
REMARK    7  A    between atoms: N_20  and  C_21
REMARK    8  A    between atoms: N_24  and  C_25
REMARK                            x       y       z     vdW  Elec       q    Type
REMARK                         _______ _______ _______ _____ _____    ______ ____
ROOT
ATOM      1  N   UNL     1      -1.513  10.779  18.175  0.00  0.00    +0.000 N 
ATOM      2  C   UNL     1      -0.161  10.607  18.470  0.00  0.00    +0.000 A 
ATOM      3  N   UNL     1       0.685   9.790  17.802  0.00  0.00    +0.000 N 
ATOM      4  N   UNL     1       0.189  11.344  19.501  0.00  0.00    +0.000 NA
ATOM      5  C   UNL     1      -0.926  12.009  19.872  0.00  0.00    +0.000 A 
ATOM      6  C   UNL     1      -2.007  11.676  19.111  0.00  0.00    +0.000 A 
ATOM      7  C   UNL     1      -3.299  12.236  19.361  0.00  0.00    +0.000 A 
ATOM      8  O   UNL     1      -4.301  11.947  18.715  0.00  0.00    +0.000 OA
ATOM      9  N   UNL     1      -3.310  13.149  20.429  0.00  0.00    +0.000 N 
ATOM     10  C   UNL     1      -4.563  13.787  20.790  0.00  0.00    +0.000 C 
ATOM     11  C   UNL     1      -2.193  13.532  21.197  0.00  0.00    +0.000 A 
ATOM     12  O   UNL     1      -2.295  14.367  22.097  0.00  0.00    +0.000 OA
ATOM     13  N   UNL     1      -0.982  12.923  20.892  0.00  0.00    +0.000 N 
ATOM     14  C   UNL     1       0.226  13.267  21.620  0.00  0.00    +0.000 C 
ATOM     15  H   UNL     1       0.400   9.231  17.011  0.00  0.00    +0.000 HD
ENDROOT
BRANCH   1  17
ATOM     16  C   UNL     1      -3.483   9.355  17.634  0.00  0.00    +0.000 C 
ATOM     17  C   UNL     1      -2.287  10.150  17.109  0.00  0.00    +0.000 C 
ATOM     18  C   UNL     1      -2.694  11.124  16.000  0.00  0.00    +0.000 C 
ENDBRANCH   1  17
BRANCH   3  19
ATOM     19  C   UNL     1       1.850   9.303  18.556  0.00  0.00    +0.000 C 
BRANCH  19  20
ATOM     20  C   UNL     1       2.536   8.122  17.860  0.00  0.00    +0.000 C 
BRANCH  20  21
ATOM     21  C   UNL     1       2.299   6.815  18.588  0.00  0.00    +0.000 A 
ATOM     22  C   UNL     1       2.078   6.798  19.971  0.00  0.00    +0.000 A 
ATOM     23  C   UNL     1       1.877   5.589  20.648  0.00  0.00    +0.000 A 
ATOM     24  C   UNL     1       1.889   4.389  19.949  0.00  0.00    +0.000 A 
ATOM     25  C   UNL     1       2.112   4.389  18.572  0.00  0.00    +0.000 A 
ATOM     26  C   UNL     1       2.320   5.596  17.897  0.00  0.00    +0.000 A 
ENDBRANCH  20  21
ENDBRANCH  19  20
ENDBRANCH   3  19
TORSDOF 4
ENDMDL
MODEL 8
REMARK VINA RESULT:      -6.7      5.940      8.955
REMARK  Name = 
REMARK  8 active torsions:
REMARK  status: ('A' for Active; 'I' for Inactive)
REMARK    1  A    between atoms: C_1  and  C_2
REMARK    2  A    between atoms: C_2  and  C_3
REMARK    3  A    between atoms: C_2  and  N_4
REMARK    4  A    between atoms: N_6  and  C_7
REMARK    5  A    between atoms: C_7  and  C_8
REMARK    6  A    between atoms: C_8  and  C_9
REMARK    7  A    between atoms: N_20  and  C_21
REMARK    8  A    between atoms: N_24  and  C_25
REMARK                            x       y       z     vdW  Elec       q    Type
REMARK                         _______ _______ _______ _____ _____    ______ ____
ROOT
ATOM      1  N   UNL     1      -0.874  11.162  19.937  0.00  0.00    +0.000 N 
ATOM      2  C   UNL     1      -0.103  10.379  19.079  0.00  0.00    +0.000 A 
ATOM      3  N   UNL     1       1.148   9.937  19.339  0.00  0.00    +0.000 N 
ATOM      4  N   UNL     1      -0.754  10.130  17.963  0.00  0.00    +0.000 NA
ATOM      5  C   UNL     1      -1.953  10.735  18.096  0.00  0.00    +0.000 A 
ATOM      6  C   UNL     1      -2.068  11.408  19.275  0.00  0.00    +0.000 A 
ATOM      7  C   UNL     1      -3.245  12.152  19.601  0.00  0.00    +0.000 A 
ATOM      8  O   UNL     1      -3.381  12.790  20.640  0.00  0.00    +0.000 OA
ATOM      9  N   UNL     1      -4.235  12.087  18.605  0.00  0.00    +0.000 N 
ATOM     10  C   UNL     1      -5.481  12.804  18.809  0.00  0.00    +0.000 C 
ATOM     11  C   UNL     1      -4.144  11.363  17.400  0.00  0.00    +0.000 A 
ATOM     12  O   UNL     1      -5.080  11.340  16.599  0.00  0.00    +0.000 OA
ATOM     13  N   UNL     1      -2.956  10.684  17.163  0.00  0.00    +0.000 N 
ATOM     14  C   UNL     1      -2.778   9.897  15.956  0.00  0.00    +0.000 C 
ATOM     15  H   UNL     1       1.634  10.136  20.202  0.00  0.00    +0.000 HD
ENDROOT
BRANCH   1  17
ATOM     16  C   UNL     1      -0.268  10.520  22.267  0.00  0.00    +0.000 C 
ATOM     17  C   UNL     1      -0.522  11.650  21.268  0.00  0.00    +0.000 C 
ATOM     18  C   UNL     1       0.622  12.667  21.256  0.00  0.00    +0.000 C 
ENDBRANCH   1  17
BRANCH   3  19
ATOM     19  C   UNL     1       1.993   9.648  18.171  0.00  0.00    +0.000 C 
BRANCH  19  20
ATOM     20  C   UNL     1       1.754   8.238  17.619  0.00  0.00    +0.000 C 
BRANCH  20  21
ATOM     21  C   UNL     1       2.816   7.259  18.075  0.00  0.00    +0.000 A 
ATOM     22  C   UNL     1       2.629   6.490  19.232  0.00  0.00    +0.000 A 
ATOM     23  C   UNL     1       3.617   5.598  19.664  0.00  0.00    +0.000 A 
ATOM     24  C   UNL     1       4.797   5.462  18.943  0.00  0.00    +0.000 A 
ATOM     25  C   UNL     1       4.999   6.223  17.791  0.00  0.00    +0.000 A 
ATOM     26  C   UNL     1       4.015   7.120  17.363  0.00  0.00    +0.000 A 
ENDBRANCH  20  21
ENDBRANCH  19  20
ENDBRANCH   3  19
TORSDOF 4
ENDMDL
MODEL 9
REMARK VINA RESULT:      -6.6      5.749      8.919
REMARK  Name = 
REMARK  8 active torsions:
REMARK  status: ('A' for Active; 'I' for Inactive)
REMARK    1  A    between atoms: C_1  and  C_2
REMARK    2  A    between atoms: C_2  and  C_3
REMARK    3  A    between atoms: C_2  and  N_4
REMARK    4  A    between atoms: N_6  and  C_7
REMARK    5  A    between atoms: C_7  and  C_8
REMARK    6  A    between atoms: C_8  and  C_9
REMARK    7  A    between atoms: N_20  and  C_21
REMARK    8  A    between atoms: N_24  and  C_25
REMARK                            x       y       z     vdW  Elec       q    Type
REMARK                         _______ _______ _______ _____ _____    ______ ____
ROOT
ATOM      1  N   UNL     1      -0.657  10.769  19.690  0.00  0.00    +0.000 N 
ATOM      2  C   UNL     1      -0.063   9.919  18.760  0.00  0.00    +0.000 A 
ATOM      3  N   UNL     1       1.148   9.333  18.899  0.00  0.00    +0.000 N 
ATOM      4  N   UNL     1      -0.838   9.764  17.708  0.00  0.00    +0.000 NA
ATOM      5  C   UNL     1      -1.943  10.499  17.956  0.00  0.00    +0.000 A 
ATOM      6  C   UNL     1      -1.870  11.162  19.145  0.00  0.00    +0.000 A 
ATOM      7  C   UNL     1      -2.919  12.029  19.583  0.00  0.00    +0.000 A 
ATOM      8  O   UNL     1      -2.884  12.661  20.635  0.00  0.00    +0.000 OA
ATOM      9  N   UNL     1      -3.997  12.094  18.684  0.00  0.00    +0.000 N 
ATOM     10  C   UNL     1      -5.128  12.944  19.007  0.00  0.00    +0.000 C 
ATOM     11  C   UNL     1      -4.102  11.384  17.471  0.00  0.00    +0.000 A 
ATOM     12  O   UNL     1      -5.104  11.481  16.761  0.00  0.00    +0.000 OA
ATOM     13  N   UNL     1      -3.026  10.578  17.120  0.00  0.00    +0.000 N 
ATOM     14  C   UNL     1      -3.052   9.795  15.897  0.00  0.00    +0.000 C 
ATOM     15  H   UNL     1       1.731   9.462  19.714  0.00  0.00    +0.000 HD
ENDROOT
BRANCH   1  17
ATOM     16  C   UNL     1       0.147  10.019  21.926  0.00  0.00    +0.000 C 
ATOM     17  C   UNL     1      -0.130  11.193  20.985  0.00  0.00    +0.000 C 
ATOM     18  C   UNL     1       1.078  12.127  20.872  0.00  0.00    +0.000 C 
ENDBRANCH   1  17
BRANCH   3  19
ATOM     19  C   UNL     1       1.843   8.969  17.656  0.00  0.00    +0.000 C 
BRANCH  19  20
ATOM     20  C   UNL     1       3.241   8.398  17.920  0.00  0.00    +0.000 C 
BRANCH  20  21
ATOM     21  C   UNL     1       3.285   6.894  17.750  0.00  0.00    +0.000 A 
ATOM     22  C   UNL     1       4.388   6.276  17.146  0.00  0.00    +0.000 A 
ATOM     23  C   UNL     1       4.421   4.887  16.972  0.00  0.00    +0.000 A 
ATOM     24  C   UNL     1       3.358   4.105  17.405  0.00  0.00    +0.000 A 
ATOM     25  C   UNL     1       2.252   4.706  18.005  0.00  0.00    +0.000 A 
ATOM     26  C   UNL     1       2.214   6.094  18.172  0.00  0.00    +0.000 A 
ENDBRANCH  20  21
ENDBRANCH  19  20
ENDBRANCH   3  19
TORSDOF 4
ENDMDL
