MODEL 1
REMARK VINA RESULT:      -7.3      0.000      0.000
REMARK  Name = 
REMARK  17 active torsions:
REMARK  status: ('A' for Active; 'I' for Inactive)
REMARK    1  A    between atoms: C_4  and  C_5
REMARK    2  A    between atoms: C_10  and  C_11
REMARK    3  A    between atoms: C_15  and  C_16
REMARK    4  A    between atoms: C_16  and  C_17
REMARK    5  A    between atoms: C_16  and  C_18
REMARK    6  A    between atoms: C_18  and  C_19
REMARK    7  A    between atoms: C_18  and  C_23
REMARK    8  A    between atoms: C_19  and  C_20
REMARK    9  A    between atoms: C_20  and  C_21
REMARK   10  A    between atoms: C_21  and  C_22
REMARK   11  A    between atoms: C_23  and  C_24
REMARK   12  A    between atoms: C_24  and  O_25
REMARK   13  A    between atoms: C_24  and  C_26
REMARK   14  A    between atoms: C_26  and  C_27
REMARK   15  A    between atoms: C_26  and  C_28
REMARK   16  A    between atoms: C_30  and  O_31
REMARK   17  A    between atoms: C_33  and  O_34
REMARK                            x       y       z     vdW  Elec       q    Type
REMARK                         _______ _______ _______ _____ _____    ______ ____
ROOT
ATOM      1  C   UNL     1       1.362   7.837  20.239  0.00  0.00    +0.000 C 
ATOM      2  C   UNL     1       0.493   8.673  20.837  0.00  0.00    +0.000 C 
ATOM      3  C   UNL     1      -0.076   8.521  22.238  0.00  0.00    +0.000 C 
ATOM      4  C   UNL     1      -0.090   9.830  23.035  0.00  0.00    +0.000 C 
ATOM      5  C   UNL     1      -0.749  10.993  22.283  0.00  0.00    +0.000 C 
ATOM      6  C   UNL     1      -0.197  11.155  20.851  0.00  0.00    +0.000 C 
ATOM      7  C   UNL     1       1.243  11.744  20.988  0.00  0.00    +0.000 C 
ATOM      8  C   UNL     1      -0.177   9.801  20.097  0.00  0.00    +0.000 C 
ATOM      9  C   UNL     1       0.220  10.202  18.682  0.00  0.00    +0.000 C 
ATOM     10  C   UNL     1      -0.577  11.492  18.459  0.00  0.00    +0.000 C 
ATOM     11  C   UNL     1      -1.027  12.047  19.848  0.00  0.00    +0.000 C 
ENDROOT
BRANCH   1  15
ATOM     12  C   UNL     1       3.101   6.183  17.961  0.00  0.00    +0.000 C 
ATOM     13  C   UNL     1       2.385   5.321  18.708  0.00  0.00    +0.000 C 
ATOM     14  C   UNL     1       2.262   5.494  20.159  0.00  0.00    +0.000 C 
ATOM     15  C   UNL     1       1.852   6.601  20.807  0.00  0.00    +0.000 C 
ATOM     16  C   UNL     1       2.549   4.241  20.972  0.00  0.00    +0.000 C 
ATOM     17  C   UNL     1       1.780   3.024  20.445  0.00  0.00    +0.000 C 
ATOM     18  C   UNL     1       2.013   2.825  18.950  0.00  0.00    +0.000 C 
ATOM     19  C   UNL     1       1.695   4.082  18.150  0.00  0.00    +0.000 C 
BRANCH  17  20
ATOM     20  O   UNL     1       0.384   3.140  20.721  0.00  0.00    +0.000 OA
ATOM     21  H   UNL     1       0.012   2.248  20.850  0.00  0.00    +0.000 HD
ENDBRANCH  17  20
BRANCH  19  22
ATOM     22  O   UNL     1       2.064   3.851  16.785  0.00  0.00    +0.000 OA
ATOM     23  H   UNL     1       1.238   3.784  16.278  0.00  0.00    +0.000 HD
ENDBRANCH  19  22
ENDBRANCH   1  15
BRANCH  11  24
ATOM     24  C   UNL     1      -2.593  12.133  20.100  0.00  0.00    +0.000 C 
ATOM     25  C   UNL     1      -3.478  11.839  18.868  0.00  0.00    +0.000 C 
BRANCH  24  26
ATOM     26  C   UNL     1      -3.099  13.435  20.859  0.00  0.00    +0.000 C 
BRANCH  26  27
ATOM     27  C   UNL     1      -4.085  13.113  22.020  0.00  0.00    +0.000 C 
BRANCH  27  28
ATOM     28  C   UNL     1      -3.517  12.562  23.332  0.00  0.00    +0.000 C 
BRANCH  28  29
ATOM     29  C   UNL     1      -4.546  12.540  24.458  0.00  0.00    +0.000 C 
ATOM     30  C   UNL     1      -5.930  12.859  23.921  0.00  0.00    +0.000 C 
ENDBRANCH  28  29
ENDBRANCH  27  28
ENDBRANCH  26  27
BRANCH  26  31
ATOM     31  C   UNL     1      -1.919  14.278  21.429  0.00  0.00    +0.000 C 
BRANCH  31  32
ATOM     32  C   UNL     1      -1.715  15.712  20.914  0.00  0.00    +0.000 C 
BRANCH  32  33
ATOM     33  C   UNL     1      -0.347  15.995  20.252  0.00  0.00    +0.000 C 
ATOM     34  C   UNL     1       0.839  15.373  20.997  0.00  0.00    +0.000 C 
ATOM     35  C   UNL     1      -0.333  15.479  18.807  0.00  0.00    +0.000 C 
ENDBRANCH  32  33
BRANCH  32  36
ATOM     36  O   UNL     1      -2.765  15.980  19.971  0.00  0.00    +0.000 OA
ATOM     37  H   UNL     1      -3.402  15.245  20.008  0.00  0.00    +0.000 HD
ENDBRANCH  32  36
ENDBRANCH  31  32
ENDBRANCH  26  31
ENDBRANCH  24  26
ENDBRANCH  11  24
TORSDOF 12
ENDMDL
MODEL 2
REMARK VINA RESULT:      -7.2      1.439      3.009
REMARK  Name = 
REMARK  17 active torsions:
REMARK  status: ('A' for Active; 'I' for Inactive)
REMARK    1  A    between atoms: C_4  and  C_5
REMARK    2  A    between atoms: C_10  and  C_11
REMARK    3  A    between atoms: C_15  and  C_16
REMARK    4  A    between atoms: C_16  and  C_17
REMARK    5  A    between atoms: C_16  and  C_18
REMARK    6  A    between atoms: C_18  and  C_19
REMARK    7  A    between atoms: C_18  and  C_23
REMARK    8  A    between atoms: C_19  and  C_20
REMARK    9  A    between atoms: C_20  and  C_21
REMARK   10  A    between atoms: C_21  and  C_22
REMARK   11  A    between atoms: C_23  and  C_24
REMARK   12  A    between atoms: C_24  and  O_25
REMARK   13  A    between atoms: C_24  and  C_26
REMARK   14  A    between atoms: C_26  and  C_27
REMARK   15  A    between atoms: C_26  and  C_28
REMARK   16  A    between atoms: C_30  and  O_31
REMARK   17  A    between atoms: C_33  and  O_34
REMARK                            x       y       z     vdW  Elec       q    Type
REMARK                         _______ _______ _______ _____ _____    ______ ____
ROOT
ATOM      1  C   UNL     1       1.350   7.851  20.266  0.00  0.00    +0.000 C 
ATOM      2  C   UNL     1       0.475   8.675  20.872  0.00  0.00    +0.000 C 
ATOM      3  C   UNL     1      -0.084   8.512  22.275  0.00  0.00    +0.000 C 
ATOM      4  C   UNL     1      -0.109   9.819  23.076  0.00  0.00    +0.000 C 
ATOM      5  C   UNL     1      -0.787  10.975  22.331  0.00  0.00    +0.000 C 
ATOM      6  C   UNL     1      -0.246  11.148  20.897  0.00  0.00    +0.000 C 
ATOM      7  C   UNL     1       1.187  11.755  21.027  0.00  0.00    +0.000 C 
ATOM      8  C   UNL     1      -0.213   9.797  20.139  0.00  0.00    +0.000 C 
ATOM      9  C   UNL     1       0.170  10.206  18.723  0.00  0.00    +0.000 C 
ATOM     10  C   UNL     1      -0.644  11.487  18.508  0.00  0.00    +0.000 C 
ATOM     11  C   UNL     1      -1.092  12.032  19.901  0.00  0.00    +0.000 C 
ENDROOT
BRANCH   1  15
ATOM     12  C   UNL     1       3.048   6.198  17.957  0.00  0.00    +0.000 C 
ATOM     13  C   UNL     1       2.353   5.335  18.722  0.00  0.00    +0.000 C 
ATOM     14  C   UNL     1       2.261   5.512  20.175  0.00  0.00    +0.000 C 
ATOM     15  C   UNL     1       1.858   6.620  20.828  0.00  0.00    +0.000 C 
ATOM     16  C   UNL     1       2.571   4.264  20.986  0.00  0.00    +0.000 C 
ATOM     17  C   UNL     1       1.797   3.041  20.480  0.00  0.00    +0.000 C 
ATOM     18  C   UNL     1       1.999   2.838  18.980  0.00  0.00    +0.000 C 
ATOM     19  C   UNL     1       1.658   4.091  18.184  0.00  0.00    +0.000 C 
BRANCH  17  20
ATOM     20  O   UNL     1       0.407   3.151  20.784  0.00  0.00    +0.000 OA
ATOM     21  H   UNL     1       0.218   2.632  21.587  0.00  0.00    +0.000 HD
ENDBRANCH  17  20
BRANCH  19  22
ATOM     22  O   UNL     1       2.000   3.857  16.812  0.00  0.00    +0.000 OA
ATOM     23  H   UNL     1       2.366   4.688  16.468  0.00  0.00    +0.000 HD
ENDBRANCH  19  22
ENDBRANCH   1  15
BRANCH  11  24
ATOM     24  C   UNL     1      -2.658  12.099  20.163  0.00  0.00    +0.000 C 
ATOM     25  C   UNL     1      -3.544  11.966  18.904  0.00  0.00    +0.000 C 
BRANCH  24  26
ATOM     26  C   UNL     1      -3.154  13.301  21.077  0.00  0.00    +0.000 C 
BRANCH  26  27
ATOM     27  C   UNL     1      -2.486  14.657  20.709  0.00  0.00    +0.000 C 
BRANCH  27  28
ATOM     28  C   UNL     1      -1.749  15.433  21.806  0.00  0.00    +0.000 C 
BRANCH  28  29
ATOM     29  C   UNL     1      -0.925  14.529  22.716  0.00  0.00    +0.000 C 
ATOM     30  C   UNL     1      -1.502  14.517  24.121  0.00  0.00    +0.000 C 
ENDBRANCH  28  29
ENDBRANCH  27  28
ENDBRANCH  26  27
BRANCH  26  31
ATOM     31  C   UNL     1      -4.701  13.479  21.022  0.00  0.00    +0.000 C 
BRANCH  31  32
ATOM     32  C   UNL     1      -5.566  12.786  22.087  0.00  0.00    +0.000 C 
BRANCH  32  33
ATOM     33  C   UNL     1      -6.451  13.723  22.941  0.00  0.00    +0.000 C 
ATOM     34  C   UNL     1      -7.148  13.018  24.109  0.00  0.00    +0.000 C 
ATOM     35  C   UNL     1      -5.617  14.881  23.505  0.00  0.00    +0.000 C 
ENDBRANCH  32  33
BRANCH  32  36
ATOM     36  O   UNL     1      -6.400  11.834  21.405  0.00  0.00    +0.000 OA
ATOM     37  H   UNL     1      -6.373  12.033  20.453  0.00  0.00    +0.000 HD
ENDBRANCH  32  36
ENDBRANCH  31  32
ENDBRANCH  26  31
ENDBRANCH  24  26
ENDBRANCH  11  24
TORSDOF 12
ENDMDL
MODEL 3
REMARK VINA RESULT:      -7.1      3.378     10.427
REMARK  Name = 
REMARK  17 active torsions:
REMARK  status: ('A' for Active; 'I' for Inactive)
REMARK    1  A    between atoms: C_4  and  C_5
REMARK    2  A    between atoms: C_10  and  C_11
REMARK    3  A    between atoms: C_15  and  C_16
REMARK    4  A    between atoms: C_16  and  C_17
REMARK    5  A    between atoms: C_16  and  C_18
REMARK    6  A    between atoms: C_18  and  C_19
REMARK    7  A    between atoms: C_18  and  C_23
REMARK    8  A    between atoms: C_19  and  C_20
REMARK    9  A    between atoms: C_20  and  C_21
REMARK   10  A    between atoms: C_21  and  C_22
REMARK   11  A    between atoms: C_23  and  C_24
REMARK   12  A    between atoms: C_24  and  O_25
REMARK   13  A    between atoms: C_24  and  C_26
REMARK   14  A    between atoms: C_26  and  C_27
REMARK   15  A    between atoms: C_26  and  C_28
REMARK   16  A    between atoms: C_30  and  O_31
REMARK   17  A    between atoms: C_33  and  O_34
REMARK                            x       y       z     vdW  Elec       q    Type
REMARK                         _______ _______ _______ _____ _____    ______ ____
ROOT
ATOM      1  C   UNL     1       1.306   8.815  19.644  0.00  0.00    +0.000 C 
ATOM      2  C   UNL     1       1.922   7.625  19.771  0.00  0.00    +0.000 C 
ATOM      3  C   UNL     1       1.866   6.714  20.987  0.00  0.00    +0.000 C 
ATOM      4  C   UNL     1       1.658   5.238  20.633  0.00  0.00    +0.000 C 
ATOM      5  C   UNL     1       2.650   4.718  19.585  0.00  0.00    +0.000 C 
ATOM      6  C   UNL     1       2.735   5.637  18.349  0.00  0.00    +0.000 C 
ATOM      7  C   UNL     1       1.411   5.434  17.546  0.00  0.00    +0.000 C 
ATOM      8  C   UNL     1       2.916   7.121  18.759  0.00  0.00    +0.000 C 
ATOM      9  C   UNL     1       3.154   7.819  17.427  0.00  0.00    +0.000 C 
ATOM     10  C   UNL     1       4.069   6.837  16.687  0.00  0.00    +0.000 C 
ATOM     11  C   UNL     1       3.963   5.440  17.378  0.00  0.00    +0.000 C 
ENDROOT
BRANCH   1  15
ATOM     12  C   UNL     1      -1.341  10.277  18.300  0.00  0.00    +0.000 C 
ATOM     13  C   UNL     1      -0.841  11.046  19.285  0.00  0.00    +0.000 C 
ATOM     14  C   UNL     1      -0.367  10.459  20.542  0.00  0.00    +0.000 C 
ATOM     15  C   UNL     1       0.537   9.469  20.678  0.00  0.00    +0.000 C 
ATOM     16  C   UNL     1      -0.906  11.127  21.797  0.00  0.00    +0.000 C 
ATOM     17  C   UNL     1      -0.750  12.651  21.751  0.00  0.00    +0.000 C 
ATOM     18  C   UNL     1      -1.343  13.231  20.469  0.00  0.00    +0.000 C 
ATOM     19  C   UNL     1      -0.771  12.568  19.223  0.00  0.00    +0.000 C 
BRANCH  17  20
ATOM     20  O   UNL     1       0.621  13.031  21.881  0.00  0.00    +0.000 OA
ATOM     21  H   UNL     1       0.877  12.972  22.819  0.00  0.00    +0.000 HD
ENDBRANCH  17  20
BRANCH  19  22
ATOM     22  O   UNL     1      -1.473  13.074  18.082  0.00  0.00    +0.000 OA
ATOM     23  H   UNL     1      -2.259  12.516  17.964  0.00  0.00    +0.000 HD
ENDBRANCH  19  22
ENDBRANCH   1  15
BRANCH  11  24
ATOM     24  C   UNL     1       5.297   4.869  18.025  0.00  0.00    +0.000 C 
ATOM     25  C   UNL     1       5.341   4.883  19.570  0.00  0.00    +0.000 C 
BRANCH  24  26
ATOM     26  C   UNL     1       6.654   5.430  17.417  0.00  0.00    +0.000 C 
BRANCH  26  27
ATOM     27  C   UNL     1       7.763   5.625  18.491  0.00  0.00    +0.000 C 
BRANCH  27  28
ATOM     28  C   UNL     1       8.294   7.039  18.750  0.00  0.00    +0.000 C 
BRANCH  28  29
ATOM     29  C   UNL     1       7.789   8.054  17.729  0.00  0.00    +0.000 C 
ATOM     30  C   UNL     1       8.333   9.438  18.038  0.00  0.00    +0.000 C 
ENDBRANCH  28  29
ENDBRANCH  27  28
ENDBRANCH  26  27
BRANCH  26  31
ATOM     31  C   UNL     1       7.213   4.516  16.286  0.00  0.00    +0.000 C 
BRANCH  31  32
ATOM     32  C   UNL     1       6.252   4.008  15.199  0.00  0.00    +0.000 C 
BRANCH  32  33
ATOM     33  C   UNL     1       6.846   3.916  13.774  0.00  0.00    +0.000 C 
ATOM     34  C   UNL     1       5.816   3.555  12.699  0.00  0.00    +0.000 C 
ATOM     35  C   UNL     1       7.508   5.244  13.382  0.00  0.00    +0.000 C 
ENDBRANCH  32  33
BRANCH  32  36
ATOM     36  O   UNL     1       5.792   2.710  15.608  0.00  0.00    +0.000 OA
ATOM     37  H   UNL     1       6.521   2.262  16.072  0.00  0.00    +0.000 HD
ENDBRANCH  32  36
ENDBRANCH  31  32
ENDBRANCH  26  31
ENDBRANCH  24  26
ENDBRANCH  11  24
TORSDOF 12
ENDMDL
MODEL 4
REMARK VINA RESULT:      -7.1      1.545      3.093
REMARK  Name = 
REMARK  17 active torsions:
REMARK  status: ('A' for Active; 'I' for Inactive)
REMARK    1  A    between atoms: C_4  and  C_5
REMARK    2  A    between atoms: C_10  and  C_11
REMARK    3  A    between atoms: C_15  and  C_16
REMARK    4  A    between atoms: C_16  and  C_17
REMARK    5  A    between atoms: C_16  and  C_18
REMARK    6  A    between atoms: C_18  and  C_19
REMARK    7  A    between atoms: C_18  and  C_23
REMARK    8  A    between atoms: C_19  and  C_20
REMARK    9  A    between atoms: C_20  and  C_21
REMARK   10  A    between atoms: C_21  and  C_22
REMARK   11  A    between atoms: C_23  and  C_24
REMARK   12  A    between atoms: C_24  and  O_25
REMARK   13  A    between atoms: C_24  and  C_26
REMARK   14  A    between atoms: C_26  and  C_27
REMARK   15  A    between atoms: C_26  and  C_28
REMARK   16  A    between atoms: C_30  and  O_31
REMARK   17  A    between atoms: C_33  and  O_34
REMARK                            x       y       z     vdW  Elec       q    Type
REMARK                         _______ _______ _______ _____ _____    ______ ____
ROOT
ATOM      1  C   UNL     1       1.358   7.931  20.237  0.00  0.00    +0.000 C 
ATOM      2  C   UNL     1       0.446   8.743  20.805  0.00  0.00    +0.000 C 
ATOM      3  C   UNL     1      -0.147   8.589  22.195  0.00  0.00    +0.000 C 
ATOM      4  C   UNL     1      -0.226   9.906  22.973  0.00  0.00    +0.000 C 
ATOM      5  C   UNL     1      -0.910  11.035  22.191  0.00  0.00    +0.000 C 
ATOM      6  C   UNL     1      -0.333  11.198  20.770  0.00  0.00    +0.000 C 
ATOM      7  C   UNL     1       1.081  11.841  20.930  0.00  0.00    +0.000 C 
ATOM      8  C   UNL     1      -0.247   9.837  20.035  0.00  0.00    +0.000 C 
ATOM      9  C   UNL     1       0.165  10.233  18.624  0.00  0.00    +0.000 C 
ATOM     10  C   UNL     1      -0.673  11.490  18.366  0.00  0.00    +0.000 C 
ATOM     11  C   UNL     1      -1.172  12.046  19.737  0.00  0.00    +0.000 C 
ENDROOT
BRANCH   1  15
ATOM     12  C   UNL     1       3.076   6.235  17.975  0.00  0.00    +0.000 C 
ATOM     13  C   UNL     1       2.390   5.386  18.762  0.00  0.00    +0.000 C 
ATOM     14  C   UNL     1       2.295   5.601  20.210  0.00  0.00    +0.000 C 
ATOM     15  C   UNL     1       1.879   6.722  20.832  0.00  0.00    +0.000 C 
ATOM     16  C   UNL     1       2.618   4.379  21.055  0.00  0.00    +0.000 C 
ATOM     17  C   UNL     1       1.859   3.134  20.582  0.00  0.00    +0.000 C 
ATOM     18  C   UNL     1       2.064   2.893  19.089  0.00  0.00    +0.000 C 
ATOM     19  C   UNL     1       1.709   4.119  18.258  0.00  0.00    +0.000 C 
BRANCH  17  20
ATOM     20  O   UNL     1       0.466   3.237  20.883  0.00  0.00    +0.000 OA
ATOM     21  H   UNL     1       0.317   2.928  21.795  0.00  0.00    +0.000 HD
ENDBRANCH  17  20
BRANCH  19  22
ATOM     22  O   UNL     1       2.054   3.852  16.893  0.00  0.00    +0.000 OA
ATOM     23  H   UNL     1       1.334   4.207  16.347  0.00  0.00    +0.000 HD
ENDBRANCH  19  22
ENDBRANCH   1  15
BRANCH  11  24
ATOM     24  C   UNL     1      -2.745  12.079  19.955  0.00  0.00    +0.000 C 
ATOM     25  C   UNL     1      -3.593  11.819  18.688  0.00  0.00    +0.000 C 
BRANCH  24  26
ATOM     26  C   UNL     1      -3.305  13.330  20.760  0.00  0.00    +0.000 C 
BRANCH  26  27
ATOM     27  C   UNL     1      -2.452  14.615  20.550  0.00  0.00    +0.000 C 
BRANCH  27  28
ATOM     28  C   UNL     1      -1.649  15.163  21.735  0.00  0.00    +0.000 C 
BRANCH  28  29
ATOM     29  C   UNL     1      -2.320  14.893  23.078  0.00  0.00    +0.000 C 
ATOM     30  C   UNL     1      -1.289  14.492  24.119  0.00  0.00    +0.000 C 
ENDBRANCH  28  29
ENDBRANCH  27  28
ENDBRANCH  26  27
BRANCH  26  31
ATOM     31  C   UNL     1      -4.785  13.650  20.391  0.00  0.00    +0.000 C 
BRANCH  31  32
ATOM     32  C   UNL     1      -5.884  13.380  21.430  0.00  0.00    +0.000 C 
BRANCH  32  33
ATOM     33  C   UNL     1      -7.241  12.906  20.858  0.00  0.00    +0.000 C 
ATOM     34  C   UNL     1      -7.186  12.529  19.375  0.00  0.00    +0.000 C 
ATOM     35  C   UNL     1      -7.761  11.695  21.645  0.00  0.00    +0.000 C 
ENDBRANCH  32  33
BRANCH  32  36
ATOM     36  O   UNL     1      -5.378  12.389  22.339  0.00  0.00    +0.000 OA
ATOM     37  H   UNL     1      -4.461  12.183  22.084  0.00  0.00    +0.000 HD
ENDBRANCH  32  36
ENDBRANCH  31  32
ENDBRANCH  26  31
ENDBRANCH  24  26
ENDBRANCH  11  24
TORSDOF 12
ENDMDL
MODEL 5
REMARK VINA RESULT:      -7.1      1.311      1.863
REMARK  Name = 
REMARK  17 active torsions:
REMARK  status: ('A' for Active; 'I' for Inactive)
REMARK    1  A    between atoms: C_4  and  C_5
REMARK    2  A    between atoms: C_10  and  C_11
REMARK    3  A    between atoms: C_15  and  C_16
REMARK    4  A    between atoms: C_16  and  C_17
REMARK    5  A    between atoms: C_16  and  C_18
REMARK    6  A    between atoms: C_18  and  C_19
REMARK    7  A    between atoms: C_18  and  C_23
REMARK    8  A    between atoms: C_19  and  C_20
REMARK    9  A    between atoms: C_20  and  C_21
REMARK   10  A    between atoms: C_21  and  C_22
REMARK   11  A    between atoms: C_23  and  C_24
REMARK   12  A    between atoms: C_24  and  O_25
REMARK   13  A    between atoms: C_24  and  C_26
REMARK   14  A    between atoms: C_26  and  C_27
REMARK   15  A    between atoms: C_26  and  C_28
REMARK   16  A    between atoms: C_30  and  O_31
REMARK   17  A    between atoms: C_33  and  O_34
REMARK                            x       y       z     vdW  Elec       q    Type
REMARK                         _______ _______ _______ _____ _____    ______ ____
ROOT
ATOM      1  C   UNL     1       1.267   7.948  20.205  0.00  0.00    +0.000 C 
ATOM      2  C   UNL     1       0.324   8.742  20.746  0.00  0.00    +0.000 C 
ATOM      3  C   UNL     1      -0.323   8.562  22.109  0.00  0.00    +0.000 C 
ATOM      4  C   UNL     1      -0.449   9.868  22.901  0.00  0.00    +0.000 C 
ATOM      5  C   UNL     1      -1.116  10.998  22.107  0.00  0.00    +0.000 C 
ATOM      6  C   UNL     1      -0.485  11.187  20.712  0.00  0.00    +0.000 C 
ATOM      7  C   UNL     1       0.914  11.845  20.936  0.00  0.00    +0.000 C 
ATOM      8  C   UNL     1      -0.352   9.837  19.963  0.00  0.00    +0.000 C 
ATOM      9  C   UNL     1       0.111  10.257  18.575  0.00  0.00    +0.000 C 
ATOM     10  C   UNL     1      -0.732  11.507  18.300  0.00  0.00    +0.000 C 
ATOM     11  C   UNL     1      -1.293  12.039  19.657  0.00  0.00    +0.000 C 
ENDROOT
BRANCH   1  15
ATOM     12  C   UNL     1       3.063   6.284  17.980  0.00  0.00    +0.000 C 
ATOM     13  C   UNL     1       2.360   5.423  18.740  0.00  0.00    +0.000 C 
ATOM     14  C   UNL     1       2.221   5.625  20.186  0.00  0.00    +0.000 C 
ATOM     15  C   UNL     1       1.780   6.738  20.805  0.00  0.00    +0.000 C 
ATOM     16  C   UNL     1       2.529   4.398  21.029  0.00  0.00    +0.000 C 
ATOM     17  C   UNL     1       1.792   3.152  20.525  0.00  0.00    +0.000 C 
ATOM     18  C   UNL     1       2.043   2.925  19.036  0.00  0.00    +0.000 C 
ATOM     19  C   UNL     1       1.704   4.156  18.205  0.00  0.00    +0.000 C 
BRANCH  17  20
ATOM     20  O   UNL     1       0.391   3.243  20.785  0.00  0.00    +0.000 OA
ATOM     21  H   UNL     1      -0.093   2.798  20.066  0.00  0.00    +0.000 HD
ENDBRANCH  17  20
BRANCH  19  22
ATOM     22  O   UNL     1       2.091   3.903  16.849  0.00  0.00    +0.000 OA
ATOM     23  H   UNL     1       2.415   4.745  16.488  0.00  0.00    +0.000 HD
ENDBRANCH  19  22
ENDBRANCH   1  15
BRANCH  11  24
ATOM     24  C   UNL     1      -2.873  12.050  19.812  0.00  0.00    +0.000 C 
ATOM     25  C   UNL     1      -3.664  11.667  18.540  0.00  0.00    +0.000 C 
BRANCH  24  26
ATOM     26  C   UNL     1      -3.492  13.347  20.491  0.00  0.00    +0.000 C 
BRANCH  26  27
ATOM     27  C   UNL     1      -4.479  13.013  21.647  0.00  0.00    +0.000 C 
BRANCH  27  28
ATOM     28  C   UNL     1      -5.818  12.353  21.300  0.00  0.00    +0.000 C 
BRANCH  28  29
ATOM     29  C   UNL     1      -6.653  13.188  20.334  0.00  0.00    +0.000 C 
ATOM     30  C   UNL     1      -7.302  12.300  19.286  0.00  0.00    +0.000 C 
ENDBRANCH  28  29
ENDBRANCH  27  28
ENDBRANCH  26  27
BRANCH  26  31
ATOM     31  C   UNL     1      -2.391  14.304  21.039  0.00  0.00    +0.000 C 
BRANCH  31  32
ATOM     32  C   UNL     1      -2.419  14.694  22.525  0.00  0.00    +0.000 C 
BRANCH  32  33
ATOM     33  C   UNL     1      -1.079  14.536  23.281  0.00  0.00    +0.000 C 
ATOM     34  C   UNL     1       0.129  15.086  22.516  0.00  0.00    +0.000 C 
ATOM     35  C   UNL     1      -1.147  15.236  24.645  0.00  0.00    +0.000 C 
ENDBRANCH  32  33
BRANCH  32  36
ATOM     36  O   UNL     1      -2.849  16.062  22.599  0.00  0.00    +0.000 OA
ATOM     37  H   UNL     1      -3.694  16.090  23.081  0.00  0.00    +0.000 HD
ENDBRANCH  32  36
ENDBRANCH  31  32
ENDBRANCH  26  31
ENDBRANCH  24  26
ENDBRANCH  11  24
TORSDOF 12
ENDMDL
MODEL 6
REMARK VINA RESULT:      -7.0      0.897      1.238
REMARK  Name = 
REMARK  17 active torsions:
REMARK  status: ('A' for Active; 'I' for Inactive)
REMARK    1  A    between atoms: C_4  and  C_5
REMARK    2  A    between atoms: C_10  and  C_11
REMARK    3  A    between atoms: C_15  and  C_16
REMARK    4  A    between atoms: C_16  and  C_17
REMARK    5  A    between atoms: C_16  and  C_18
REMARK    6  A    between atoms: C_18  and  C_19
REMARK    7  A    between atoms: C_18  and  C_23
REMARK    8  A    between atoms: C_19  and  C_20
REMARK    9  A    between atoms: C_20  and  C_21
REMARK   10  A    between atoms: C_21  and  C_22
REMARK   11  A    between atoms: C_23  and  C_24
REMARK   12  A    between atoms: C_24  and  O_25
REMARK   13  A    between atoms: C_24  and  C_26
REMARK   14  A    between atoms: C_26  and  C_27
REMARK   15  A    between atoms: C_26  and  C_28
REMARK   16  A    between atoms: C_30  and  O_31
REMARK   17  A    between atoms: C_33  and  O_34
REMARK                            x       y       z     vdW  Elec       q    Type
REMARK                         _______ _______ _______ _____ _____    ______ ____
ROOT
ATOM      1  C   UNL     1       1.334   7.917  20.235  0.00  0.00    +0.000 C 
ATOM      2  C   UNL     1       0.448   8.746  20.818  0.00  0.00    +0.000 C 
ATOM      3  C   UNL     1      -0.132   8.599  22.215  0.00  0.00    +0.000 C 
ATOM      4  C   UNL     1      -0.173   9.914  22.999  0.00  0.00    +0.000 C 
ATOM      5  C   UNL     1      -0.843  11.060  22.230  0.00  0.00    +0.000 C 
ATOM      6  C   UNL     1      -0.281  11.217  20.802  0.00  0.00    +0.000 C 
ATOM      7  C   UNL     1       1.148  11.830  20.946  0.00  0.00    +0.000 C 
ATOM      8  C   UNL     1      -0.233   9.857  20.061  0.00  0.00    +0.000 C 
ATOM      9  C   UNL     1       0.170  10.250  18.646  0.00  0.00    +0.000 C 
ATOM     10  C   UNL     1      -0.645  11.525  18.403  0.00  0.00    +0.000 C 
ATOM     11  C   UNL     1      -1.116  12.086  19.783  0.00  0.00    +0.000 C 
ENDROOT
BRANCH   1  15
ATOM     12  C   UNL     1       3.076   6.245  17.973  0.00  0.00    +0.000 C 
ATOM     13  C   UNL     1       2.371   5.388  18.737  0.00  0.00    +0.000 C 
ATOM     14  C   UNL     1       2.255   5.582  20.186  0.00  0.00    +0.000 C 
ATOM     15  C   UNL     1       1.838   6.695  20.819  0.00  0.00    +0.000 C 
ATOM     16  C   UNL     1       2.557   4.344  21.016  0.00  0.00    +0.000 C 
ATOM     17  C   UNL     1       1.796   3.112  20.513  0.00  0.00    +0.000 C 
ATOM     18  C   UNL     1       2.023   2.893  19.019  0.00  0.00    +0.000 C 
ATOM     19  C   UNL     1       1.689   4.134  18.202  0.00  0.00    +0.000 C 
BRANCH  17  20
ATOM     20  O   UNL     1       0.400   3.220  20.794  0.00  0.00    +0.000 OA
ATOM     21  H   UNL     1       0.197   4.143  21.030  0.00  0.00    +0.000 HD
ENDBRANCH  17  20
BRANCH  19  22
ATOM     22  O   UNL     1       2.054   3.886  16.839  0.00  0.00    +0.000 OA
ATOM     23  H   UNL     1       1.292   4.141  16.293  0.00  0.00    +0.000 HD
ENDBRANCH  19  22
ENDBRANCH   1  15
BRANCH  11  24
ATOM     24  C   UNL     1      -2.685  12.151  20.020  0.00  0.00    +0.000 C 
ATOM     25  C   UNL     1      -3.554  11.875  18.772  0.00  0.00    +0.000 C 
BRANCH  24  26
ATOM     26  C   UNL     1      -3.213  13.430  20.803  0.00  0.00    +0.000 C 
BRANCH  26  27
ATOM     27  C   UNL     1      -3.978  13.067  22.108  0.00  0.00    +0.000 C 
BRANCH  27  28
ATOM     28  C   UNL     1      -5.502  12.910  22.045  0.00  0.00    +0.000 C 
BRANCH  28  29
ATOM     29  C   UNL     1      -6.128  13.688  20.892  0.00  0.00    +0.000 C 
ATOM     30  C   UNL     1      -6.999  12.778  20.045  0.00  0.00    +0.000 C 
ENDBRANCH  28  29
ENDBRANCH  27  28
ENDBRANCH  26  27
BRANCH  26  31
ATOM     31  C   UNL     1      -2.060  14.416  21.160  0.00  0.00    +0.000 C 
BRANCH  31  32
ATOM     32  C   UNL     1      -2.173  15.882  20.714  0.00  0.00    +0.000 C 
BRANCH  32  33
ATOM     33  C   UNL     1      -0.984  16.420  19.884  0.00  0.00    +0.000 C 
ATOM     34  C   UNL     1      -0.402  15.394  18.905  0.00  0.00    +0.000 C 
ATOM     35  C   UNL     1      -1.404  17.662  19.087  0.00  0.00    +0.000 C 
ENDBRANCH  32  33
BRANCH  32  36
ATOM     36  O   UNL     1      -3.382  16.003  19.948  0.00  0.00    +0.000 OA
ATOM     37  H   UNL     1      -3.807  16.847  20.182  0.00  0.00    +0.000 HD
ENDBRANCH  32  36
ENDBRANCH  31  32
ENDBRANCH  26  31
ENDBRANCH  24  26
ENDBRANCH  11  24
TORSDOF 12
ENDMDL
MODEL 7
REMARK VINA RESULT:      -7.0      1.067      3.303
REMARK  Name = 
REMARK  17 active torsions:
REMARK  status: ('A' for Active; 'I' for Inactive)
REMARK    1  A    between atoms: C_4  and  C_5
REMARK    2  A    between atoms: C_10  and  C_11
REMARK    3  A    between atoms: C_15  and  C_16
REMARK    4  A    between atoms: C_16  and  C_17
REMARK    5  A    between atoms: C_16  and  C_18
REMARK    6  A    between atoms: C_18  and  C_19
REMARK    7  A    between atoms: C_18  and  C_23
REMARK    8  A    between atoms: C_19  and  C_20
REMARK    9  A    between atoms: C_20  and  C_21
REMARK   10  A    between atoms: C_21  and  C_22
REMARK   11  A    between atoms: C_23  and  C_24
REMARK   12  A    between atoms: C_24  and  O_25
REMARK   13  A    between atoms: C_24  and  C_26
REMARK   14  A    between atoms: C_26  and  C_27
REMARK   15  A    between atoms: C_26  and  C_28
REMARK   16  A    between atoms: C_30  and  O_31
REMARK   17  A    between atoms: C_33  and  O_34
REMARK                            x       y       z     vdW  Elec       q    Type
REMARK                         _______ _______ _______ _____ _____    ______ ____
ROOT
ATOM      1  C   UNL     1       1.259   7.784  20.230  0.00  0.00    +0.000 C 
ATOM      2  C   UNL     1       0.423   8.647  20.839  0.00  0.00    +0.000 C 
ATOM      3  C   UNL     1      -0.071   8.553  22.273  0.00  0.00    +0.000 C 
ATOM      4  C   UNL     1      -0.042   9.893  23.016  0.00  0.00    +0.000 C 
ATOM      5  C   UNL     1      -0.740  11.026  22.253  0.00  0.00    +0.000 C 
ATOM      6  C   UNL     1      -0.265  11.129  20.789  0.00  0.00    +0.000 C 
ATOM      7  C   UNL     1       1.181  11.720  20.825  0.00  0.00    +0.000 C 
ATOM      8  C   UNL     1      -0.285   9.746  20.090  0.00  0.00    +0.000 C 
ATOM      9  C   UNL     1       0.036  10.088  18.641  0.00  0.00    +0.000 C 
ATOM     10  C   UNL     1      -0.772  11.369  18.408  0.00  0.00    +0.000 C 
ATOM     11  C   UNL     1      -1.146  11.981  19.796  0.00  0.00    +0.000 C 
ENDROOT
BRANCH   1  15
ATOM     12  C   UNL     1       3.060   6.144  17.991  0.00  0.00    +0.000 C 
ATOM     13  C   UNL     1       2.362   5.275  18.746  0.00  0.00    +0.000 C 
ATOM     14  C   UNL     1       2.223   5.466  20.193  0.00  0.00    +0.000 C 
ATOM     15  C   UNL     1       1.777   6.572  20.821  0.00  0.00    +0.000 C 
ATOM     16  C   UNL     1       2.537   4.234  21.028  0.00  0.00    +0.000 C 
ATOM     17  C   UNL     1       1.806   2.989  20.515  0.00  0.00    +0.000 C 
ATOM     18  C   UNL     1       2.056   2.773  19.024  0.00  0.00    +0.000 C 
ATOM     19  C   UNL     1       1.710   4.009  18.203  0.00  0.00    +0.000 C 
BRANCH  17  20
ATOM     20  O   UNL     1       0.405   3.071  20.778  0.00  0.00    +0.000 OA
ATOM     21  H   UNL     1       0.072   2.181  20.995  0.00  0.00    +0.000 HD
ENDBRANCH  17  20
BRANCH  19  22
ATOM     22  O   UNL     1       2.097   3.767  16.844  0.00  0.00    +0.000 OA
ATOM     23  H   UNL     1       1.664   2.942  16.571  0.00  0.00    +0.000 HD
ENDBRANCH  19  22
ENDBRANCH   1  15
BRANCH  11  24
ATOM     24  C   UNL     1      -2.696  12.082  20.127  0.00  0.00    +0.000 C 
ATOM     25  C   UNL     1      -3.640  12.006  18.905  0.00  0.00    +0.000 C 
BRANCH  24  26
ATOM     26  C   UNL     1      -3.121  13.272  21.092  0.00  0.00    +0.000 C 
BRANCH  26  27
ATOM     27  C   UNL     1      -2.372  14.600  20.779  0.00  0.00    +0.000 C 
BRANCH  27  28
ATOM     28  C   UNL     1      -1.120  14.946  21.592  0.00  0.00    +0.000 C 
BRANCH  28  29
ATOM     29  C   UNL     1      -0.022  15.578  20.744  0.00  0.00    +0.000 C 
ATOM     30  C   UNL     1      -0.332  15.420  19.265  0.00  0.00    +0.000 C 
ENDBRANCH  28  29
ENDBRANCH  27  28
ENDBRANCH  26  27
BRANCH  26  31
ATOM     31  C   UNL     1      -4.654  13.544  21.049  0.00  0.00    +0.000 C 
BRANCH  31  32
ATOM     32  C   UNL     1      -5.584  12.692  21.928  0.00  0.00    +0.000 C 
BRANCH  32  33
ATOM     33  C   UNL     1      -5.821  13.226  23.360  0.00  0.00    +0.000 C 
ATOM     34  C   UNL     1      -7.162  12.798  23.964  0.00  0.00    +0.000 C 
ATOM     35  C   UNL     1      -4.699  12.762  24.299  0.00  0.00    +0.000 C 
ENDBRANCH  32  33
BRANCH  32  36
ATOM     36  O   UNL     1      -6.843  12.589  21.244  0.00  0.00    +0.000 OA
ATOM     37  H   UNL     1      -7.302  11.796  21.570  0.00  0.00    +0.000 HD
ENDBRANCH  32  36
ENDBRANCH  31  32
ENDBRANCH  26  31
ENDBRANCH  24  26
ENDBRANCH  11  24
TORSDOF 12
ENDMDL
MODEL 8
REMARK VINA RESULT:      -7.0      2.011      4.161
REMARK  Name = 
REMARK  17 active torsions:
REMARK  status: ('A' for Active; 'I' for Inactive)
REMARK    1  A    between atoms: C_4  and  C_5
REMARK    2  A    between atoms: C_10  and  C_11
REMARK    3  A    between atoms: C_15  and  C_16
REMARK    4  A    between atoms: C_16  and  C_17
REMARK    5  A    between atoms: C_16  and  C_18
REMARK    6  A    between atoms: C_18  and  C_19
REMARK    7  A    between atoms: C_18  and  C_23
REMARK    8  A    between atoms: C_19  and  C_20
REMARK    9  A    between atoms: C_20  and  C_21
REMARK   10  A    between atoms: C_21  and  C_22
REMARK   11  A    between atoms: C_23  and  C_24
REMARK   12  A    between atoms: C_24  and  O_25
REMARK   13  A    between atoms: C_24  and  C_26
REMARK   14  A    between atoms: C_26  and  C_27
REMARK   15  A    between atoms: C_26  and  C_28
REMARK   16  A    between atoms: C_30  and  O_31
REMARK   17  A    between atoms: C_33  and  O_34
REMARK                            x       y       z     vdW  Elec       q    Type
REMARK                         _______ _______ _______ _____ _____    ______ ____
ROOT
ATOM      1  C   UNL     1       1.303   8.029  20.371  0.00  0.00    +0.000 C 
ATOM      2  C   UNL     1       0.388   8.887  20.862  0.00  0.00    +0.000 C 
ATOM      3  C   UNL     1      -0.384   8.725  22.161  0.00  0.00    +0.000 C 
ATOM      4  C   UNL     1      -0.464  10.014  22.986  0.00  0.00    +0.000 C 
ATOM      5  C   UNL     1      -0.963  11.220  22.181  0.00  0.00    +0.000 C 
ATOM      6  C   UNL     1      -0.204  11.393  20.849  0.00  0.00    +0.000 C 
ATOM      7  C   UNL     1       1.222  11.919  21.210  0.00  0.00    +0.000 C 
ATOM      8  C   UNL     1      -0.124  10.058  20.066  0.00  0.00    +0.000 C 
ATOM      9  C   UNL     1       0.488  10.475  18.736  0.00  0.00    +0.000 C 
ATOM     10  C   UNL     1      -0.219  11.802  18.438  0.00  0.00    +0.000 C 
ATOM     11  C   UNL     1      -0.844  12.342  19.764  0.00  0.00    +0.000 C 
ENDROOT
BRANCH   1  15
ATOM     12  C   UNL     1       3.489   6.470  18.438  0.00  0.00    +0.000 C 
ATOM     13  C   UNL     1       2.628   5.580  18.969  0.00  0.00    +0.000 C 
ATOM     14  C   UNL     1       2.197   5.682  20.367  0.00  0.00    +0.000 C 
ATOM     15  C   UNL     1       1.658   6.761  20.967  0.00  0.00    +0.000 C 
ATOM     16  C   UNL     1       2.301   4.387  21.157  0.00  0.00    +0.000 C 
ATOM     17  C   UNL     1       1.663   3.207  20.417  0.00  0.00    +0.000 C 
ATOM     18  C   UNL     1       2.211   3.080  18.998  0.00  0.00    +0.000 C 
ATOM     19  C   UNL     1       2.073   4.379  18.214  0.00  0.00    +0.000 C 
BRANCH  17  20
ATOM     20  O   UNL     1       0.240   3.326  20.392  0.00  0.00    +0.000 OA
ATOM     21  H   UNL     1      -0.140   2.496  20.052  0.00  0.00    +0.000 HD
ENDBRANCH  17  20
BRANCH  19  22
ATOM     22  O   UNL     1       2.727   4.212  16.950  0.00  0.00    +0.000 OA
ATOM     23  H   UNL     1       2.790   3.256  16.791  0.00  0.00    +0.000 HD
ENDBRANCH  19  22
ENDBRANCH   1  15
BRANCH  11  24
ATOM     24  C   UNL     1      -2.426  12.488  19.789  0.00  0.00    +0.000 C 
ATOM     25  C   UNL     1      -3.109  12.048  21.105  0.00  0.00    +0.000 C 
BRANCH  24  26
ATOM     26  C   UNL     1      -3.195  11.895  18.530  0.00  0.00    +0.000 C 
BRANCH  26  27
ATOM     27  C   UNL     1      -3.094  10.345  18.435  0.00  0.00    +0.000 C 
BRANCH  27  28
ATOM     28  C   UNL     1      -2.659   9.719  17.106  0.00  0.00    +0.000 C 
BRANCH  28  29
ATOM     29  C   UNL     1      -2.675  10.715  15.951  0.00  0.00    +0.000 C 
ATOM     30  C   UNL     1      -3.601  10.237  14.846  0.00  0.00    +0.000 C 
ENDBRANCH  28  29
ENDBRANCH  27  28
ENDBRANCH  26  27
BRANCH  26  31
ATOM     31  C   UNL     1      -4.700  12.297  18.520  0.00  0.00    +0.000 C 
BRANCH  31  32
ATOM     32  C   UNL     1      -5.739  11.268  18.046  0.00  0.00    +0.000 C 
BRANCH  32  33
ATOM     33  C   UNL     1      -6.861  10.939  19.059  0.00  0.00    +0.000 C 
ATOM     34  C   UNL     1      -6.980   9.447  19.384  0.00  0.00    +0.000 C 
ATOM     35  C   UNL     1      -6.640  11.703  20.372  0.00  0.00    +0.000 C 
ENDBRANCH  32  33
BRANCH  32  36
ATOM     36  O   UNL     1      -6.324  11.779  16.837  0.00  0.00    +0.000 OA
ATOM     37  H   UNL     1      -6.097  12.722  16.764  0.00  0.00    +0.000 HD
ENDBRANCH  32  36
ENDBRANCH  31  32
ENDBRANCH  26  31
ENDBRANCH  24  26
ENDBRANCH  11  24
TORSDOF 12
ENDMDL
MODEL 9
REMARK VINA RESULT:      -6.9      0.980      1.425
REMARK  Name = 
REMARK  17 active torsions:
REMARK  status: ('A' for Active; 'I' for Inactive)
REMARK    1  A    between atoms: C_4  and  C_5
REMARK    2  A    between atoms: C_10  and  C_11
REMARK    3  A    between atoms: C_15  and  C_16
REMARK    4  A    between atoms: C_16  and  C_17
REMARK    5  A    between atoms: C_16  and  C_18
REMARK    6  A    between atoms: C_18  and  C_19
REMARK    7  A    between atoms: C_18  and  C_23
REMARK    8  A    between atoms: C_19  and  C_20
REMARK    9  A    between atoms: C_20  and  C_21
REMARK   10  A    between atoms: C_21  and  C_22
REMARK   11  A    between atoms: C_23  and  C_24
REMARK   12  A    between atoms: C_24  and  O_25
REMARK   13  A    between atoms: C_24  and  C_26
REMARK   14  A    between atoms: C_26  and  C_27
REMARK   15  A    between atoms: C_26  and  C_28
REMARK   16  A    between atoms: C_30  and  O_31
REMARK   17  A    between atoms: C_33  and  O_34
REMARK                            x       y       z     vdW  Elec       q    Type
REMARK                         _______ _______ _______ _____ _____    ______ ____
ROOT
ATOM      1  C   UNL     1       1.212   7.906  20.230  0.00  0.00    +0.000 C 
ATOM      2  C   UNL     1       0.344   8.750  20.820  0.00  0.00    +0.000 C 
ATOM      3  C   UNL     1      -0.200   8.628  22.233  0.00  0.00    +0.000 C 
ATOM      4  C   UNL     1      -0.215   9.957  22.996  0.00  0.00    +0.000 C 
ATOM      5  C   UNL     1      -0.899  11.093  22.225  0.00  0.00    +0.000 C 
ATOM      6  C   UNL     1      -0.372  11.223  20.781  0.00  0.00    +0.000 C 
ATOM      7  C   UNL     1       1.063  11.831  20.879  0.00  0.00    +0.000 C 
ATOM      8  C   UNL     1      -0.349   9.851  20.062  0.00  0.00    +0.000 C 
ATOM      9  C   UNL     1       0.020  10.219  18.631  0.00  0.00    +0.000 C 
ATOM     10  C   UNL     1      -0.795  11.494  18.388  0.00  0.00    +0.000 C 
ATOM     11  C   UNL     1      -1.227  12.080  19.770  0.00  0.00    +0.000 C 
ENDROOT
BRANCH   1  15
ATOM     12  C   UNL     1       3.082   6.302  18.021  0.00  0.00    +0.000 C 
ATOM     13  C   UNL     1       2.371   5.420  18.748  0.00  0.00    +0.000 C 
ATOM     14  C   UNL     1       2.194   5.595  20.194  0.00  0.00    +0.000 C 
ATOM     15  C   UNL     1       1.724   6.691  20.821  0.00  0.00    +0.000 C 
ATOM     16  C   UNL     1       2.495   4.357  21.023  0.00  0.00    +0.000 C 
ATOM     17  C   UNL     1       1.787   3.112  20.479  0.00  0.00    +0.000 C 
ATOM     18  C   UNL     1       2.076   2.914  18.993  0.00  0.00    +0.000 C 
ATOM     19  C   UNL     1       1.743   4.155  18.176  0.00  0.00    +0.000 C 
BRANCH  17  20
ATOM     20  O   UNL     1       0.378   3.181  20.706  0.00  0.00    +0.000 OA
ATOM     21  H   UNL     1       0.027   3.977  20.267  0.00  0.00    +0.000 HD
ENDBRANCH  17  20
BRANCH  19  22
ATOM     22  O   UNL     1       2.166   3.931  16.825  0.00  0.00    +0.000 OA
ATOM     23  H   UNL     1       2.917   4.525  16.664  0.00  0.00    +0.000 HD
ENDBRANCH  19  22
ENDBRANCH   1  15
BRANCH  11  24
ATOM     24  C   UNL     1      -2.790  12.157  20.045  0.00  0.00    +0.000 C 
ATOM     25  C   UNL     1      -3.691  11.860  18.825  0.00  0.00    +0.000 C 
BRANCH  24  26
ATOM     26  C   UNL     1      -3.292  13.455  20.813  0.00  0.00    +0.000 C 
BRANCH  26  27
ATOM     27  C   UNL     1      -4.123  13.121  22.086  0.00  0.00    +0.000 C 
BRANCH  27  28
ATOM     28  C   UNL     1      -3.426  13.172  23.450  0.00  0.00    +0.000 C 
BRANCH  28  29
ATOM     29  C   UNL     1      -4.293  12.619  24.577  0.00  0.00    +0.000 C 
ATOM     30  C   UNL     1      -5.758  12.628  24.176  0.00  0.00    +0.000 C 
ENDBRANCH  28  29
ENDBRANCH  27  28
ENDBRANCH  26  27
BRANCH  26  31
ATOM     31  C   UNL     1      -2.113  14.389  21.220  0.00  0.00    +0.000 C 
BRANCH  31  32
ATOM     32  C   UNL     1      -2.310  15.911  21.138  0.00  0.00    +0.000 C 
BRANCH  32  33
ATOM     33  C   UNL     1      -3.730  16.380  20.743  0.00  0.00    +0.000 C 
ATOM     34  C   UNL     1      -4.580  16.841  21.932  0.00  0.00    +0.000 C 
ATOM     35  C   UNL     1      -3.653  17.530  19.730  0.00  0.00    +0.000 C 
ENDBRANCH  32  33
BRANCH  32  36
ATOM     36  O   UNL     1      -1.970  16.455  22.424  0.00  0.00    +0.000 OA
ATOM     37  H   UNL     1      -2.514  16.008  23.097  0.00  0.00    +0.000 HD
ENDBRANCH  32  36
ENDBRANCH  31  32
ENDBRANCH  26  31
ENDBRANCH  24  26
ENDBRANCH  11  24
TORSDOF 12
ENDMDL
