MODEL 1
REMARK VINA RESULT:      -7.2      0.000      0.000
REMARK  Name = 
REMARK  6 active torsions:
REMARK  status: ('A' for Active; 'I' for Inactive)
REMARK    1  A    between atoms: C_1  and  C_2
REMARK    2  A    between atoms: N_10  and  C_11
REMARK    3  A    between atoms: C_11  and  C_12
REMARK    4  A    between atoms: C_11  and  C_13
REMARK    5  A    between atoms: C_13  and  O_15
REMARK    6  A    between atoms: C_18  and  C_19
REMARK                            x       y       z     vdW  Elec       q    Type
REMARK                         _______ _______ _______ _____ _____    ______ ____
ROOT
ATOM      1  C   UNL     1       7.825   5.086  12.834  0.00  0.00    +0.000 C 
ATOM      2  C   UNL     1       6.991   4.729  14.035  0.00  0.00    +0.000 A 
ATOM      3  C   UNL     1       7.446   5.071  15.312  0.00  0.00    +0.000 A 
ATOM      4  C   UNL     1       6.679   4.775  16.444  0.00  0.00    +0.000 A 
ATOM      5  N   UNL     1       7.177   5.181  17.678  0.00  0.00    +0.000 N 
ATOM      6  C   UNL     1       6.495   5.027  18.855  0.00  0.00    +0.000 A 
ATOM      7  O   UNL     1       6.937   5.468  19.907  0.00  0.00    +0.000 OA
ATOM      8  C   UNL     1       5.163   4.265  18.795  0.00  0.00    +0.000 A 
ATOM      9  O   UNL     1       4.533   4.110  19.837  0.00  0.00    +0.000 OA
ATOM     10  N   UNL     1       4.734   3.770  17.548  0.00  0.00    +0.000 N 
ATOM     11  C   UNL     1       5.443   4.116  16.347  0.00  0.00    +0.000 A 
ATOM     12  C   UNL     1       4.983   3.806  15.062  0.00  0.00    +0.000 A 
ATOM     13  C   UNL     1       5.747   4.088  13.909  0.00  0.00    +0.000 A 
ATOM     14  C   UNL     1       5.206   3.702  12.557  0.00  0.00    +0.000 C 
ATOM     15  H   UNL     1       8.052   5.686  17.745  0.00  0.00    +0.000 HD
ENDROOT
BRANCH  10  16
ATOM     16  C   UNL     1       3.421   3.077  17.550  0.00  0.00    +0.000 C 
ATOM     17  C   UNL     1       3.520   1.654  18.096  0.00  0.00    +0.000 C 
BRANCH  16  18
ATOM     18  C   UNL     1       2.197   3.834  18.099  0.00  0.00    +0.000 C 
ATOM     19  O   UNL     1       1.748   4.861  17.612  0.00  0.00    +0.000 OA
BRANCH  18  20
ATOM     20  O   UNL     1       1.703   3.323  19.255  0.00  0.00    +0.000 OA
ATOM     21  H   UNL     1       0.904   2.778  19.108  0.00  0.00    +0.000 HD
ENDBRANCH  18  20
ENDBRANCH  16  18
ENDBRANCH  10  16
TORSDOF 3
ENDMDL
MODEL 2
REMARK VINA RESULT:      -7.1      3.273      5.718
REMARK  Name = 
REMARK  6 active torsions:
REMARK  status: ('A' for Active; 'I' for Inactive)
REMARK    1  A    between atoms: C_1  and  C_2
REMARK    2  A    between atoms: N_10  and  C_11
REMARK    3  A    between atoms: C_11  and  C_12
REMARK    4  A    between atoms: C_11  and  C_13
REMARK    5  A    between atoms: C_13  and  O_15
REMARK    6  A    between atoms: C_18  and  C_19
REMARK                            x       y       z     vdW  Elec       q    Type
REMARK                         _______ _______ _______ _____ _____    ______ ____
ROOT
ATOM      1  C   UNL     1       0.896   9.080  20.221  0.00  0.00    +0.000 C 
ATOM      2  C   UNL     1       1.683   7.838  19.899  0.00  0.00    +0.000 A 
ATOM      3  C   UNL     1       1.664   6.763  20.792  0.00  0.00    +0.000 A 
ATOM      4  C   UNL     1       2.364   5.586  20.507  0.00  0.00    +0.000 A 
ATOM      5  N   UNL     1       2.266   4.544  21.423  0.00  0.00    +0.000 N 
ATOM      6  C   UNL     1       2.834   3.314  21.231  0.00  0.00    +0.000 A 
ATOM      7  O   UNL     1       2.658   2.402  22.027  0.00  0.00    +0.000 OA
ATOM      8  C   UNL     1       3.711   3.138  19.982  0.00  0.00    +0.000 A 
ATOM      9  O   UNL     1       4.235   2.044  19.788  0.00  0.00    +0.000 OA
ATOM     10  N   UNL     1       3.882   4.243  19.126  0.00  0.00    +0.000 N 
ATOM     11  C   UNL     1       3.121   5.444  19.333  0.00  0.00    +0.000 A 
ATOM     12  C   UNL     1       3.109   6.515  18.431  0.00  0.00    +0.000 A 
ATOM     13  C   UNL     1       2.416   7.714  18.707  0.00  0.00    +0.000 A 
ATOM     14  C   UNL     1       2.467   8.839  17.706  0.00  0.00    +0.000 C 
ATOM     15  H   UNL     1       1.693   4.634  22.253  0.00  0.00    +0.000 HD
ENDROOT
BRANCH  10  16
ATOM     16  C   UNL     1       4.709   3.997  17.917  0.00  0.00    +0.000 C 
ATOM     17  C   UNL     1       3.873   3.988  16.639  0.00  0.00    +0.000 C 
BRANCH  16  18
ATOM     18  C   UNL     1       6.020   4.789  17.758  0.00  0.00    +0.000 C 
ATOM     19  O   UNL     1       6.127   5.822  17.115  0.00  0.00    +0.000 OA
BRANCH  18  20
ATOM     20  O   UNL     1       7.102   4.184  18.312  0.00  0.00    +0.000 OA
ATOM     21  H   UNL     1       7.570   3.608  17.677  0.00  0.00    +0.000 HD
ENDBRANCH  18  20
ENDBRANCH  16  18
ENDBRANCH  10  16
TORSDOF 3
ENDMDL
MODEL 3
REMARK VINA RESULT:      -6.9      2.528      3.633
REMARK  Name = 
REMARK  6 active torsions:
REMARK  status: ('A' for Active; 'I' for Inactive)
REMARK    1  A    between atoms: C_1  and  C_2
REMARK    2  A    between atoms: N_10  and  C_11
REMARK    3  A    between atoms: C_11  and  C_12
REMARK    4  A    between atoms: C_11  and  C_13
REMARK    5  A    between atoms: C_13  and  O_15
REMARK    6  A    between atoms: C_18  and  C_19
REMARK                            x       y       z     vdW  Elec       q    Type
REMARK                         _______ _______ _______ _____ _____    ______ ____
ROOT
ATOM      1  C   UNL     1       5.722   6.725  15.179  0.00  0.00    +0.000 C 
ATOM      2  C   UNL     1       5.001   5.969  16.263  0.00  0.00    +0.000 A 
ATOM      3  C   UNL     1       4.292   6.678  17.237  0.00  0.00    +0.000 A 
ATOM      4  C   UNL     1       3.591   6.001  18.242  0.00  0.00    +0.000 A 
ATOM      5  N   UNL     1       2.875   6.771  19.153  0.00  0.00    +0.000 N 
ATOM      6  C   UNL     1       2.085   6.237  20.134  0.00  0.00    +0.000 A 
ATOM      7  O   UNL     1       1.413   6.951  20.866  0.00  0.00    +0.000 OA
ATOM      8  C   UNL     1       2.094   4.709  20.284  0.00  0.00    +0.000 A 
ATOM      9  O   UNL     1       1.396   4.205  21.160  0.00  0.00    +0.000 OA
ATOM     10  N   UNL     1       2.912   3.959  19.418  0.00  0.00    +0.000 N 
ATOM     11  C   UNL     1       3.586   4.599  18.322  0.00  0.00    +0.000 A 
ATOM     12  C   UNL     1       4.274   3.899  17.323  0.00  0.00    +0.000 A 
ATOM     13  C   UNL     1       4.994   4.565  16.308  0.00  0.00    +0.000 A 
ATOM     14  C   UNL     1       5.738   3.752  15.280  0.00  0.00    +0.000 C 
ATOM     15  H   UNL     1       2.851   7.780  19.075  0.00  0.00    +0.000 HD
ENDROOT
BRANCH  10  16
ATOM     16  C   UNL     1       2.848   2.485  19.588  0.00  0.00    +0.000 C 
ATOM     17  C   UNL     1       1.820   1.842  18.660  0.00  0.00    +0.000 C 
BRANCH  16  18
ATOM     18  C   UNL     1       4.171   1.699  19.638  0.00  0.00    +0.000 C 
ATOM     19  O   UNL     1       5.082   1.931  20.419  0.00  0.00    +0.000 OA
BRANCH  18  20
ATOM     20  O   UNL     1       4.300   0.769  18.656  0.00  0.00    +0.000 OA
ATOM     21  H   UNL     1       4.442  -0.130  19.013  0.00  0.00    +0.000 HD
ENDBRANCH  18  20
ENDBRANCH  16  18
ENDBRANCH  10  16
TORSDOF 3
ENDMDL
MODEL 4
REMARK VINA RESULT:      -6.9      2.619      5.676
REMARK  Name = 
REMARK  6 active torsions:
REMARK  status: ('A' for Active; 'I' for Inactive)
REMARK    1  A    between atoms: C_1  and  C_2
REMARK    2  A    between atoms: N_10  and  C_11
REMARK    3  A    between atoms: C_11  and  C_12
REMARK    4  A    between atoms: C_11  and  C_13
REMARK    5  A    between atoms: C_13  and  O_15
REMARK    6  A    between atoms: C_18  and  C_19
REMARK                            x       y       z     vdW  Elec       q    Type
REMARK                         _______ _______ _______ _____ _____    ______ ____
ROOT
ATOM      1  C   UNL     1       1.290   3.589  18.698  0.00  0.00    +0.000 C 
ATOM      2  C   UNL     1       2.612   4.115  18.206  0.00  0.00    +0.000 A 
ATOM      3  C   UNL     1       3.152   3.610  17.020  0.00  0.00    +0.000 A 
ATOM      4  C   UNL     1       4.367   4.099  16.525  0.00  0.00    +0.000 A 
ATOM      5  N   UNL     1       4.823   3.578  15.319  0.00  0.00    +0.000 N 
ATOM      6  C   UNL     1       5.951   4.021  14.683  0.00  0.00    +0.000 A 
ATOM      7  O   UNL     1       6.273   3.587  13.586  0.00  0.00    +0.000 OA
ATOM      8  C   UNL     1       6.797   5.072  15.417  0.00  0.00    +0.000 A 
ATOM      9  O   UNL     1       7.816   5.484  14.869  0.00  0.00    +0.000 OA
ATOM     10  N   UNL     1       6.370   5.505  16.687  0.00  0.00    +0.000 N 
ATOM     11  C   UNL     1       5.092   5.093  17.200  0.00  0.00    +0.000 A 
ATOM     12  C   UNL     1       4.527   5.614  18.371  0.00  0.00    +0.000 A 
ATOM     13  C   UNL     1       3.308   5.126  18.890  0.00  0.00    +0.000 A 
ATOM     14  C   UNL     1       2.769   5.710  20.170  0.00  0.00    +0.000 C 
ATOM     15  H   UNL     1       4.283   2.885  14.815  0.00  0.00    +0.000 HD
ENDROOT
BRANCH  10  16
ATOM     16  C   UNL     1       7.209   6.549  17.326  0.00  0.00    +0.000 C 
ATOM     17  C   UNL     1       6.512   7.907  17.363  0.00  0.00    +0.000 C 
BRANCH  16  18
ATOM     18  C   UNL     1       7.908   6.209  18.655  0.00  0.00    +0.000 C 
ATOM     19  O   UNL     1       7.804   5.138  19.235  0.00  0.00    +0.000 OA
BRANCH  18  20
ATOM     20  O   UNL     1       8.584   7.250  19.207  0.00  0.00    +0.000 OA
ATOM     21  H   UNL     1       8.035   7.755  19.839  0.00  0.00    +0.000 HD
ENDBRANCH  18  20
ENDBRANCH  16  18
ENDBRANCH  10  16
TORSDOF 3
ENDMDL
MODEL 5
REMARK VINA RESULT:      -6.8      2.724      5.789
REMARK  Name = 
REMARK  6 active torsions:
REMARK  status: ('A' for Active; 'I' for Inactive)
REMARK    1  A    between atoms: C_1  and  C_2
REMARK    2  A    between atoms: N_10  and  C_11
REMARK    3  A    between atoms: C_11  and  C_12
REMARK    4  A    between atoms: C_11  and  C_13
REMARK    5  A    between atoms: C_13  and  O_15
REMARK    6  A    between atoms: C_18  and  C_19
REMARK                            x       y       z     vdW  Elec       q    Type
REMARK                         _______ _______ _______ _____ _____    ______ ____
ROOT
ATOM      1  C   UNL     1       2.005   3.065  21.695  0.00  0.00    +0.000 C 
ATOM      2  C   UNL     1       2.733   3.602  20.492  0.00  0.00    +0.000 A 
ATOM      3  C   UNL     1       2.405   4.869  20.001  0.00  0.00    +0.000 A 
ATOM      4  C   UNL     1       3.083   5.404  18.900  0.00  0.00    +0.000 A 
ATOM      5  N   UNL     1       2.729   6.687  18.492  0.00  0.00    +0.000 N 
ATOM      6  C   UNL     1       3.364   7.359  17.483  0.00  0.00    +0.000 A 
ATOM      7  O   UNL     1       3.071   8.515  17.208  0.00  0.00    +0.000 OA
ATOM      8  C   UNL     1       4.445   6.594  16.706  0.00  0.00    +0.000 A 
ATOM      9  O   UNL     1       5.026   7.173  15.793  0.00  0.00    +0.000 OA
ATOM     10  N   UNL     1       4.708   5.259  17.069  0.00  0.00    +0.000 N 
ATOM     11  C   UNL     1       4.097   4.693  18.240  0.00  0.00    +0.000 A 
ATOM     12  C   UNL     1       4.439   3.438  18.759  0.00  0.00    +0.000 A 
ATOM     13  C   UNL     1       3.759   2.878  19.863  0.00  0.00    +0.000 A 
ATOM     14  C   UNL     1       4.158   1.510  20.354  0.00  0.00    +0.000 C 
ATOM     15  H   UNL     1       2.021   7.213  18.988  0.00  0.00    +0.000 HD
ENDROOT
BRANCH  10  16
ATOM     16  C   UNL     1       5.789   4.586  16.306  0.00  0.00    +0.000 C 
ATOM     17  C   UNL     1       5.454   4.460  14.821  0.00  0.00    +0.000 C 
BRANCH  16  18
ATOM     18  C   UNL     1       7.241   5.039  16.546  0.00  0.00    +0.000 C 
ATOM     19  O   UNL     1       7.924   4.689  17.497  0.00  0.00    +0.000 OA
BRANCH  18  20
ATOM     20  O   UNL     1       7.687   5.964  15.657  0.00  0.00    +0.000 OA
ATOM     21  H   UNL     1       7.563   6.878  15.980  0.00  0.00    +0.000 HD
ENDBRANCH  18  20
ENDBRANCH  16  18
ENDBRANCH  10  16
TORSDOF 3
ENDMDL
MODEL 6
REMARK VINA RESULT:      -6.8      2.873      5.679
REMARK  Name = 
REMARK  6 active torsions:
REMARK  status: ('A' for Active; 'I' for Inactive)
REMARK    1  A    between atoms: C_1  and  C_2
REMARK    2  A    between atoms: N_10  and  C_11
REMARK    3  A    between atoms: C_11  and  C_12
REMARK    4  A    between atoms: C_11  and  C_13
REMARK    5  A    between atoms: C_13  and  O_15
REMARK    6  A    between atoms: C_18  and  C_19
REMARK                            x       y       z     vdW  Elec       q    Type
REMARK                         _______ _______ _______ _____ _____    ______ ____
ROOT
ATOM      1  C   UNL     1       0.942   2.886  19.010  0.00  0.00    +0.000 C 
ATOM      2  C   UNL     1       2.282   3.495  18.695  0.00  0.00    +0.000 A 
ATOM      3  C   UNL     1       2.927   3.155  17.502  0.00  0.00    +0.000 A 
ATOM      4  C   UNL     1       4.161   3.725  17.171  0.00  0.00    +0.000 A 
ATOM      5  N   UNL     1       4.724   3.369  15.950  0.00  0.00    +0.000 N 
ATOM      6  C   UNL     1       5.884   3.910  15.467  0.00  0.00    +0.000 A 
ATOM      7  O   UNL     1       6.302   3.625  14.353  0.00  0.00    +0.000 OA
ATOM      8  C   UNL     1       6.641   4.876  16.391  0.00  0.00    +0.000 A 
ATOM      9  O   UNL     1       7.687   5.372  15.983  0.00  0.00    +0.000 OA
ATOM     10  N   UNL     1       6.105   5.136  17.667  0.00  0.00    +0.000 N 
ATOM     11  C   UNL     1       4.804   4.639  18.021  0.00  0.00    +0.000 A 
ATOM     12  C   UNL     1       4.135   4.996  19.199  0.00  0.00    +0.000 A 
ATOM     13  C   UNL     1       2.894   4.424  19.553  0.00  0.00    +0.000 A 
ATOM     14  C   UNL     1       2.242   4.831  20.849  0.00  0.00    +0.000 C 
ATOM     15  H   UNL     1       4.244   2.736  15.321  0.00  0.00    +0.000 HD
ENDROOT
BRANCH  10  16
ATOM     16  C   UNL     1       6.862   6.106  18.497  0.00  0.00    +0.000 C 
ATOM     17  C   UNL     1       7.959   5.430  19.317  0.00  0.00    +0.000 C 
BRANCH  16  18
ATOM     18  C   UNL     1       7.340   7.413  17.838  0.00  0.00    +0.000 C 
ATOM     19  O   UNL     1       8.300   8.066  18.219  0.00  0.00    +0.000 OA
BRANCH  18  20
ATOM     20  O   UNL     1       6.534   7.855  16.839  0.00  0.00    +0.000 OA
ATOM     21  H   UNL     1       6.591   8.824  16.719  0.00  0.00    +0.000 HD
ENDBRANCH  18  20
ENDBRANCH  16  18
ENDBRANCH  10  16
TORSDOF 3
ENDMDL
MODEL 7
REMARK VINA RESULT:      -6.7      1.237      1.553
REMARK  Name = 
REMARK  6 active torsions:
REMARK  status: ('A' for Active; 'I' for Inactive)
REMARK    1  A    between atoms: C_1  and  C_2
REMARK    2  A    between atoms: N_10  and  C_11
REMARK    3  A    between atoms: C_11  and  C_12
REMARK    4  A    between atoms: C_11  and  C_13
REMARK    5  A    between atoms: C_13  and  O_15
REMARK    6  A    between atoms: C_18  and  C_19
REMARK                            x       y       z     vdW  Elec       q    Type
REMARK                         _______ _______ _______ _____ _____    ______ ____
ROOT
ATOM      1  C   UNL     1       7.349   4.434  12.294  0.00  0.00    +0.000 C 
ATOM      2  C   UNL     1       6.741   4.433  13.671  0.00  0.00    +0.000 A 
ATOM      3  C   UNL     1       7.490   4.908  14.752  0.00  0.00    +0.000 A 
ATOM      4  C   UNL     1       6.942   4.943  16.039  0.00  0.00    +0.000 A 
ATOM      5  N   UNL     1       7.732   5.465  17.057  0.00  0.00    +0.000 N 
ATOM      6  C   UNL     1       7.294   5.632  18.343  0.00  0.00    +0.000 A 
ATOM      7  O   UNL     1       7.997   6.166  19.189  0.00  0.00    +0.000 OA
ATOM      8  C   UNL     1       5.890   5.104  18.675  0.00  0.00    +0.000 A 
ATOM      9  O   UNL     1       5.474   5.238  19.823  0.00  0.00    +0.000 OA
ATOM     10  N   UNL     1       5.152   4.482  17.650  0.00  0.00    +0.000 N 
ATOM     11  C   UNL     1       5.638   4.493  16.298  0.00  0.00    +0.000 A 
ATOM     12  C   UNL     1       4.885   4.048  15.203  0.00  0.00    +0.000 A 
ATOM     13  C   UNL     1       5.425   3.997  13.900  0.00  0.00    +0.000 A 
ATOM     14  C   UNL     1       4.571   3.480  12.771  0.00  0.00    +0.000 C 
ATOM     15  H   UNL     1       8.660   5.822  16.865  0.00  0.00    +0.000 HD
ENDROOT
BRANCH  10  16
ATOM     16  C   UNL     1       3.789   4.028  18.025  0.00  0.00    +0.000 C 
ATOM     17  C   UNL     1       2.723   5.071  17.696  0.00  0.00    +0.000 C 
BRANCH  16  18
ATOM     18  C   UNL     1       3.360   2.603  17.629  0.00  0.00    +0.000 C 
ATOM     19  O   UNL     1       2.270   2.318  17.154  0.00  0.00    +0.000 OA
BRANCH  18  20
ATOM     20  O   UNL     1       4.265   1.643  17.951  0.00  0.00    +0.000 OA
ATOM     21  H   UNL     1       4.420   1.019  17.215  0.00  0.00    +0.000 HD
ENDBRANCH  18  20
ENDBRANCH  16  18
ENDBRANCH  10  16
TORSDOF 3
ENDMDL
MODEL 8
REMARK VINA RESULT:      -6.5      1.080      1.479
REMARK  Name = 
REMARK  6 active torsions:
REMARK  status: ('A' for Active; 'I' for Inactive)
REMARK    1  A    between atoms: C_1  and  C_2
REMARK    2  A    between atoms: N_10  and  C_11
REMARK    3  A    between atoms: C_11  and  C_12
REMARK    4  A    between atoms: C_11  and  C_13
REMARK    5  A    between atoms: C_13  and  O_15
REMARK    6  A    between atoms: C_18  and  C_19
REMARK                            x       y       z     vdW  Elec       q    Type
REMARK                         _______ _______ _______ _____ _____    ______ ____
ROOT
ATOM      1  C   UNL     1       7.659   4.846  12.987  0.00  0.00    +0.000 C 
ATOM      2  C   UNL     1       6.886   4.648  14.264  0.00  0.00    +0.000 A 
ATOM      3  C   UNL     1       7.475   4.995  15.483  0.00  0.00    +0.000 A 
ATOM      4  C   UNL     1       6.771   4.846  16.683  0.00  0.00    +0.000 A 
ATOM      5  N   UNL     1       7.407   5.250  17.852  0.00  0.00    +0.000 N 
ATOM      6  C   UNL     1       6.806   5.234  19.082  0.00  0.00    +0.000 A 
ATOM      7  O   UNL     1       7.376   5.671  20.072  0.00  0.00    +0.000 OA
ATOM      8  C   UNL     1       5.396   4.629  19.162  0.00  0.00    +0.000 A 
ATOM      9  O   UNL     1       4.837   4.598  20.254  0.00  0.00    +0.000 OA
ATOM     10  N   UNL     1       4.818   4.127  17.980  0.00  0.00    +0.000 N 
ATOM     11  C   UNL     1       5.466   4.330  16.713  0.00  0.00    +0.000 A 
ATOM     12  C   UNL     1       4.875   4.013  15.484  0.00  0.00    +0.000 A 
ATOM     13  C   UNL     1       5.573   4.149  14.265  0.00  0.00    +0.000 A 
ATOM     14  C   UNL     1       4.888   3.763  12.980  0.00  0.00    +0.000 C 
ATOM     15  H   UNL     1       8.335   5.654  17.827  0.00  0.00    +0.000 HD
ENDROOT
BRANCH  10  16
ATOM     16  C   UNL     1       3.440   3.591  18.116  0.00  0.00    +0.000 C 
ATOM     17  C   UNL     1       2.409   4.462  17.402  0.00  0.00    +0.000 C 
BRANCH  16  18
ATOM     18  C   UNL     1       3.215   2.088  17.868  0.00  0.00    +0.000 C 
ATOM     19  O   UNL     1       4.093   1.240  17.931  0.00  0.00    +0.000 OA
BRANCH  18  20
ATOM     20  O   UNL     1       1.958   1.777  17.460  0.00  0.00    +0.000 OA
ATOM     21  H   UNL     1       1.323   2.500  17.630  0.00  0.00    +0.000 HD
ENDBRANCH  18  20
ENDBRANCH  16  18
ENDBRANCH  10  16
TORSDOF 3
ENDMDL
MODEL 9
REMARK VINA RESULT:      -6.5      2.697      5.079
REMARK  Name = 
REMARK  6 active torsions:
REMARK  status: ('A' for Active; 'I' for Inactive)
REMARK    1  A    between atoms: C_1  and  C_2
REMARK    2  A    between atoms: N_10  and  C_11
REMARK    3  A    between atoms: C_11  and  C_12
REMARK    4  A    between atoms: C_11  and  C_13
REMARK    5  A    between atoms: C_13  and  O_15
REMARK    6  A    between atoms: C_18  and  C_19
REMARK                            x       y       z     vdW  Elec       q    Type
REMARK                         _______ _______ _______ _____ _____    ______ ____
ROOT
ATOM      1  C   UNL     1       2.569   2.485  20.708  0.00  0.00    +0.000 C 
ATOM      2  C   UNL     1       3.373   3.212  19.664  0.00  0.00    +0.000 A 
ATOM      3  C   UNL     1       4.505   3.936  20.051  0.00  0.00    +0.000 A 
ATOM      4  C   UNL     1       5.286   4.600  19.099  0.00  0.00    +0.000 A 
ATOM      5  N   UNL     1       6.420   5.266  19.554  0.00  0.00    +0.000 N 
ATOM      6  C   UNL     1       7.314   5.887  18.724  0.00  0.00    +0.000 A 
ATOM      7  O   UNL     1       8.337   6.395  19.160  0.00  0.00    +0.000 OA
ATOM      8  C   UNL     1       6.964   5.931  17.229  0.00  0.00    +0.000 A 
ATOM      9  O   UNL     1       7.747   6.486  16.464  0.00  0.00    +0.000 OA
ATOM     10  N   UNL     1       5.755   5.342  16.810  0.00  0.00    +0.000 N 
ATOM     11  C   UNL     1       4.961   4.581  17.734  0.00  0.00    +0.000 A 
ATOM     12  C   UNL     1       3.843   3.828  17.354  0.00  0.00    +0.000 A 
ATOM     13  C   UNL     1       3.037   3.160  18.301  0.00  0.00    +0.000 A 
ATOM     14  C   UNL     1       1.831   2.391  17.828  0.00  0.00    +0.000 C 
ATOM     15  H   UNL     1       6.674   5.251  20.534  0.00  0.00    +0.000 HD
ENDROOT
BRANCH  10  16
ATOM     16  C   UNL     1       5.493   5.384  15.349  0.00  0.00    +0.000 C 
ATOM     17  C   UNL     1       5.094   6.779  14.874  0.00  0.00    +0.000 C 
BRANCH  16  18
ATOM     18  C   UNL     1       6.507   4.708  14.407  0.00  0.00    +0.000 C 
ATOM     19  O   UNL     1       7.327   5.311  13.731  0.00  0.00    +0.000 OA
BRANCH  18  20
ATOM     20  O   UNL     1       6.351   3.364  14.299  0.00  0.00    +0.000 OA
ATOM     21  H   UNL     1       6.757   2.882  15.046  0.00  0.00    +0.000 HD
ENDBRANCH  18  20
ENDBRANCH  16  18
ENDBRANCH  10  16
TORSDOF 3
ENDMDL
