MODEL 1
REMARK VINA RESULT:      -7.9      0.000      0.000
REMARK  Name = 
REMARK  12 active torsions:
REMARK  status: ('A' for Active; 'I' for Inactive)
REMARK    1  A    between atoms: C_1  and  C_2
REMARK    2  A    between atoms: C_2  and  C_3
REMARK    3  A    between atoms: C_2  and  C_4
REMARK    4  A    between atoms: C_4  and  C_5
REMARK    5  A    between atoms: C_5  and  N_6
REMARK    6  A    between atoms: C_5  and  C_18
REMARK    7  A    between atoms: C_7  and  C_9
REMARK    8  A    between atoms: C_9  and  C_10
REMARK    9  A    between atoms: C_10  and  O_11
REMARK   10  A    between atoms: O_11  and  C_12
REMARK   11  A    between atoms: N_20  and  C_21
REMARK   12  A    between atoms: C_26  and  O_27
REMARK                            x       y       z     vdW  Elec       q    Type
REMARK                         _______ _______ _______ _____ _____    ______ ____
ROOT
ATOM      1  C   UNL     1       2.988   5.303  19.052  0.00  0.00    +0.000 C 
ENDROOT
BRANCH   1   2
ATOM      2  N   UNL     1       2.930   6.533  18.255  0.00  0.00    +0.000 N 
ATOM      3  C   UNL     1       2.379   7.701  18.739  0.00  0.00    +0.000 C 
ATOM      4  O   UNL     1       1.989   7.816  19.898  0.00  0.00    +0.000 OA
ATOM      5  H   UNL     1       3.203   6.460  17.280  0.00  0.00    +0.000 HD
BRANCH   3   6
ATOM      6  C   UNL     1       2.281   8.808  17.710  0.00  0.00    +0.000 C 
BRANCH   6   7
ATOM      7  C   UNL     1       1.342   9.917  18.177  0.00  0.00    +0.000 C 
BRANCH   7   8
ATOM      8  O   UNL     1       0.006   9.602  17.760  0.00  0.00    +0.000 OA
BRANCH   8   9
ATOM      9  C   UNL     1      -0.977  10.420  18.255  0.00  0.00    +0.000 A 
ATOM     10  C   UNL     1      -0.649  11.128  19.414  0.00  0.00    +0.000 A 
ATOM     11  C   UNL     1      -1.575  11.991  20.009  0.00  0.00    +0.000 A 
ATOM     12  C   UNL     1      -2.832  12.163  19.434  0.00  0.00    +0.000 A 
ATOM     13  C   UNL     1      -3.156  11.484  18.262  0.00  0.00    +0.000 A 
ATOM     14  C   UNL     1      -2.230  10.615  17.671  0.00  0.00    +0.000 A 
ENDBRANCH   8   9
ENDBRANCH   7   8
ENDBRANCH   6   7
ENDBRANCH   3   6
ENDBRANCH   1   2
BRANCH   1  15
ATOM     15  C   UNL     1       4.367   4.651  18.809  0.00  0.00    +0.000 C 
ATOM     16  O   UNL     1       5.094   4.277  19.728  0.00  0.00    +0.000 OA
ATOM     17  N   UNL     1       4.746   4.568  17.482  0.00  0.00    +0.000 N 
ATOM     18  H   UNL     1       3.997   4.616  16.801  0.00  0.00    +0.000 HD
BRANCH  17  19
ATOM     19  C   UNL     1       6.014   3.943  17.082  0.00  0.00    +0.000 C 
ATOM     20  C   UNL     1       6.114   3.838  15.574  0.00  0.00    +0.000 C 
ATOM     21  C   UNL     1       6.874   5.076  15.205  0.00  0.00    +0.000 C 
ATOM     22  O   UNL     1       6.964   5.519  14.073  0.00  0.00    +0.000 OA
ATOM     23  O   UNL     1       7.502   5.606  16.287  0.00  0.00    +0.000 OA
ATOM     24  C   UNL     1       7.262   4.776  17.417  0.00  0.00    +0.000 C 
BRANCH  24  25
ATOM     25  O   UNL     1       8.409   3.975  17.668  0.00  0.00    +0.000 OA
ATOM     26  H   UNL     1       8.171   3.285  18.306  0.00  0.00    +0.000 HD
ENDBRANCH  24  25
ENDBRANCH  17  19
ENDBRANCH   1  15
BRANCH   1  27
ATOM     27  C   UNL     1       1.844   4.361  18.633  0.00  0.00    +0.000 C 
BRANCH  27  29
ATOM     28  C   UNL     1       1.209   3.337  20.896  0.00  0.00    +0.000 C 
ATOM     29  C   UNL     1       1.654   3.070  19.458  0.00  0.00    +0.000 C 
ATOM     30  C   UNL     1       0.620   2.179  18.761  0.00  0.00    +0.000 C 
ENDBRANCH  27  29
ENDBRANCH   1  27
TORSDOF 10
ENDMDL
MODEL 2
REMARK VINA RESULT:      -7.8      1.805      2.499
REMARK  Name = 
REMARK  12 active torsions:
REMARK  status: ('A' for Active; 'I' for Inactive)
REMARK    1  A    between atoms: C_1  and  C_2
REMARK    2  A    between atoms: C_2  and  C_3
REMARK    3  A    between atoms: C_2  and  C_4
REMARK    4  A    between atoms: C_4  and  C_5
REMARK    5  A    between atoms: C_5  and  N_6
REMARK    6  A    between atoms: C_5  and  C_18
REMARK    7  A    between atoms: C_7  and  C_9
REMARK    8  A    between atoms: C_9  and  C_10
REMARK    9  A    between atoms: C_10  and  O_11
REMARK   10  A    between atoms: O_11  and  C_12
REMARK   11  A    between atoms: N_20  and  C_21
REMARK   12  A    between atoms: C_26  and  O_27
REMARK                            x       y       z     vdW  Elec       q    Type
REMARK                         _______ _______ _______ _____ _____    ______ ____
ROOT
ATOM      1  C   UNL     1       2.741   5.459  18.414  0.00  0.00    +0.000 C 
ENDROOT
BRANCH   1   2
ATOM      2  N   UNL     1       2.298   6.745  17.866  0.00  0.00    +0.000 N 
ATOM      3  C   UNL     1       2.037   7.838  18.666  0.00  0.00    +0.000 C 
ATOM      4  O   UNL     1       2.249   7.835  19.876  0.00  0.00    +0.000 OA
ATOM      5  H   UNL     1       2.072   6.769  16.876  0.00  0.00    +0.000 HD
BRANCH   3   6
ATOM      6  C   UNL     1       1.450   9.020  17.921  0.00  0.00    +0.000 C 
BRANCH   6   7
ATOM      7  C   UNL     1       1.265  10.220  18.846  0.00  0.00    +0.000 C 
BRANCH   7   8
ATOM      8  O   UNL     1      -0.131  10.373  19.136  0.00  0.00    +0.000 OA
BRANCH   8   9
ATOM      9  C   UNL     1      -0.450  10.502  20.464  0.00  0.00    +0.000 A 
ATOM     10  C   UNL     1      -1.159  11.657  20.806  0.00  0.00    +0.000 A 
ATOM     11  C   UNL     1      -1.536  11.896  22.131  0.00  0.00    +0.000 A 
ATOM     12  C   UNL     1      -1.220  10.967  23.121  0.00  0.00    +0.000 A 
ATOM     13  C   UNL     1      -0.540   9.800  22.783  0.00  0.00    +0.000 A 
ATOM     14  C   UNL     1      -0.157   9.566  21.456  0.00  0.00    +0.000 A 
ENDBRANCH   8   9
ENDBRANCH   7   8
ENDBRANCH   6   7
ENDBRANCH   3   6
ENDBRANCH   1   2
BRANCH   1  15
ATOM     15  C   UNL     1       4.051   5.069  17.695  0.00  0.00    +0.000 C 
ATOM     16  O   UNL     1       4.152   4.056  17.004  0.00  0.00    +0.000 OA
ATOM     17  N   UNL     1       5.119   5.915  17.930  0.00  0.00    +0.000 N 
ATOM     18  H   UNL     1       4.885   6.849  18.248  0.00  0.00    +0.000 HD
BRANCH  17  19
ATOM     19  C   UNL     1       6.425   5.702  17.292  0.00  0.00    +0.000 C 
ATOM     20  C   UNL     1       7.169   7.011  17.132  0.00  0.00    +0.000 C 
ATOM     21  C   UNL     1       8.032   7.054  18.355  0.00  0.00    +0.000 C 
ATOM     22  O   UNL     1       8.613   8.048  18.757  0.00  0.00    +0.000 OA
ATOM     23  O   UNL     1       8.135   5.826  18.927  0.00  0.00    +0.000 OA
ATOM     24  C   UNL     1       7.414   4.885  18.139  0.00  0.00    +0.000 C 
BRANCH  24  25
ATOM     25  O   UNL     1       8.326   4.133  17.350  0.00  0.00    +0.000 OA
ATOM     26  H   UNL     1       8.300   4.471  16.441  0.00  0.00    +0.000 HD
ENDBRANCH  24  25
ENDBRANCH  17  19
ENDBRANCH   1  15
BRANCH   1  27
ATOM     27  C   UNL     1       1.646   4.398  18.192  0.00  0.00    +0.000 C 
BRANCH  27  29
ATOM     28  C   UNL     1       1.157   3.755  20.624  0.00  0.00    +0.000 C 
ATOM     29  C   UNL     1       1.543   3.262  19.230  0.00  0.00    +0.000 C 
ATOM     30  C   UNL     1       0.511   2.236  18.748  0.00  0.00    +0.000 C 
ENDBRANCH  27  29
ENDBRANCH   1  27
TORSDOF 10
ENDMDL
MODEL 3
REMARK VINA RESULT:      -7.7      0.651      1.290
REMARK  Name = 
REMARK  12 active torsions:
REMARK  status: ('A' for Active; 'I' for Inactive)
REMARK    1  A    between atoms: C_1  and  C_2
REMARK    2  A    between atoms: C_2  and  C_3
REMARK    3  A    between atoms: C_2  and  C_4
REMARK    4  A    between atoms: C_4  and  C_5
REMARK    5  A    between atoms: C_5  and  N_6
REMARK    6  A    between atoms: C_5  and  C_18
REMARK    7  A    between atoms: C_7  and  C_9
REMARK    8  A    between atoms: C_9  and  C_10
REMARK    9  A    between atoms: C_10  and  O_11
REMARK   10  A    between atoms: O_11  and  C_12
REMARK   11  A    between atoms: N_20  and  C_21
REMARK   12  A    between atoms: C_26  and  O_27
REMARK                            x       y       z     vdW  Elec       q    Type
REMARK                         _______ _______ _______ _____ _____    ______ ____
ROOT
ATOM      1  C   UNL     1       2.744   4.927  19.055  0.00  0.00    +0.000 C 
ENDROOT
BRANCH   1   2
ATOM      2  N   UNL     1       2.773   6.288  18.508  0.00  0.00    +0.000 N 
ATOM      3  C   UNL     1       2.240   7.367  19.184  0.00  0.00    +0.000 C 
ATOM      4  O   UNL     1       1.796   7.275  20.325  0.00  0.00    +0.000 OA
ATOM      5  H   UNL     1       3.093   6.391  17.550  0.00  0.00    +0.000 HD
BRANCH   3   6
ATOM      6  C   UNL     1       2.236   8.653  18.385  0.00  0.00    +0.000 C 
BRANCH   6   7
ATOM      7  C   UNL     1       1.338   9.704  19.031  0.00  0.00    +0.000 C 
BRANCH   7   8
ATOM      8  O   UNL     1       0.762  10.520  18.002  0.00  0.00    +0.000 OA
BRANCH   8   9
ATOM      9  C   UNL     1      -0.594  10.708  18.083  0.00  0.00    +0.000 A 
ATOM     10  C   UNL     1      -1.374   9.789  17.375  0.00  0.00    +0.000 A 
ATOM     11  C   UNL     1      -2.770   9.884  17.384  0.00  0.00    +0.000 A 
ATOM     12  C   UNL     1      -3.394  10.890  18.119  0.00  0.00    +0.000 A 
ATOM     13  C   UNL     1      -2.623  11.790  18.850  0.00  0.00    +0.000 A 
ATOM     14  C   UNL     1      -1.226  11.699  18.835  0.00  0.00    +0.000 A 
ENDBRANCH   8   9
ENDBRANCH   7   8
ENDBRANCH   6   7
ENDBRANCH   3   6
ENDBRANCH   1   2
BRANCH   1  15
ATOM     15  C   UNL     1       4.129   4.291  18.800  0.00  0.00    +0.000 C 
ATOM     16  O   UNL     1       4.739   3.666  19.665  0.00  0.00    +0.000 OA
ATOM     17  N   UNL     1       4.654   4.522  17.542  0.00  0.00    +0.000 N 
ATOM     18  H   UNL     1       3.988   4.774  16.820  0.00  0.00    +0.000 HD
BRANCH  17  19
ATOM     19  C   UNL     1       5.946   3.956  17.131  0.00  0.00    +0.000 C 
ATOM     20  C   UNL     1       6.054   3.894  15.622  0.00  0.00    +0.000 C 
ATOM     21  C   UNL     1       6.768   5.168  15.288  0.00  0.00    +0.000 C 
ATOM     22  O   UNL     1       6.845   5.644  14.168  0.00  0.00    +0.000 OA
ATOM     23  O   UNL     1       7.372   5.695  16.385  0.00  0.00    +0.000 OA
ATOM     24  C   UNL     1       7.159   4.827  17.493  0.00  0.00    +0.000 C 
BRANCH  24  25
ATOM     25  O   UNL     1       8.335   4.064  17.728  0.00  0.00    +0.000 OA
ATOM     26  H   UNL     1       8.190   3.505  18.507  0.00  0.00    +0.000 HD
ENDBRANCH  24  25
ENDBRANCH  17  19
ENDBRANCH   1  15
BRANCH   1  27
ATOM     27  C   UNL     1       1.625   4.119  18.372  0.00  0.00    +0.000 C 
BRANCH  27  29
ATOM     28  C   UNL     1       1.663   1.626  18.965  0.00  0.00    +0.000 C 
ATOM     29  C   UNL     1       0.982   2.977  19.186  0.00  0.00    +0.000 C 
ATOM     30  C   UNL     1       1.030   3.335  20.675  0.00  0.00    +0.000 C 
ENDBRANCH  27  29
ENDBRANCH   1  27
TORSDOF 10
ENDMDL
MODEL 4
REMARK VINA RESULT:      -7.7      4.683      8.217
REMARK  Name = 
REMARK  12 active torsions:
REMARK  status: ('A' for Active; 'I' for Inactive)
REMARK    1  A    between atoms: C_1  and  C_2
REMARK    2  A    between atoms: C_2  and  C_3
REMARK    3  A    between atoms: C_2  and  C_4
REMARK    4  A    between atoms: C_4  and  C_5
REMARK    5  A    between atoms: C_5  and  N_6
REMARK    6  A    between atoms: C_5  and  C_18
REMARK    7  A    between atoms: C_7  and  C_9
REMARK    8  A    between atoms: C_9  and  C_10
REMARK    9  A    between atoms: C_10  and  O_11
REMARK   10  A    between atoms: O_11  and  C_12
REMARK   11  A    between atoms: N_20  and  C_21
REMARK   12  A    between atoms: C_26  and  O_27
REMARK                            x       y       z     vdW  Elec       q    Type
REMARK                         _______ _______ _______ _____ _____    ______ ____
ROOT
ATOM      1  C   UNL     1       6.049   5.276  17.161  0.00  0.00    +0.000 C 
ENDROOT
BRANCH   1   2
ATOM      2  N   UNL     1       7.036   6.067  17.903  0.00  0.00    +0.000 N 
ATOM      3  C   UNL     1       7.291   7.391  17.612  0.00  0.00    +0.000 C 
ATOM      4  O   UNL     1       6.643   8.020  16.780  0.00  0.00    +0.000 OA
ATOM      5  H   UNL     1       7.620   5.567  18.567  0.00  0.00    +0.000 HD
BRANCH   3   6
ATOM      6  C   UNL     1       8.448   7.981  18.392  0.00  0.00    +0.000 C 
BRANCH   6   7
ATOM      7  C   UNL     1       8.498   9.500  18.244  0.00  0.00    +0.000 C 
BRANCH   7   8
ATOM      8  O   UNL     1       9.200  10.053  19.366  0.00  0.00    +0.000 OA
BRANCH   8   9
ATOM      9  C   UNL     1      10.092  11.052  19.073  0.00  0.00    +0.000 A 
ATOM     10  C   UNL     1      10.677  11.682  20.175  0.00  0.00    +0.000 A 
ATOM     11  C   UNL     1      11.601  12.718  19.996  0.00  0.00    +0.000 A 
ATOM     12  C   UNL     1      11.958  13.116  18.710  0.00  0.00    +0.000 A 
ATOM     13  C   UNL     1      11.401  12.472  17.608  0.00  0.00    +0.000 A 
ATOM     14  C   UNL     1      10.471  11.440  17.788  0.00  0.00    +0.000 A 
ENDBRANCH   8   9
ENDBRANCH   7   8
ENDBRANCH   6   7
ENDBRANCH   3   6
ENDBRANCH   1   2
BRANCH   1  15
ATOM     15  C   UNL     1       5.386   4.299  18.157  0.00  0.00    +0.000 C 
ATOM     16  O   UNL     1       5.965   3.881  19.159  0.00  0.00    +0.000 OA
ATOM     17  N   UNL     1       4.111   3.890  17.812  0.00  0.00    +0.000 N 
ATOM     18  H   UNL     1       3.612   4.488  17.163  0.00  0.00    +0.000 HD
BRANCH  17  19
ATOM     19  C   UNL     1       3.333   2.990  18.673  0.00  0.00    +0.000 C 
ATOM     20  C   UNL     1       3.080   3.620  20.027  0.00  0.00    +0.000 C 
ATOM     21  C   UNL     1       1.730   4.247  19.854  0.00  0.00    +0.000 C 
ATOM     22  O   UNL     1       1.248   5.069  20.614  0.00  0.00    +0.000 OA
ATOM     23  O   UNL     1       1.086   3.735  18.773  0.00  0.00    +0.000 OA
ATOM     24  C   UNL     1       1.900   2.729  18.181  0.00  0.00    +0.000 C 
BRANCH  24  25
ATOM     25  O   UNL     1       1.413   1.447  18.553  0.00  0.00    +0.000 OA
ATOM     26  H   UNL     1       1.824   0.782  17.980  0.00  0.00    +0.000 HD
ENDBRANCH  24  25
ENDBRANCH  17  19
ENDBRANCH   1  15
BRANCH   1  27
ATOM     27  C   UNL     1       6.748   4.516  16.018  0.00  0.00    +0.000 C 
BRANCH  27  29
ATOM     28  C   UNL     1       7.640   5.151  13.700  0.00  0.00    +0.000 C 
ATOM     29  C   UNL     1       6.404   4.939  14.575  0.00  0.00    +0.000 C 
ATOM     30  C   UNL     1       5.508   3.869  13.940  0.00  0.00    +0.000 C 
ENDBRANCH  27  29
ENDBRANCH   1  27
TORSDOF 10
ENDMDL
MODEL 5
REMARK VINA RESULT:      -7.6      1.297      1.820
REMARK  Name = 
REMARK  12 active torsions:
REMARK  status: ('A' for Active; 'I' for Inactive)
REMARK    1  A    between atoms: C_1  and  C_2
REMARK    2  A    between atoms: C_2  and  C_3
REMARK    3  A    between atoms: C_2  and  C_4
REMARK    4  A    between atoms: C_4  and  C_5
REMARK    5  A    between atoms: C_5  and  N_6
REMARK    6  A    between atoms: C_5  and  C_18
REMARK    7  A    between atoms: C_7  and  C_9
REMARK    8  A    between atoms: C_9  and  C_10
REMARK    9  A    between atoms: C_10  and  O_11
REMARK   10  A    between atoms: O_11  and  C_12
REMARK   11  A    between atoms: N_20  and  C_21
REMARK   12  A    between atoms: C_26  and  O_27
REMARK                            x       y       z     vdW  Elec       q    Type
REMARK                         _______ _______ _______ _____ _____    ______ ____
ROOT
ATOM      1  C   UNL     1       2.772   5.126  18.717  0.00  0.00    +0.000 C 
ENDROOT
BRANCH   1   2
ATOM      2  N   UNL     1       2.572   6.504  18.256  0.00  0.00    +0.000 N 
ATOM      3  C   UNL     1       2.161   7.514  19.103  0.00  0.00    +0.000 C 
ATOM      4  O   UNL     1       2.029   7.347  20.313  0.00  0.00    +0.000 OA
ATOM      5  H   UNL     1       2.629   6.666  17.256  0.00  0.00    +0.000 HD
BRANCH   3   6
ATOM      6  C   UNL     1       1.869   8.824  18.402  0.00  0.00    +0.000 C 
BRANCH   6   7
ATOM      7  C   UNL     1       0.957   9.712  19.244  0.00  0.00    +0.000 C 
BRANCH   7   8
ATOM      8  O   UNL     1       0.468  10.785  18.427  0.00  0.00    +0.000 OA
BRANCH   8   9
ATOM      9  C   UNL     1      -0.895  10.852  18.291  0.00  0.00    +0.000 A 
ATOM     10  C   UNL     1      -1.465   9.906  17.436  0.00  0.00    +0.000 A 
ATOM     11  C   UNL     1      -2.846   9.881  17.219  0.00  0.00    +0.000 A 
ATOM     12  C   UNL     1      -3.669  10.795  17.874  0.00  0.00    +0.000 A 
ATOM     13  C   UNL     1      -3.111  11.722  18.751  0.00  0.00    +0.000 A 
ATOM     14  C   UNL     1      -1.726  11.750  18.962  0.00  0.00    +0.000 A 
ENDBRANCH   8   9
ENDBRANCH   7   8
ENDBRANCH   6   7
ENDBRANCH   3   6
ENDBRANCH   1   2
BRANCH   1  15
ATOM     15  C   UNL     1       4.238   4.740  18.415  0.00  0.00    +0.000 C 
ATOM     16  O   UNL     1       4.850   3.901  19.074  0.00  0.00    +0.000 OA
ATOM     17  N   UNL     1       4.826   5.446  17.383  0.00  0.00    +0.000 N 
ATOM     18  H   UNL     1       4.191   5.882  16.723  0.00  0.00    +0.000 HD
BRANCH  17  19
ATOM     19  C   UNL     1       6.203   5.173  16.950  0.00  0.00    +0.000 C 
ATOM     20  C   UNL     1       6.800   6.378  16.254  0.00  0.00    +0.000 C 
ATOM     21  C   UNL     1       7.532   7.072  17.362  0.00  0.00    +0.000 C 
ATOM     22  O   UNL     1       7.951   8.215  17.304  0.00  0.00    +0.000 OA
ATOM     23  O   UNL     1       7.723   6.241  18.420  0.00  0.00    +0.000 OA
ATOM     24  C   UNL     1       7.195   4.957  18.103  0.00  0.00    +0.000 C 
BRANCH  24  25
ATOM     25  O   UNL     1       8.260   4.081  17.758  0.00  0.00    +0.000 OA
ATOM     26  H   UNL     1       8.942   4.138  18.446  0.00  0.00    +0.000 HD
ENDBRANCH  24  25
ENDBRANCH  17  19
ENDBRANCH   1  15
BRANCH   1  27
ATOM     27  C   UNL     1       1.788   4.190  17.992  0.00  0.00    +0.000 C 
BRANCH  27  29
ATOM     28  C   UNL     1       1.895   1.831  18.989  0.00  0.00    +0.000 C 
ATOM     29  C   UNL     1       1.079   3.115  18.842  0.00  0.00    +0.000 C 
ATOM     30  C   UNL     1       0.782   3.692  20.232  0.00  0.00    +0.000 C 
ENDBRANCH  27  29
ENDBRANCH   1  27
TORSDOF 10
ENDMDL
MODEL 6
REMARK VINA RESULT:      -7.5      1.777      2.532
REMARK  Name = 
REMARK  12 active torsions:
REMARK  status: ('A' for Active; 'I' for Inactive)
REMARK    1  A    between atoms: C_1  and  C_2
REMARK    2  A    between atoms: C_2  and  C_3
REMARK    3  A    between atoms: C_2  and  C_4
REMARK    4  A    between atoms: C_4  and  C_5
REMARK    5  A    between atoms: C_5  and  N_6
REMARK    6  A    between atoms: C_5  and  C_18
REMARK    7  A    between atoms: C_7  and  C_9
REMARK    8  A    between atoms: C_9  and  C_10
REMARK    9  A    between atoms: C_10  and  O_11
REMARK   10  A    between atoms: O_11  and  C_12
REMARK   11  A    between atoms: N_20  and  C_21
REMARK   12  A    between atoms: C_26  and  O_27
REMARK                            x       y       z     vdW  Elec       q    Type
REMARK                         _______ _______ _______ _____ _____    ______ ____
ROOT
ATOM      1  C   UNL     1       2.728   5.424  18.600  0.00  0.00    +0.000 C 
ENDROOT
BRANCH   1   2
ATOM      2  N   UNL     1       2.510   6.820  18.206  0.00  0.00    +0.000 N 
ATOM      3  C   UNL     1       2.087   7.782  19.100  0.00  0.00    +0.000 C 
ATOM      4  O   UNL     1       1.959   7.555  20.300  0.00  0.00    +0.000 OA
ATOM      5  H   UNL     1       2.564   7.031  17.214  0.00  0.00    +0.000 HD
BRANCH   3   6
ATOM      6  C   UNL     1       1.778   9.121  18.463  0.00  0.00    +0.000 C 
BRANCH   6   7
ATOM      7  C   UNL     1       0.525   9.747  19.069  0.00  0.00    +0.000 C 
BRANCH   7   8
ATOM      8  O   UNL     1       0.835  10.227  20.384  0.00  0.00    +0.000 OA
BRANCH   8   9
ATOM      9  C   UNL     1      -0.176  10.897  21.024  0.00  0.00    +0.000 A 
ATOM     10  C   UNL     1      -1.058  11.595  20.195  0.00  0.00    +0.000 A 
ATOM     11  C   UNL     1      -2.127  12.316  20.738  0.00  0.00    +0.000 A 
ATOM     12  C   UNL     1      -2.329  12.327  22.116  0.00  0.00    +0.000 A 
ATOM     13  C   UNL     1      -1.472  11.609  22.946  0.00  0.00    +0.000 A 
ATOM     14  C   UNL     1      -0.398  10.893  22.402  0.00  0.00    +0.000 A 
ENDBRANCH   8   9
ENDBRANCH   7   8
ENDBRANCH   6   7
ENDBRANCH   3   6
ENDBRANCH   1   2
BRANCH   1  15
ATOM     15  C   UNL     1       4.054   4.958  17.958  0.00  0.00    +0.000 C 
ATOM     16  O   UNL     1       4.186   3.848  17.443  0.00  0.00    +0.000 OA
ATOM     17  N   UNL     1       5.096   5.861  18.052  0.00  0.00    +0.000 N 
ATOM     18  H   UNL     1       4.835   6.828  18.211  0.00  0.00    +0.000 HD
BRANCH  17  19
ATOM     19  C   UNL     1       6.412   5.582  17.461  0.00  0.00    +0.000 C 
ATOM     20  C   UNL     1       7.140   6.868  17.131  0.00  0.00    +0.000 C 
ATOM     21  C   UNL     1       7.989   7.089  18.345  0.00  0.00    +0.000 C 
ATOM     22  O   UNL     1       8.553   8.137  18.613  0.00  0.00    +0.000 OA
ATOM     23  O   UNL     1       8.102   5.952  19.079  0.00  0.00    +0.000 OA
ATOM     24  C   UNL     1       7.403   4.902  18.420  0.00  0.00    +0.000 C 
BRANCH  24  25
ATOM     25  O   UNL     1       8.333   4.063  17.749  0.00  0.00    +0.000 OA
ATOM     26  H   UNL     1       8.954   3.706  18.402  0.00  0.00    +0.000 HD
ENDBRANCH  24  25
ENDBRANCH  17  19
ENDBRANCH   1  15
BRANCH   1  27
ATOM     27  C   UNL     1       1.545   4.561  18.124  0.00  0.00    +0.000 C 
BRANCH  27  29
ATOM     28  C   UNL     1       1.389   2.141  18.953  0.00  0.00    +0.000 C 
ATOM     29  C   UNL     1       0.926   3.585  19.146  0.00  0.00    +0.000 C 
ATOM     30  C   UNL     1       1.284   4.050  20.562  0.00  0.00    +0.000 C 
ENDBRANCH  27  29
ENDBRANCH   1  27
TORSDOF 10
ENDMDL
MODEL 7
REMARK VINA RESULT:      -7.5      1.346      2.007
REMARK  Name = 
REMARK  12 active torsions:
REMARK  status: ('A' for Active; 'I' for Inactive)
REMARK    1  A    between atoms: C_1  and  C_2
REMARK    2  A    between atoms: C_2  and  C_3
REMARK    3  A    between atoms: C_2  and  C_4
REMARK    4  A    between atoms: C_4  and  C_5
REMARK    5  A    between atoms: C_5  and  N_6
REMARK    6  A    between atoms: C_5  and  C_18
REMARK    7  A    between atoms: C_7  and  C_9
REMARK    8  A    between atoms: C_9  and  C_10
REMARK    9  A    between atoms: C_10  and  O_11
REMARK   10  A    between atoms: O_11  and  C_12
REMARK   11  A    between atoms: N_20  and  C_21
REMARK   12  A    between atoms: C_26  and  O_27
REMARK                            x       y       z     vdW  Elec       q    Type
REMARK                         _______ _______ _______ _____ _____    ______ ____
ROOT
ATOM      1  C   UNL     1       2.984   5.669  19.084  0.00  0.00    +0.000 C 
ENDROOT
BRANCH   1   2
ATOM      2  N   UNL     1       2.757   6.961  18.427  0.00  0.00    +0.000 N 
ATOM      3  C   UNL     1       2.088   7.997  19.046  0.00  0.00    +0.000 C 
ATOM      4  O   UNL     1       1.724   7.940  20.218  0.00  0.00    +0.000 OA
ATOM      5  H   UNL     1       3.006   7.026  17.445  0.00  0.00    +0.000 HD
BRANCH   3   6
ATOM      6  C   UNL     1       1.828   9.187  18.145  0.00  0.00    +0.000 C 
BRANCH   6   7
ATOM      7  C   UNL     1       0.591   9.961  18.593  0.00  0.00    +0.000 C 
BRANCH   7   8
ATOM      8  O   UNL     1      -0.459   9.752  17.638  0.00  0.00    +0.000 OA
BRANCH   8   9
ATOM      9  C   UNL     1      -1.646  10.380  17.916  0.00  0.00    +0.000 A 
ATOM     10  C   UNL     1      -2.752   9.930  17.190  0.00  0.00    +0.000 A 
ATOM     11  C   UNL     1      -4.015  10.499  17.389  0.00  0.00    +0.000 A 
ATOM     12  C   UNL     1      -4.180  11.511  18.332  0.00  0.00    +0.000 A 
ATOM     13  C   UNL     1      -3.088  11.943  19.081  0.00  0.00    +0.000 A 
ATOM     14  C   UNL     1      -1.823  11.378  18.876  0.00  0.00    +0.000 A 
ENDBRANCH   8   9
ENDBRANCH   7   8
ENDBRANCH   6   7
ENDBRANCH   3   6
ENDBRANCH   1   2
BRANCH   1  15
ATOM     15  C   UNL     1       4.394   5.181  18.682  0.00  0.00    +0.000 C 
ATOM     16  O   UNL     1       4.891   4.151  19.134  0.00  0.00    +0.000 OA
ATOM     17  N   UNL     1       5.075   6.015  17.816  0.00  0.00    +0.000 N 
ATOM     18  H   UNL     1       4.506   6.658  17.276  0.00  0.00    +0.000 HD
BRANCH  17  19
ATOM     19  C   UNL     1       6.412   5.675  17.312  0.00  0.00    +0.000 C 
ATOM     20  C   UNL     1       7.221   6.926  17.038  0.00  0.00    +0.000 C 
ATOM     21  C   UNL     1       7.998   7.103  18.306  0.00  0.00    +0.000 C 
ATOM     22  O   UNL     1       8.591   8.122  18.617  0.00  0.00    +0.000 OA
ATOM     23  O   UNL     1       8.007   5.959  19.040  0.00  0.00    +0.000 OA
ATOM     24  C   UNL     1       7.304   4.946  18.330  0.00  0.00    +0.000 C 
BRANCH  24  25
ATOM     25  O   UNL     1       8.235   4.065  17.716  0.00  0.00    +0.000 OA
ATOM     26  H   UNL     1       9.077   4.534  17.605  0.00  0.00    +0.000 HD
ENDBRANCH  24  25
ENDBRANCH  17  19
ENDBRANCH   1  15
BRANCH   1  27
ATOM     27  C   UNL     1       1.900   4.668  18.645  0.00  0.00    +0.000 C 
BRANCH  27  29
ATOM     28  C   UNL     1       1.243   3.623  20.892  0.00  0.00    +0.000 C 
ATOM     29  C   UNL     1       1.757   3.374  19.474  0.00  0.00    +0.000 C 
ATOM     30  C   UNL     1       0.805   2.418  18.747  0.00  0.00    +0.000 C 
ENDBRANCH  27  29
ENDBRANCH   1  27
TORSDOF 10
ENDMDL
MODEL 8
REMARK VINA RESULT:      -7.4      1.816      2.483
REMARK  Name = 
REMARK  12 active torsions:
REMARK  status: ('A' for Active; 'I' for Inactive)
REMARK    1  A    between atoms: C_1  and  C_2
REMARK    2  A    between atoms: C_2  and  C_3
REMARK    3  A    between atoms: C_2  and  C_4
REMARK    4  A    between atoms: C_4  and  C_5
REMARK    5  A    between atoms: C_5  and  N_6
REMARK    6  A    between atoms: C_5  and  C_18
REMARK    7  A    between atoms: C_7  and  C_9
REMARK    8  A    between atoms: C_9  and  C_10
REMARK    9  A    between atoms: C_10  and  O_11
REMARK   10  A    between atoms: O_11  and  C_12
REMARK   11  A    between atoms: N_20  and  C_21
REMARK   12  A    between atoms: C_26  and  O_27
REMARK                            x       y       z     vdW  Elec       q    Type
REMARK                         _______ _______ _______ _____ _____    ______ ____
ROOT
ATOM      1  C   UNL     1       3.620   4.696  19.887  0.00  0.00    +0.000 C 
ENDROOT
BRANCH   1   2
ATOM      2  N   UNL     1       2.927   5.985  19.984  0.00  0.00    +0.000 N 
ATOM      3  C   UNL     1       2.556   6.710  18.870  0.00  0.00    +0.000 C 
ATOM      4  O   UNL     1       2.695   6.279  17.727  0.00  0.00    +0.000 OA
ATOM      5  H   UNL     1       2.836   6.389  20.911  0.00  0.00    +0.000 HD
BRANCH   3   6
ATOM      6  C   UNL     1       1.990   8.079  19.186  0.00  0.00    +0.000 C 
BRANCH   6   7
ATOM      7  C   UNL     1       1.828   8.277  20.691  0.00  0.00    +0.000 C 
BRANCH   7   8
ATOM      8  O   UNL     1       0.438   8.167  21.027  0.00  0.00    +0.000 OA
BRANCH   8   9
ATOM      9  C   UNL     1      -0.148   9.311  21.506  0.00  0.00    +0.000 A 
ATOM     10  C   UNL     1      -0.423  10.293  20.551  0.00  0.00    +0.000 A 
ATOM     11  C   UNL     1      -1.019  11.503  20.924  0.00  0.00    +0.000 A 
ATOM     12  C   UNL     1      -1.359  11.727  22.257  0.00  0.00    +0.000 A 
ATOM     13  C   UNL     1      -1.115  10.741  23.208  0.00  0.00    +0.000 A 
ATOM     14  C   UNL     1      -0.512   9.533  22.834  0.00  0.00    +0.000 A 
ENDBRANCH   8   9
ENDBRANCH   7   8
ENDBRANCH   6   7
ENDBRANCH   3   6
ENDBRANCH   1   2
BRANCH   1  15
ATOM     15  C   UNL     1       4.966   4.939  19.169  0.00  0.00    +0.000 C 
ATOM     16  O   UNL     1       5.922   5.480  19.721  0.00  0.00    +0.000 OA
ATOM     17  N   UNL     1       4.997   4.552  17.842  0.00  0.00    +0.000 N 
ATOM     18  H   UNL     1       4.303   3.868  17.561  0.00  0.00    +0.000 HD
BRANCH  17  19
ATOM     19  C   UNL     1       6.214   4.685  17.030  0.00  0.00    +0.000 C 
ATOM     20  C   UNL     1       6.185   3.733  15.852  0.00  0.00    +0.000 C 
ATOM     21  C   UNL     1       5.634   4.586  14.750  0.00  0.00    +0.000 C 
ATOM     22  O   UNL     1       5.212   4.157  13.690  0.00  0.00    +0.000 OA
ATOM     23  O   UNL     1       5.723   5.906  15.060  0.00  0.00    +0.000 OA
ATOM     24  C   UNL     1       6.357   6.044  16.327  0.00  0.00    +0.000 C 
BRANCH  24  25
ATOM     25  O   UNL     1       7.713   6.427  16.137  0.00  0.00    +0.000 OA
ATOM     26  H   UNL     1       7.768   6.987  15.348  0.00  0.00    +0.000 HD
ENDBRANCH  24  25
ENDBRANCH  17  19
ENDBRANCH   1  15
BRANCH   1  27
ATOM     27  C   UNL     1       2.745   3.696  19.108  0.00  0.00    +0.000 C 
BRANCH  27  29
ATOM     28  C   UNL     1       0.578   2.350  18.859  0.00  0.00    +0.000 C 
ATOM     29  C   UNL     1       1.355   3.368  19.693  0.00  0.00    +0.000 C 
ATOM     30  C   UNL     1       1.527   2.834  21.120  0.00  0.00    +0.000 C 
ENDBRANCH  27  29
ENDBRANCH   1  27
TORSDOF 10
ENDMDL
MODEL 9
REMARK VINA RESULT:      -7.4      1.225      1.503
REMARK  Name = 
REMARK  12 active torsions:
REMARK  status: ('A' for Active; 'I' for Inactive)
REMARK    1  A    between atoms: C_1  and  C_2
REMARK    2  A    between atoms: C_2  and  C_3
REMARK    3  A    between atoms: C_2  and  C_4
REMARK    4  A    between atoms: C_4  and  C_5
REMARK    5  A    between atoms: C_5  and  N_6
REMARK    6  A    between atoms: C_5  and  C_18
REMARK    7  A    between atoms: C_7  and  C_9
REMARK    8  A    between atoms: C_9  and  C_10
REMARK    9  A    between atoms: C_10  and  O_11
REMARK   10  A    between atoms: O_11  and  C_12
REMARK   11  A    between atoms: N_20  and  C_21
REMARK   12  A    between atoms: C_26  and  O_27
REMARK                            x       y       z     vdW  Elec       q    Type
REMARK                         _______ _______ _______ _____ _____    ______ ____
ROOT
ATOM      1  C   UNL     1       3.020   5.246  19.168  0.00  0.00    +0.000 C 
ENDROOT
BRANCH   1   2
ATOM      2  N   UNL     1       2.989   6.480  18.375  0.00  0.00    +0.000 N 
ATOM      3  C   UNL     1       2.384   7.634  18.828  0.00  0.00    +0.000 C 
ATOM      4  O   UNL     1       1.917   7.733  19.959  0.00  0.00    +0.000 OA
ATOM      5  H   UNL     1       3.327   6.419  17.419  0.00  0.00    +0.000 HD
BRANCH   3   6
ATOM      6  C   UNL     1       2.331   8.745  17.800  0.00  0.00    +0.000 C 
BRANCH   6   7
ATOM      7  C   UNL     1       1.151   9.680  18.055  0.00  0.00    +0.000 C 
BRANCH   7   8
ATOM      8  O   UNL     1       1.494  10.583  19.115  0.00  0.00    +0.000 OA
BRANCH   8   9
ATOM      9  C   UNL     1       0.835  11.786  19.105  0.00  0.00    +0.000 A 
ATOM     10  C   UNL     1       1.596  12.888  18.709  0.00  0.00    +0.000 A 
ATOM     11  C   UNL     1       1.029  14.166  18.663  0.00  0.00    +0.000 A 
ATOM     12  C   UNL     1      -0.312  14.344  18.997  0.00  0.00    +0.000 A 
ATOM     13  C   UNL     1      -1.084  13.244  19.364  0.00  0.00    +0.000 A 
ATOM     14  C   UNL     1      -0.513  11.966  19.416  0.00  0.00    +0.000 A 
ENDBRANCH   8   9
ENDBRANCH   7   8
ENDBRANCH   6   7
ENDBRANCH   3   6
ENDBRANCH   1   2
BRANCH   1  15
ATOM     15  C   UNL     1       4.368   4.544  18.890  0.00  0.00    +0.000 C 
ATOM     16  O   UNL     1       5.030   4.008  19.778  0.00  0.00    +0.000 OA
ATOM     17  N   UNL     1       4.801   4.610  17.579  0.00  0.00    +0.000 N 
ATOM     18  H   UNL     1       4.087   4.795  16.883  0.00  0.00    +0.000 HD
BRANCH  17  19
ATOM     19  C   UNL     1       6.046   3.963  17.146  0.00  0.00    +0.000 C 
ATOM     20  C   UNL     1       6.101   3.850  15.637  0.00  0.00    +0.000 C 
ATOM     21  C   UNL     1       6.870   5.073  15.240  0.00  0.00    +0.000 C 
ATOM     22  O   UNL     1       6.935   5.510  14.104  0.00  0.00    +0.000 OA
ATOM     23  O   UNL     1       7.538   5.598  16.301  0.00  0.00    +0.000 OA
ATOM     24  C   UNL     1       7.316   4.777  17.442  0.00  0.00    +0.000 C 
BRANCH  24  25
ATOM     25  O   UNL     1       8.457   3.959  17.664  0.00  0.00    +0.000 OA
ATOM     26  H   UNL     1       8.726   4.049  18.591  0.00  0.00    +0.000 HD
ENDBRANCH  24  25
ENDBRANCH  17  19
ENDBRANCH   1  15
BRANCH   1  27
ATOM     27  C   UNL     1       1.833   4.348  18.774  0.00  0.00    +0.000 C 
BRANCH  27  29
ATOM     28  C   UNL     1       1.345   3.159  20.991  0.00  0.00    +0.000 C 
ATOM     29  C   UNL     1       1.692   3.000  19.511  0.00  0.00    +0.000 C 
ATOM     30  C   UNL     1       0.608   2.164  18.821  0.00  0.00    +0.000 C 
ENDBRANCH  27  29
ENDBRANCH   1  27
TORSDOF 10
ENDMDL
