MODEL 1
REMARK VINA RESULT:      -7.9      0.000      0.000
REMARK  Name = 
REMARK  8 active torsions:
REMARK  status: ('A' for Active; 'I' for Inactive)
REMARK    1  A    between atoms: N_1  and  S_2
REMARK    2  A    between atoms: S_2  and  C_5
REMARK    3  A    between atoms: C_8  and  N_9
REMARK    4  A    between atoms: N_12  and  CA_13
REMARK    5  A    between atoms: CA_13  and  CB_14
REMARK    6  A    between atoms: CA_13  and  C_21
REMARK    7  A    between atoms: CB_14  and  CG_15
REMARK    8  A    between atoms: C_21  and  OXT_23
REMARK                            x       y       z     vdW  Elec       q    Type
REMARK                         _______ _______ _______ _____ _____    ______ ____
ROOT
ATOM      1  N   UNK A   0       2.719   7.218  17.992  0.00  0.00    +0.000 N 
ATOM      2  C   UNK A   0       3.604   6.226  18.345  0.00  0.00    +0.000 C 
ATOM      3  O   UNK A   0       4.074   6.034  19.459  0.00  0.00    +0.000 OA
ATOM      4  N   PHE A   1       3.878   5.369  17.310  0.00  0.00    +0.000 N 
ATOM      5  H   UNK A   0       2.512   7.309  17.007  0.00  0.00    +0.000 HD
ATOM      6  H   PHE A   1       3.821   5.702  16.354  0.00  0.00    +0.000 HD
ENDROOT
BRANCH   1  10
ATOM      7  C   UNK A   0       0.736   9.954  20.519  0.00  0.00    +0.000 A 
ATOM      8  C   UNK A   0       1.133   8.725  21.038  0.00  0.00    +0.000 A 
ATOM      9  C   UNK A   0       1.801   7.814  20.212  0.00  0.00    +0.000 A 
ATOM     10  C   UNK A   0       2.071   8.115  18.872  0.00  0.00    +0.000 A 
ATOM     11  C   UNK A   0       1.651   9.353  18.363  0.00  0.00    +0.000 A 
ATOM     12  C   UNK A   0       0.990  10.276  19.185  0.00  0.00    +0.000 A 
BRANCH   7  13
ATOM     13  S   UNK A   0      -0.099  11.101  21.572  0.00  0.00    +0.000 S 
ATOM     14  O   UNK A   0      -0.031  10.619  22.931  0.00  0.00    +0.000 OA
ATOM     15  O   UNK A   0      -1.343  11.501  20.949  0.00  0.00    +0.000 OA
BRANCH  13  16
ATOM     16  N   UNK A   0       0.884  12.460  21.498  0.00  0.00    +0.000 NA
ATOM     17  H   UNK A   0       0.326  13.269  21.221  0.00  0.00    +0.000 HD
ATOM     18  H   UNK A   0       1.678  12.281  20.885  0.00  0.00    +0.000 HD
ENDBRANCH  13  16
ENDBRANCH   7  13
ENDBRANCH   1  10
BRANCH   4  19
ATOM     19  CA  PHE A   1       4.699   4.171  17.531  0.00  0.00    +0.000 C 
BRANCH  19  20
ATOM     20  C   PHE A   1       5.742   4.063  16.412  0.00  0.00    +0.000 C 
ATOM     21  O   PHE A   1       5.452   4.046  15.219  0.00  0.00    +0.000 OA
BRANCH  20  22
ATOM     22  OXT PHE A   1       7.031   4.077  16.825  0.00  0.00    +0.000 OA
ATOM     23  HXT PHE A   1       7.434   3.201  16.985  0.00  0.00    +0.000 HD
ENDBRANCH  20  22
ENDBRANCH  19  20
BRANCH  19  24
ATOM     24  CB  PHE A   1       3.866   2.884  17.690  0.00  0.00    +0.000 C 
BRANCH  24  25
ATOM     25  CG  PHE A   1       2.960   2.832  18.898  0.00  0.00    +0.000 A 
ATOM     26  CD1 PHE A   1       3.486   2.626  20.180  0.00  0.00    +0.000 A 
ATOM     27  CE1 PHE A   1       2.650   2.654  21.298  0.00  0.00    +0.000 A 
ATOM     28  CZ  PHE A   1       1.284   2.881  21.145  0.00  0.00    +0.000 A 
ATOM     29  CE2 PHE A   1       0.747   3.058  19.872  0.00  0.00    +0.000 A 
ATOM     30  CD2 PHE A   1       1.580   3.030  18.753  0.00  0.00    +0.000 A 
ENDBRANCH  24  25
ENDBRANCH  19  24
ENDBRANCH   4  19
TORSDOF 8
ENDMDL
MODEL 2
REMARK VINA RESULT:      -7.9      2.283      3.807
REMARK  Name = 
REMARK  8 active torsions:
REMARK  status: ('A' for Active; 'I' for Inactive)
REMARK    1  A    between atoms: N_1  and  S_2
REMARK    2  A    between atoms: S_2  and  C_5
REMARK    3  A    between atoms: C_8  and  N_9
REMARK    4  A    between atoms: N_12  and  CA_13
REMARK    5  A    between atoms: CA_13  and  CB_14
REMARK    6  A    between atoms: CA_13  and  C_21
REMARK    7  A    between atoms: CB_14  and  CG_15
REMARK    8  A    between atoms: C_21  and  OXT_23
REMARK                            x       y       z     vdW  Elec       q    Type
REMARK                         _______ _______ _______ _____ _____    ______ ____
ROOT
ATOM      1  N   UNK A   0       2.734   6.349  20.014  0.00  0.00    +0.000 N 
ATOM      2  C   UNK A   0       2.632   5.286  19.146  0.00  0.00    +0.000 C 
ATOM      3  O   UNK A   0       1.808   5.156  18.250  0.00  0.00    +0.000 OA
ATOM      4  N   PHE A   1       3.632   4.363  19.319  0.00  0.00    +0.000 N 
ATOM      5  H   UNK A   0       3.400   6.253  20.768  0.00  0.00    +0.000 HD
ATOM      6  H   PHE A   1       4.060   4.253  20.232  0.00  0.00    +0.000 HD
ENDROOT
BRANCH   1  10
ATOM      7  C   UNK A   0       0.554   9.946  19.695  0.00  0.00    +0.000 A 
ATOM      8  C   UNK A   0       0.475   9.214  20.876  0.00  0.00    +0.000 A 
ATOM      9  C   UNK A   0       1.202   8.025  20.997  0.00  0.00    +0.000 A 
ATOM     10  C   UNK A   0       2.003   7.556  19.949  0.00  0.00    +0.000 A 
ATOM     11  C   UNK A   0       2.059   8.301  18.761  0.00  0.00    +0.000 A 
ATOM     12  C   UNK A   0       1.341   9.498  18.634  0.00  0.00    +0.000 A 
BRANCH   7  13
ATOM     13  S   UNK A   0      -0.363  11.451  19.556  0.00  0.00    +0.000 S 
ATOM     14  O   UNK A   0      -0.054  12.290  20.689  0.00  0.00    +0.000 OA
ATOM     15  O   UNK A   0      -1.720  11.147  19.159  0.00  0.00    +0.000 OA
BRANCH  13  16
ATOM     16  N   UNK A   0       0.331  12.187  18.215  0.00  0.00    +0.000 NA
ATOM     17  H   UNK A   0      -0.361  12.783  17.758  0.00  0.00    +0.000 HD
ATOM     18  H   UNK A   0       0.732  11.481  17.600  0.00  0.00    +0.000 HD
ENDBRANCH  13  16
ENDBRANCH   7  13
ENDBRANCH   1  10
BRANCH   4  19
ATOM     19  CA  PHE A   1       3.766   3.227  18.399  0.00  0.00    +0.000 C 
BRANCH  19  20
ATOM     20  C   PHE A   1       4.332   2.024  19.164  0.00  0.00    +0.000 C 
ATOM     21  O   PHE A   1       4.816   2.108  20.289  0.00  0.00    +0.000 OA
BRANCH  20  22
ATOM     22  OXT PHE A   1       4.183   0.829  18.547  0.00  0.00    +0.000 OA
ATOM     23  HXT PHE A   1       4.147   0.051  19.135  0.00  0.00    +0.000 HD
ENDBRANCH  20  22
ENDBRANCH  19  20
BRANCH  19  24
ATOM     24  CB  PHE A   1       4.581   3.562  17.134  0.00  0.00    +0.000 C 
BRANCH  24  25
ATOM     25  CG  PHE A   1       5.546   4.718  17.262  0.00  0.00    +0.000 A 
ATOM     26  CD1 PHE A   1       5.233   5.975  16.726  0.00  0.00    +0.000 A 
ATOM     27  CE1 PHE A   1       6.098   7.055  16.913  0.00  0.00    +0.000 A 
ATOM     28  CZ  PHE A   1       7.281   6.889  17.630  0.00  0.00    +0.000 A 
ATOM     29  CE2 PHE A   1       7.614   5.637  18.142  0.00  0.00    +0.000 A 
ATOM     30  CD2 PHE A   1       6.753   4.555  17.955  0.00  0.00    +0.000 A 
ENDBRANCH  24  25
ENDBRANCH  19  24
ENDBRANCH   4  19
TORSDOF 8
ENDMDL
MODEL 3
REMARK VINA RESULT:      -7.8      2.535      4.087
REMARK  Name = 
REMARK  8 active torsions:
REMARK  status: ('A' for Active; 'I' for Inactive)
REMARK    1  A    between atoms: N_1  and  S_2
REMARK    2  A    between atoms: S_2  and  C_5
REMARK    3  A    between atoms: C_8  and  N_9
REMARK    4  A    between atoms: N_12  and  CA_13
REMARK    5  A    between atoms: CA_13  and  CB_14
REMARK    6  A    between atoms: CA_13  and  C_21
REMARK    7  A    between atoms: CB_14  and  CG_15
REMARK    8  A    between atoms: C_21  and  OXT_23
REMARK                            x       y       z     vdW  Elec       q    Type
REMARK                         _______ _______ _______ _____ _____    ______ ____
ROOT
ATOM      1  N   UNK A   0       2.282   7.186  20.335  0.00  0.00    +0.000 N 
ATOM      2  C   UNK A   0       2.634   6.149  19.501  0.00  0.00    +0.000 C 
ATOM      3  O   UNK A   0       2.242   5.973  18.354  0.00  0.00    +0.000 OA
ATOM      4  N   PHE A   1       3.574   5.319  20.057  0.00  0.00    +0.000 N 
ATOM      5  H   UNK A   0       2.607   7.126  21.290  0.00  0.00    +0.000 HD
ATOM      6  H   PHE A   1       3.620   5.218  21.065  0.00  0.00    +0.000 HD
ENDROOT
BRANCH   1  10
ATOM      7  C   UNK A   0       0.020  10.549  19.164  0.00  0.00    +0.000 A 
ATOM      8  C   UNK A   0      -0.209   9.988  20.417  0.00  0.00    +0.000 A 
ATOM      9  C   UNK A   0       0.543   8.878  20.820  0.00  0.00    +0.000 A 
ATOM     10  C   UNK A   0       1.517   8.320  19.983  0.00  0.00    +0.000 A 
ATOM     11  C   UNK A   0       1.723   8.891  18.718  0.00  0.00    +0.000 A 
ATOM     12  C   UNK A   0       0.982  10.008  18.310  0.00  0.00    +0.000 A 
BRANCH   7  13
ATOM     13  S   UNK A   0      -0.929  11.954  18.667  0.00  0.00    +0.000 S 
ATOM     14  O   UNK A   0      -0.026  13.023  18.312  0.00  0.00    +0.000 OA
ATOM     15  O   UNK A   0      -2.027  12.138  19.591  0.00  0.00    +0.000 OA
BRANCH  13  16
ATOM     16  N   UNK A   0      -1.641  11.437  17.237  0.00  0.00    +0.000 NA
ATOM     17  H   UNK A   0      -2.656  11.417  17.350  0.00  0.00    +0.000 HD
ATOM     18  H   UNK A   0      -1.245  10.542  16.955  0.00  0.00    +0.000 HD
ENDBRANCH  13  16
ENDBRANCH   7  13
ENDBRANCH   1  10
BRANCH   4  19
ATOM     19  CA  PHE A   1       4.169   4.232  19.268  0.00  0.00    +0.000 C 
BRANCH  19  20
ATOM     20  C   PHE A   1       4.026   2.914  20.038  0.00  0.00    +0.000 C 
ATOM     21  O   PHE A   1       3.050   2.641  20.731  0.00  0.00    +0.000 OA
BRANCH  20  22
ATOM     22  OXT PHE A   1       5.018   2.018  19.832  0.00  0.00    +0.000 OA
ATOM     23  HXT PHE A   1       5.023   1.586  18.956  0.00  0.00    +0.000 HD
ENDBRANCH  20  22
ENDBRANCH  19  20
BRANCH  19  24
ATOM     24  CB  PHE A   1       5.624   4.516  18.845  0.00  0.00    +0.000 C 
BRANCH  24  25
ATOM     25  CG  PHE A   1       5.877   4.574  17.356  0.00  0.00    +0.000 A 
ATOM     26  CD1 PHE A   1       7.160   4.833  16.856  0.00  0.00    +0.000 A 
ATOM     27  CE1 PHE A   1       7.397   4.811  15.480  0.00  0.00    +0.000 A 
ATOM     28  CZ  PHE A   1       6.357   4.538  14.595  0.00  0.00    +0.000 A 
ATOM     29  CE2 PHE A   1       5.072   4.309  15.081  0.00  0.00    +0.000 A 
ATOM     30  CD2 PHE A   1       4.831   4.330  16.454  0.00  0.00    +0.000 A 
ENDBRANCH  24  25
ENDBRANCH  19  24
ENDBRANCH   4  19
TORSDOF 8
ENDMDL
MODEL 4
REMARK VINA RESULT:      -7.8      0.725      1.310
REMARK  Name = 
REMARK  8 active torsions:
REMARK  status: ('A' for Active; 'I' for Inactive)
REMARK    1  A    between atoms: N_1  and  S_2
REMARK    2  A    between atoms: S_2  and  C_5
REMARK    3  A    between atoms: C_8  and  N_9
REMARK    4  A    between atoms: N_12  and  CA_13
REMARK    5  A    between atoms: CA_13  and  CB_14
REMARK    6  A    between atoms: CA_13  and  C_21
REMARK    7  A    between atoms: CB_14  and  CG_15
REMARK    8  A    between atoms: C_21  and  OXT_23
REMARK                            x       y       z     vdW  Elec       q    Type
REMARK                         _______ _______ _______ _____ _____    ______ ____
ROOT
ATOM      1  N   UNK A   0       2.745   7.287  17.822  0.00  0.00    +0.000 N 
ATOM      2  C   UNK A   0       3.599   6.298  18.254  0.00  0.00    +0.000 C 
ATOM      3  O   UNK A   0       4.024   6.151  19.393  0.00  0.00    +0.000 OA
ATOM      4  N   PHE A   1       3.893   5.387  17.272  0.00  0.00    +0.000 N 
ATOM      5  H   UNK A   0       2.576   7.334  16.828  0.00  0.00    +0.000 HD
ATOM      6  H   PHE A   1       3.877   5.675  16.300  0.00  0.00    +0.000 HD
ENDROOT
BRANCH   1  10
ATOM      7  C   UNK A   0       0.814  10.059  20.349  0.00  0.00    +0.000 A 
ATOM      8  C   UNK A   0       1.106  10.432  19.040  0.00  0.00    +0.000 A 
ATOM      9  C   UNK A   0       1.737   9.517  18.190  0.00  0.00    +0.000 A 
ATOM     10  C   UNK A   0       2.084   8.236  18.634  0.00  0.00    +0.000 A 
ATOM     11  C   UNK A   0       1.793   7.883  19.961  0.00  0.00    +0.000 A 
ATOM     12  C   UNK A   0       1.153   8.789  20.817  0.00  0.00    +0.000 A 
BRANCH   7  13
ATOM     13  S   UNK A   0       0.009  11.220  21.412  0.00  0.00    +0.000 S 
ATOM     14  O   UNK A   0      -1.370  11.345  21.005  0.00  0.00    +0.000 OA
ATOM     15  O   UNK A   0       0.872  12.365  21.605  0.00  0.00    +0.000 OA
BRANCH  13  16
ATOM     16  N   UNK A   0      -0.000  10.425  22.891  0.00  0.00    +0.000 NA
ATOM     17  H   UNK A   0      -0.304  11.070  23.622  0.00  0.00    +0.000 HD
ATOM     18  H   UNK A   0       0.913  10.008  23.068  0.00  0.00    +0.000 HD
ENDBRANCH  13  16
ENDBRANCH   7  13
ENDBRANCH   1  10
BRANCH   4  19
ATOM     19  CA  PHE A   1       4.683   4.187  17.579  0.00  0.00    +0.000 C 
BRANCH  19  20
ATOM     20  C   PHE A   1       5.795   4.036  16.534  0.00  0.00    +0.000 C 
ATOM     21  O   PHE A   1       5.578   3.916  15.332  0.00  0.00    +0.000 OA
BRANCH  20  22
ATOM     22  OXT PHE A   1       7.055   4.134  17.018  0.00  0.00    +0.000 OA
ATOM     23  HXT PHE A   1       7.217   4.877  17.630  0.00  0.00    +0.000 HD
ENDBRANCH  20  22
ENDBRANCH  19  20
BRANCH  19  24
ATOM     24  CB  PHE A   1       3.825   2.915  17.719  0.00  0.00    +0.000 C 
BRANCH  24  25
ATOM     25  CG  PHE A   1       2.934   2.854  18.938  0.00  0.00    +0.000 A 
ATOM     26  CD1 PHE A   1       3.477   2.660  20.215  0.00  0.00    +0.000 A 
ATOM     27  CE1 PHE A   1       2.652   2.680  21.342  0.00  0.00    +0.000 A 
ATOM     28  CZ  PHE A   1       1.282   2.885  21.203  0.00  0.00    +0.000 A 
ATOM     29  CE2 PHE A   1       0.728   3.050  19.935  0.00  0.00    +0.000 A 
ATOM     30  CD2 PHE A   1       1.549   3.031  18.808  0.00  0.00    +0.000 A 
ENDBRANCH  24  25
ENDBRANCH  19  24
ENDBRANCH   4  19
TORSDOF 8
ENDMDL
MODEL 5
REMARK VINA RESULT:      -7.8      2.397      3.939
REMARK  Name = 
REMARK  8 active torsions:
REMARK  status: ('A' for Active; 'I' for Inactive)
REMARK    1  A    between atoms: N_1  and  S_2
REMARK    2  A    between atoms: S_2  and  C_5
REMARK    3  A    between atoms: C_8  and  N_9
REMARK    4  A    between atoms: N_12  and  CA_13
REMARK    5  A    between atoms: CA_13  and  CB_14
REMARK    6  A    between atoms: CA_13  and  C_21
REMARK    7  A    between atoms: CB_14  and  CG_15
REMARK    8  A    between atoms: C_21  and  OXT_23
REMARK                            x       y       z     vdW  Elec       q    Type
REMARK                         _______ _______ _______ _____ _____    ______ ____
ROOT
ATOM      1  N   UNK A   0       2.665   6.650  19.829  0.00  0.00    +0.000 N 
ATOM      2  C   UNK A   0       2.702   5.613  18.925  0.00  0.00    +0.000 C 
ATOM      3  O   UNK A   0       2.020   5.507  17.913  0.00  0.00    +0.000 OA
ATOM      4  N   PHE A   1       3.672   4.689  19.218  0.00  0.00    +0.000 N 
ATOM      5  H   UNK A   0       3.213   6.534  20.670  0.00  0.00    +0.000 HD
ATOM      6  H   PHE A   1       3.961   4.553  20.180  0.00  0.00    +0.000 HD
ENDROOT
BRANCH   1  10
ATOM      7  C   UNK A   0       0.505  10.262  19.544  0.00  0.00    +0.000 A 
ATOM      8  C   UNK A   0       1.237   9.828  18.442  0.00  0.00    +0.000 A 
ATOM      9  C   UNK A   0       1.949   8.626  18.522  0.00  0.00    +0.000 A 
ATOM     10  C   UNK A   0       1.942   7.856  19.691  0.00  0.00    +0.000 A 
ATOM     11  C   UNK A   0       1.210   8.317  20.796  0.00  0.00    +0.000 A 
ATOM     12  C   UNK A   0       0.486   9.515  20.722  0.00  0.00    +0.000 A 
BRANCH   7  13
ATOM     13  S   UNK A   0      -0.397  11.778  19.430  0.00  0.00    +0.000 S 
ATOM     14  O   UNK A   0       0.534  12.879  19.497  0.00  0.00    +0.000 OA
ATOM     15  O   UNK A   0      -1.570  11.698  20.274  0.00  0.00    +0.000 OA
BRANCH  13  16
ATOM     16  N   UNK A   0      -0.985  11.745  17.858  0.00  0.00    +0.000 NA
ATOM     17  H   UNK A   0      -1.962  12.044  17.854  0.00  0.00    +0.000 HD
ATOM     18  H   UNK A   0      -0.839  10.823  17.451  0.00  0.00    +0.000 HD
ENDBRANCH  13  16
ENDBRANCH   7  13
ENDBRANCH   1  10
BRANCH   4  19
ATOM     19  CA  PHE A   1       3.950   3.581  18.295  0.00  0.00    +0.000 C 
BRANCH  19  20
ATOM     20  C   PHE A   1       4.313   2.331  19.105  0.00  0.00    +0.000 C 
ATOM     21  O   PHE A   1       4.805   2.376  20.230  0.00  0.00    +0.000 OA
BRANCH  20  22
ATOM     22  OXT PHE A   1       3.971   1.154  18.531  0.00  0.00    +0.000 OA
ATOM     23  HXT PHE A   1       3.577   0.490  19.129  0.00  0.00    +0.000 HD
ENDBRANCH  20  22
ENDBRANCH  19  20
BRANCH  19  24
ATOM     24  CB  PHE A   1       5.012   3.927  17.232  0.00  0.00    +0.000 C 
BRANCH  24  25
ATOM     25  CG  PHE A   1       5.956   5.052  17.589  0.00  0.00    +0.000 A 
ATOM     26  CD1 PHE A   1       6.976   4.861  18.530  0.00  0.00    +0.000 A 
ATOM     27  CE1 PHE A   1       7.889   5.883  18.797  0.00  0.00    +0.000 A 
ATOM     28  CZ  PHE A   1       7.786   7.104  18.133  0.00  0.00    +0.000 A 
ATOM     29  CE2 PHE A   1       6.759   7.313  17.217  0.00  0.00    +0.000 A 
ATOM     30  CD2 PHE A   1       5.845   6.294  16.948  0.00  0.00    +0.000 A 
ENDBRANCH  24  25
ENDBRANCH  19  24
ENDBRANCH   4  19
TORSDOF 8
ENDMDL
MODEL 6
REMARK VINA RESULT:      -7.8      2.536      4.027
REMARK  Name = 
REMARK  8 active torsions:
REMARK  status: ('A' for Active; 'I' for Inactive)
REMARK    1  A    between atoms: N_1  and  S_2
REMARK    2  A    between atoms: S_2  and  C_5
REMARK    3  A    between atoms: C_8  and  N_9
REMARK    4  A    between atoms: N_12  and  CA_13
REMARK    5  A    between atoms: CA_13  and  CB_14
REMARK    6  A    between atoms: CA_13  and  C_21
REMARK    7  A    between atoms: CB_14  and  CG_15
REMARK    8  A    between atoms: C_21  and  OXT_23
REMARK                            x       y       z     vdW  Elec       q    Type
REMARK                         _______ _______ _______ _____ _____    ______ ____
ROOT
ATOM      1  N   UNK A   0       2.615   7.030  20.036  0.00  0.00    +0.000 N 
ATOM      2  C   UNK A   0       2.588   5.822  19.379  0.00  0.00    +0.000 C 
ATOM      3  O   UNK A   0       1.772   5.471  18.535  0.00  0.00    +0.000 OA
ATOM      4  N   PHE A   1       3.654   5.021  19.700  0.00  0.00    +0.000 N 
ATOM      5  H   UNK A   0       3.289   7.122  20.784  0.00  0.00    +0.000 HD
ATOM      6  H   PHE A   1       4.092   5.111  20.610  0.00  0.00    +0.000 HD
ENDROOT
BRANCH   1  10
ATOM      7  C   UNK A   0       0.180  10.347  19.104  0.00  0.00    +0.000 A 
ATOM      8  C   UNK A   0       0.102   9.792  20.378  0.00  0.00    +0.000 A 
ATOM      9  C   UNK A   0       0.912   8.699  20.702  0.00  0.00    +0.000 A 
ATOM     10  C   UNK A   0       1.796   8.150  19.765  0.00  0.00    +0.000 A 
ATOM     11  C   UNK A   0       1.851   8.714  18.482  0.00  0.00    +0.000 A 
ATOM     12  C   UNK A   0       1.050   9.815  18.151  0.00  0.00    +0.000 A 
BRANCH   7  13
ATOM     13  S   UNK A   0      -0.842  11.734  18.707  0.00  0.00    +0.000 S 
ATOM     14  O   UNK A   0       0.004  12.859  18.389  0.00  0.00    +0.000 OA
ATOM     15  O   UNK A   0      -1.922  11.818  19.666  0.00  0.00    +0.000 OA
BRANCH  13  16
ATOM     16  N   UNK A   0      -1.569  11.261  17.269  0.00  0.00    +0.000 NA
ATOM     17  H   UNK A   0      -1.938  12.083  16.789  0.00  0.00    +0.000 HD
ATOM     18  H   UNK A   0      -2.271  10.546  17.453  0.00  0.00    +0.000 HD
ENDBRANCH  13  16
ENDBRANCH   7  13
ENDBRANCH   1  10
BRANCH   4  19
ATOM     19  CA  PHE A   1       3.868   3.747  19.000  0.00  0.00    +0.000 C 
BRANCH  19  20
ATOM     20  C   PHE A   1       4.130   2.644  20.033  0.00  0.00    +0.000 C 
ATOM     21  O   PHE A   1       3.403   2.440  21.001  0.00  0.00    +0.000 OA
BRANCH  20  22
ATOM     22  OXT PHE A   1       5.180   1.837  19.757  0.00  0.00    +0.000 OA
ATOM     23  HXT PHE A   1       5.966   2.279  19.380  0.00  0.00    +0.000 HD
ENDBRANCH  20  22
ENDBRANCH  19  20
BRANCH  19  24
ATOM     24  CB  PHE A   1       4.968   3.824  17.923  0.00  0.00    +0.000 C 
BRANCH  24  25
ATOM     25  CG  PHE A   1       5.895   5.013  18.014  0.00  0.00    +0.000 A 
ATOM     26  CD1 PHE A   1       6.974   5.015  18.908  0.00  0.00    +0.000 A 
ATOM     27  CE1 PHE A   1       7.868   6.088  18.930  0.00  0.00    +0.000 A 
ATOM     28  CZ  PHE A   1       7.688   7.167  18.069  0.00  0.00    +0.000 A 
ATOM     29  CE2 PHE A   1       6.602   7.188  17.196  0.00  0.00    +0.000 A 
ATOM     30  CD2 PHE A   1       5.707   6.118  17.171  0.00  0.00    +0.000 A 
ENDBRANCH  24  25
ENDBRANCH  19  24
ENDBRANCH   4  19
TORSDOF 8
ENDMDL
MODEL 7
REMARK VINA RESULT:      -7.7      0.097      1.369
REMARK  Name = 
REMARK  8 active torsions:
REMARK  status: ('A' for Active; 'I' for Inactive)
REMARK    1  A    between atoms: N_1  and  S_2
REMARK    2  A    between atoms: S_2  and  C_5
REMARK    3  A    between atoms: C_8  and  N_9
REMARK    4  A    between atoms: N_12  and  CA_13
REMARK    5  A    between atoms: CA_13  and  CB_14
REMARK    6  A    between atoms: CA_13  and  C_21
REMARK    7  A    between atoms: CB_14  and  CG_15
REMARK    8  A    between atoms: C_21  and  OXT_23
REMARK                            x       y       z     vdW  Elec       q    Type
REMARK                         _______ _______ _______ _____ _____    ______ ____
ROOT
ATOM      1  N   UNK A   0       2.707   7.275  17.890  0.00  0.00    +0.000 N 
ATOM      2  C   UNK A   0       3.596   6.303  18.289  0.00  0.00    +0.000 C 
ATOM      3  O   UNK A   0       4.047   6.149  19.417  0.00  0.00    +0.000 OA
ATOM      4  N   PHE A   1       3.895   5.417  17.285  0.00  0.00    +0.000 N 
ATOM      5  H   UNK A   0       2.518   7.334  16.900  0.00  0.00    +0.000 HD
ATOM      6  H   PHE A   1       3.852   5.720  16.319  0.00  0.00    +0.000 HD
ENDROOT
BRANCH   1  10
ATOM      7  C   UNK A   0       0.752   9.953  20.499  0.00  0.00    +0.000 A 
ATOM      8  C   UNK A   0       1.006  10.353  19.191  0.00  0.00    +0.000 A 
ATOM      9  C   UNK A   0       1.644   9.470  18.313  0.00  0.00    +0.000 A 
ATOM     10  C   UNK A   0       2.037   8.192  18.731  0.00  0.00    +0.000 A 
ATOM     11  C   UNK A   0       1.786   7.812  20.057  0.00  0.00    +0.000 A 
ATOM     12  C   UNK A   0       1.138   8.686  20.941  0.00  0.00    +0.000 A 
BRANCH   7  13
ATOM     13  S   UNK A   0      -0.062  11.073  21.598  0.00  0.00    +0.000 S 
ATOM     14  O   UNK A   0       0.057  10.571  22.946  0.00  0.00    +0.000 OA
ATOM     15  O   UNK A   0      -1.329  11.467  21.022  0.00  0.00    +0.000 OA
BRANCH  13  16
ATOM     16  N   UNK A   0       0.903  12.445  21.513  0.00  0.00    +0.000 NA
ATOM     17  H   UNK A   0       0.347  13.267  21.753  0.00  0.00    +0.000 HD
ATOM     18  H   UNK A   0       1.344  12.504  20.596  0.00  0.00    +0.000 HD
ENDBRANCH  13  16
ENDBRANCH   7  13
ENDBRANCH   1  10
BRANCH   4  19
ATOM     19  CA  PHE A   1       4.723   4.234  17.558  0.00  0.00    +0.000 C 
BRANCH  19  20
ATOM     20  C   PHE A   1       5.766   4.083  16.444  0.00  0.00    +0.000 C 
ATOM     21  O   PHE A   1       5.477   4.032  15.252  0.00  0.00    +0.000 OA
BRANCH  20  22
ATOM     22  OXT PHE A   1       7.054   4.101  16.858  0.00  0.00    +0.000 OA
ATOM     23  HXT PHE A   1       7.200   4.402  17.775  0.00  0.00    +0.000 HD
ENDBRANCH  20  22
ENDBRANCH  19  20
BRANCH  19  24
ATOM     24  CB  PHE A   1       3.896   2.951  17.772  0.00  0.00    +0.000 C 
BRANCH  24  25
ATOM     25  CG  PHE A   1       2.976   2.954  18.970  0.00  0.00    +0.000 A 
ATOM     26  CD1 PHE A   1       1.597   3.144  18.815  0.00  0.00    +0.000 A 
ATOM     27  CE1 PHE A   1       0.746   3.072  19.920  0.00  0.00    +0.000 A 
ATOM     28  CZ  PHE A   1       1.266   2.816  21.187  0.00  0.00    +0.000 A 
ATOM     29  CE2 PHE A   1       2.639   2.654  21.356  0.00  0.00    +0.000 A 
ATOM     30  CD2 PHE A   1       3.491   2.726  20.254  0.00  0.00    +0.000 A 
ENDBRANCH  24  25
ENDBRANCH  19  24
ENDBRANCH   4  19
TORSDOF 8
ENDMDL
MODEL 8
REMARK VINA RESULT:      -7.7      2.255      3.920
REMARK  Name = 
REMARK  8 active torsions:
REMARK  status: ('A' for Active; 'I' for Inactive)
REMARK    1  A    between atoms: N_1  and  S_2
REMARK    2  A    between atoms: S_2  and  C_5
REMARK    3  A    between atoms: C_8  and  N_9
REMARK    4  A    between atoms: N_12  and  CA_13
REMARK    5  A    between atoms: CA_13  and  CB_14
REMARK    6  A    between atoms: CA_13  and  C_21
REMARK    7  A    between atoms: CB_14  and  CG_15
REMARK    8  A    between atoms: C_21  and  OXT_23
REMARK                            x       y       z     vdW  Elec       q    Type
REMARK                         _______ _______ _______ _____ _____    ______ ____
ROOT
ATOM      1  N   UNK A   0       2.732   6.405  19.893  0.00  0.00    +0.000 N 
ATOM      2  C   UNK A   0       2.664   5.345  19.018  0.00  0.00    +0.000 C 
ATOM      3  O   UNK A   0       1.891   5.228  18.075  0.00  0.00    +0.000 OA
ATOM      4  N   PHE A   1       3.639   4.407  19.247  0.00  0.00    +0.000 N 
ATOM      5  H   UNK A   0       3.351   6.298  20.684  0.00  0.00    +0.000 HD
ATOM      6  H   PHE A   1       4.011   4.289  20.183  0.00  0.00    +0.000 HD
ENDROOT
BRANCH   1  10
ATOM      7  C   UNK A   0       0.621  10.052  19.708  0.00  0.00    +0.000 A 
ATOM      8  C   UNK A   0       1.315   9.620  18.582  0.00  0.00    +0.000 A 
ATOM      9  C   UNK A   0       2.010   8.406  18.629  0.00  0.00    +0.000 A 
ATOM     10  C   UNK A   0       2.024   7.623  19.789  0.00  0.00    +0.000 A 
ATOM     11  C   UNK A   0       1.329   8.083  20.918  0.00  0.00    +0.000 A 
ATOM     12  C   UNK A   0       0.622   9.292  20.878  0.00  0.00    +0.000 A 
BRANCH   7  13
ATOM     13  S   UNK A   0      -0.261  11.583  19.637  0.00  0.00    +0.000 S 
ATOM     14  O   UNK A   0      -1.662  11.303  19.434  0.00  0.00    +0.000 OA
ATOM     15  O   UNK A   0       0.474  12.517  18.812  0.00  0.00    +0.000 OA
BRANCH  13  16
ATOM     16  N   UNK A   0      -0.114  12.171  21.202  0.00  0.00    +0.000 NA
ATOM     17  H   UNK A   0      -0.498  11.490  21.859  0.00  0.00    +0.000 HD
ATOM     18  H   UNK A   0      -0.545  13.092  21.270  0.00  0.00    +0.000 HD
ENDBRANCH  13  16
ENDBRANCH   7  13
ENDBRANCH   1  10
BRANCH   4  19
ATOM     19  CA  PHE A   1       3.808   3.269  18.333  0.00  0.00    +0.000 C 
BRANCH  19  20
ATOM     20  C   PHE A   1       4.326   2.062  19.124  0.00  0.00    +0.000 C 
ATOM     21  O   PHE A   1       4.801   2.149  20.253  0.00  0.00    +0.000 OA
BRANCH  20  22
ATOM     22  OXT PHE A   1       4.140   0.862  18.527  0.00  0.00    +0.000 OA
ATOM     23  HXT PHE A   1       3.723   0.174  19.080  0.00  0.00    +0.000 HD
ENDBRANCH  20  22
ENDBRANCH  19  20
BRANCH  19  24
ATOM     24  CB  PHE A   1       4.688   3.598  17.111  0.00  0.00    +0.000 C 
BRANCH  24  25
ATOM     25  CG  PHE A   1       5.652   4.749  17.286  0.00  0.00    +0.000 A 
ATOM     26  CD1 PHE A   1       5.382   6.003  16.723  0.00  0.00    +0.000 A 
ATOM     27  CE1 PHE A   1       6.243   7.078  16.953  0.00  0.00    +0.000 A 
ATOM     28  CZ  PHE A   1       7.380   6.909  17.739  0.00  0.00    +0.000 A 
ATOM     29  CE2 PHE A   1       7.672   5.659  18.280  0.00  0.00    +0.000 A 
ATOM     30  CD2 PHE A   1       6.816   4.583  18.052  0.00  0.00    +0.000 A 
ENDBRANCH  24  25
ENDBRANCH  19  24
ENDBRANCH   4  19
TORSDOF 8
ENDMDL
MODEL 9
REMARK VINA RESULT:      -7.7      2.484      4.109
REMARK  Name = 
REMARK  8 active torsions:
REMARK  status: ('A' for Active; 'I' for Inactive)
REMARK    1  A    between atoms: N_1  and  S_2
REMARK    2  A    between atoms: S_2  and  C_5
REMARK    3  A    between atoms: C_8  and  N_9
REMARK    4  A    between atoms: N_12  and  CA_13
REMARK    5  A    between atoms: CA_13  and  CB_14
REMARK    6  A    between atoms: CA_13  and  C_21
REMARK    7  A    between atoms: CB_14  and  CG_15
REMARK    8  A    between atoms: C_21  and  OXT_23
REMARK                            x       y       z     vdW  Elec       q    Type
REMARK                         _______ _______ _______ _____ _____    ______ ____
ROOT
ATOM      1  N   UNK A   0       2.366   7.188  20.256  0.00  0.00    +0.000 N 
ATOM      2  C   UNK A   0       2.673   6.110  19.458  0.00  0.00    +0.000 C 
ATOM      3  O   UNK A   0       2.191   5.855  18.362  0.00  0.00    +0.000 OA
ATOM      4  N   PHE A   1       3.679   5.336  19.980  0.00  0.00    +0.000 N 
ATOM      5  H   UNK A   0       2.771   7.195  21.181  0.00  0.00    +0.000 HD
ATOM      6  H   PHE A   1       3.812   5.298  20.984  0.00  0.00    +0.000 HD
ENDROOT
BRANCH   1  10
ATOM      7  C   UNK A   0      -0.106  10.478  19.327  0.00  0.00    +0.000 A 
ATOM      8  C   UNK A   0       0.802  10.029  18.373  0.00  0.00    +0.000 A 
ATOM      9  C   UNK A   0       1.620   8.932  18.666  0.00  0.00    +0.000 A 
ATOM     10  C   UNK A   0       1.544   8.282  19.904  0.00  0.00    +0.000 A 
ATOM     11  C   UNK A   0       0.632   8.758  20.858  0.00  0.00    +0.000 A 
ATOM     12  C   UNK A   0      -0.198   9.851  20.570  0.00  0.00    +0.000 A 
BRANCH   7  13
ATOM     13  S   UNK A   0      -1.140  11.860  18.944  0.00  0.00    +0.000 S 
ATOM     14  O   UNK A   0      -2.388  11.372  18.409  0.00  0.00    +0.000 OA
ATOM     15  O   UNK A   0      -0.351  12.875  18.280  0.00  0.00    +0.000 OA
BRANCH  13  16
ATOM     16  N   UNK A   0      -1.487  12.497  20.459  0.00  0.00    +0.000 NA
ATOM     17  H   UNK A   0      -1.484  11.747  21.152  0.00  0.00    +0.000 HD
ATOM     18  H   UNK A   0      -2.362  13.018  20.425  0.00  0.00    +0.000 HD
ENDBRANCH  13  16
ENDBRANCH   7  13
ENDBRANCH   1  10
BRANCH   4  19
ATOM     19  CA  PHE A   1       4.234   4.215  19.209  0.00  0.00    +0.000 C 
BRANCH  19  20
ATOM     20  C   PHE A   1       4.069   2.920  20.014  0.00  0.00    +0.000 C 
ATOM     21  O   PHE A   1       3.098   2.690  20.729  0.00  0.00    +0.000 OA
BRANCH  20  22
ATOM     22  OXT PHE A   1       5.034   1.993  19.814  0.00  0.00    +0.000 OA
ATOM     23  HXT PHE A   1       4.729   1.066  19.778  0.00  0.00    +0.000 HD
ENDBRANCH  20  22
ENDBRANCH  19  20
BRANCH  19  24
ATOM     24  CB  PHE A   1       5.689   4.451  18.758  0.00  0.00    +0.000 C 
BRANCH  24  25
ATOM     25  CG  PHE A   1       5.908   4.544  17.266  0.00  0.00    +0.000 A 
ATOM     26  CD1 PHE A   1       7.168   4.866  16.745  0.00  0.00    +0.000 A 
ATOM     27  CE1 PHE A   1       7.378   4.877  15.364  0.00  0.00    +0.000 A 
ATOM     28  CZ  PHE A   1       6.332   4.574  14.495  0.00  0.00    +0.000 A 
ATOM     29  CE2 PHE A   1       5.068   4.281  15.003  0.00  0.00    +0.000 A 
ATOM     30  CD2 PHE A   1       4.856   4.270  16.381  0.00  0.00    +0.000 A 
ENDBRANCH  24  25
ENDBRANCH  19  24
ENDBRANCH   4  19
TORSDOF 8
ENDMDL
