MODEL 1
REMARK VINA RESULT:      -7.7      0.000      0.000
REMARK  Name = 
REMARK  10 active torsions:
REMARK  status: ('A' for Active; 'I' for Inactive)
REMARK    1  A    between atoms: C_1  and  O_2
REMARK    2  A    between atoms: O_2  and  C_3
REMARK    3  A    between atoms: C_9  and  C_10
REMARK    4  A    between atoms: C_10  and  C_11
REMARK    5  A    between atoms: N_15  and  C_16
REMARK    6  A    between atoms: C_16  and  C_17
REMARK    7  A    between atoms: N_19  and  C_20
REMARK    8  A    between atoms: N_19  and  C_21
REMARK    9  A    between atoms: C_21  and  C_22
REMARK   10  A    between atoms: C_21  and  C_23
REMARK                            x       y       z     vdW  Elec       q    Type
REMARK                         _______ _______ _______ _____ _____    ______ ____
ROOT
ATOM      1  C   UNL     1       1.585   8.916  19.113  0.00  0.00    +0.000 A 
ATOM      2  N   UNL     1       1.968   9.678  18.106  0.00  0.00    +0.000 NA
ATOM      3  N   UNL     1       2.772   8.907  17.310  0.00  0.00    +0.000 NA
ATOM      4  N   UNL     1       2.895   7.687  17.806  0.00  0.00    +0.000 NA
ATOM      5  N   UNL     1       2.138   7.671  18.923  0.00  0.00    +0.000 N 
ENDROOT
BRANCH   1   6
ATOM      6  C   UNL     1       0.659   9.329  20.203  0.00  0.00    +0.000 C 
BRANCH   6  13
ATOM      7  C   UNL     1      -0.915  11.297  20.595  0.00  0.00    +0.000 A 
ATOM      8  C   UNL     1      -1.954  12.132  20.166  0.00  0.00    +0.000 A 
ATOM      9  C   UNL     1      -2.555  11.933  18.921  0.00  0.00    +0.000 A 
ATOM     10  C   UNL     1      -2.106  10.908  18.095  0.00  0.00    +0.000 A 
ATOM     11 BR   UNL     1      -2.943  10.623  16.424  0.00  0.00    +0.000 Br
ATOM     12  C   UNL     1      -1.053  10.087  18.500  0.00  0.00    +0.000 A 
ATOM     13  C   UNL     1      -0.449  10.266  19.758  0.00  0.00    +0.000 A 
BRANCH   7  15
ATOM     14  C   UNL     1      -1.040  11.065  22.957  0.00  0.00    +0.000 C 
ATOM     15  O   UNL     1      -0.286  11.417  21.805  0.00  0.00    +0.000 OA
ENDBRANCH   7  15
ENDBRANCH   6  13
ENDBRANCH   1   6
BRANCH   5  16
ATOM     16  C   UNL     1       2.192   6.499  19.775  0.00  0.00    +0.000 C 
BRANCH  16  17
ATOM     17  C   UNL     1       3.309   5.529  19.433  0.00  0.00    +0.000 C 
ATOM     18  O   UNL     1       4.436   5.663  19.922  0.00  0.00    +0.000 OA
ATOM     19  N   UNL     1       2.999   4.467  18.566  0.00  0.00    +0.000 N 
ATOM     20  C   UNL     1       1.690   4.290  17.945  0.00  0.00    +0.000 C 
BRANCH  19  21
ATOM     21  C   UNL     1       4.051   3.457  18.283  0.00  0.00    +0.000 C 
ATOM     22  C   UNL     1       3.512   2.066  17.894  0.00  0.00    +0.000 C 
BRANCH  21  23
ATOM     23  C   UNL     1       5.075   3.968  17.270  0.00  0.00    +0.000 A 
ATOM     24  C   UNL     1       4.682   4.147  15.932  0.00  0.00    +0.000 A 
ATOM     25  C   UNL     1       5.573   4.639  14.976  0.00  0.00    +0.000 A 
ATOM     26  C   UNL     1       6.872   4.969  15.344  0.00  0.00    +0.000 A 
ATOM     27  C   UNL     1       7.281   4.804  16.666  0.00  0.00    +0.000 A 
ATOM     28  C   UNL     1       6.393   4.300  17.621  0.00  0.00    +0.000 A 
ENDBRANCH  21  23
ENDBRANCH  19  21
ENDBRANCH  16  17
ENDBRANCH   5  16
TORSDOF 7
ENDMDL
MODEL 2
REMARK VINA RESULT:      -7.5      2.289      3.776
REMARK  Name = 
REMARK  10 active torsions:
REMARK  status: ('A' for Active; 'I' for Inactive)
REMARK    1  A    between atoms: C_1  and  O_2
REMARK    2  A    between atoms: O_2  and  C_3
REMARK    3  A    between atoms: C_9  and  C_10
REMARK    4  A    between atoms: C_10  and  C_11
REMARK    5  A    between atoms: N_15  and  C_16
REMARK    6  A    between atoms: C_16  and  C_17
REMARK    7  A    between atoms: N_19  and  C_20
REMARK    8  A    between atoms: N_19  and  C_21
REMARK    9  A    between atoms: C_21  and  C_22
REMARK   10  A    between atoms: C_21  and  C_23
REMARK                            x       y       z     vdW  Elec       q    Type
REMARK                         _______ _______ _______ _____ _____    ______ ____
ROOT
ATOM      1  C   UNL     1      -0.286  11.091  18.860  0.00  0.00    +0.000 A 
ATOM      2  N   UNL     1      -0.205  12.383  18.599  0.00  0.00    +0.000 NA
ATOM      3  N   UNL     1       1.125  12.704  18.601  0.00  0.00    +0.000 NA
ATOM      4  N   UNL     1       1.866  11.640  18.861  0.00  0.00    +0.000 NA
ATOM      5  N   UNL     1       0.997  10.617  19.003  0.00  0.00    +0.000 N 
ENDROOT
BRANCH   1   6
ATOM      6  C   UNL     1      -1.546  10.298  18.909  0.00  0.00    +0.000 C 
BRANCH   6  13
ATOM      7  C   UNL     1      -3.695  11.423  18.122  0.00  0.00    +0.000 A 
ATOM      8  C   UNL     1      -4.616  11.719  17.110  0.00  0.00    +0.000 A 
ATOM      9  C   UNL     1      -4.425  11.237  15.813  0.00  0.00    +0.000 A 
ATOM     10  C   UNL     1      -3.301  10.469  15.523  0.00  0.00    +0.000 A 
ATOM     11 BR   UNL     1      -3.062   9.792  13.773  0.00  0.00    +0.000 Br
ATOM     12  C   UNL     1      -2.362  10.191  16.516  0.00  0.00    +0.000 A 
ATOM     13  C   UNL     1      -2.551  10.658  17.830  0.00  0.00    +0.000 A 
BRANCH   7  15
ATOM     14  C   UNL     1      -4.912  12.707  19.709  0.00  0.00    +0.000 C 
ATOM     15  O   UNL     1      -3.820  11.846  19.417  0.00  0.00    +0.000 OA
ENDBRANCH   7  15
ENDBRANCH   6  13
ENDBRANCH   1   6
BRANCH   5  16
ATOM     16  C   UNL     1       1.508   9.335  19.445  0.00  0.00    +0.000 C 
BRANCH  16  17
ATOM     17  C   UNL     1       2.090   8.478  18.335  0.00  0.00    +0.000 C 
ATOM     18  O   UNL     1       2.160   8.904  17.177  0.00  0.00    +0.000 OA
ATOM     19  N   UNL     1       2.564   7.202  18.685  0.00  0.00    +0.000 N 
ATOM     20  C   UNL     1       2.473   6.650  20.033  0.00  0.00    +0.000 C 
BRANCH  19  21
ATOM     21  C   UNL     1       3.214   6.378  17.634  0.00  0.00    +0.000 C 
ATOM     22  C   UNL     1       4.709   6.682  17.418  0.00  0.00    +0.000 C 
BRANCH  21  23
ATOM     23  C   UNL     1       2.968   4.884  17.847  0.00  0.00    +0.000 A 
ATOM     24  C   UNL     1       1.645   4.413  17.914  0.00  0.00    +0.000 A 
ATOM     25  C   UNL     1       1.369   3.054  18.078  0.00  0.00    +0.000 A 
ATOM     26  C   UNL     1       2.413   2.141  18.171  0.00  0.00    +0.000 A 
ATOM     27  C   UNL     1       3.732   2.586  18.102  0.00  0.00    +0.000 A 
ATOM     28  C   UNL     1       4.009   3.947  17.949  0.00  0.00    +0.000 A 
ENDBRANCH  21  23
ENDBRANCH  19  21
ENDBRANCH  16  17
ENDBRANCH   5  16
TORSDOF 7
ENDMDL
MODEL 3
REMARK VINA RESULT:      -7.5      2.812      8.501
REMARK  Name = 
REMARK  10 active torsions:
REMARK  status: ('A' for Active; 'I' for Inactive)
REMARK    1  A    between atoms: C_1  and  O_2
REMARK    2  A    between atoms: O_2  and  C_3
REMARK    3  A    between atoms: C_9  and  C_10
REMARK    4  A    between atoms: C_10  and  C_11
REMARK    5  A    between atoms: N_15  and  C_16
REMARK    6  A    between atoms: C_16  and  C_17
REMARK    7  A    between atoms: N_19  and  C_20
REMARK    8  A    between atoms: N_19  and  C_21
REMARK    9  A    between atoms: C_21  and  C_22
REMARK   10  A    between atoms: C_21  and  C_23
REMARK                            x       y       z     vdW  Elec       q    Type
REMARK                         _______ _______ _______ _____ _____    ______ ____
ROOT
ATOM      1  C   UNL     1       3.356   4.009  17.691  0.00  0.00    +0.000 A 
ATOM      2  N   UNL     1       2.425   3.180  17.257  0.00  0.00    +0.000 NA
ATOM      3  N   UNL     1       1.241   3.866  17.284  0.00  0.00    +0.000 NA
ATOM      4  N   UNL     1       1.420   5.099  17.728  0.00  0.00    +0.000 NA
ATOM      5  N   UNL     1       2.745   5.210  17.965  0.00  0.00    +0.000 N 
ENDROOT
BRANCH   1   6
ATOM      6  C   UNL     1       4.809   3.701  17.784  0.00  0.00    +0.000 C 
BRANCH   6  13
ATOM      7  C   UNL     1       6.780   4.849  16.643  0.00  0.00    +0.000 A 
ATOM      8  C   UNL     1       7.482   5.200  15.484  0.00  0.00    +0.000 A 
ATOM      9  C   UNL     1       7.013   4.814  14.226  0.00  0.00    +0.000 A 
ATOM     10  C   UNL     1       5.847   4.060  14.128  0.00  0.00    +0.000 A 
ATOM     11 BR   UNL     1       5.199   3.565  12.422  0.00  0.00    +0.000 Br
ATOM     12  C   UNL     1       5.154   3.681  15.278  0.00  0.00    +0.000 A 
ATOM     13  C   UNL     1       5.607   4.077  16.549  0.00  0.00    +0.000 A 
BRANCH   7  15
ATOM     14  C   UNL     1       7.457   6.575  18.129  0.00  0.00    +0.000 C 
ATOM     15  O   UNL     1       7.166   5.202  17.908  0.00  0.00    +0.000 OA
ENDBRANCH   7  15
ENDBRANCH   6  13
ENDBRANCH   1   6
BRANCH   5  16
ATOM     16  C   UNL     1       3.230   6.416  18.607  0.00  0.00    +0.000 C 
BRANCH  16  17
ATOM     17  C   UNL     1       2.224   7.082  19.528  0.00  0.00    +0.000 C 
ATOM     18  O   UNL     1       1.831   6.513  20.553  0.00  0.00    +0.000 OA
ATOM     19  N   UNL     1       1.786   8.371  19.181  0.00  0.00    +0.000 N 
ATOM     20  C   UNL     1       2.203   9.065  17.967  0.00  0.00    +0.000 C 
BRANCH  19  21
ATOM     21  C   UNL     1       0.867   9.078  20.110  0.00  0.00    +0.000 C 
ATOM     22  C   UNL     1       1.468   9.380  21.497  0.00  0.00    +0.000 C 
BRANCH  21  23
ATOM     23  C   UNL     1       0.264  10.330  19.473  0.00  0.00    +0.000 A 
ATOM     24  C   UNL     1      -0.916  10.210  18.716  0.00  0.00    +0.000 A 
ATOM     25  C   UNL     1      -1.521  11.328  18.139  0.00  0.00    +0.000 A 
ATOM     26  C   UNL     1      -0.960  12.588  18.314  0.00  0.00    +0.000 A 
ATOM     27  C   UNL     1       0.206  12.730  19.063  0.00  0.00    +0.000 A 
ATOM     28  C   UNL     1       0.819  11.609  19.632  0.00  0.00    +0.000 A 
ENDBRANCH  21  23
ENDBRANCH  19  21
ENDBRANCH  16  17
ENDBRANCH   5  16
TORSDOF 7
ENDMDL
MODEL 4
REMARK VINA RESULT:      -7.4      1.801      2.286
REMARK  Name = 
REMARK  10 active torsions:
REMARK  status: ('A' for Active; 'I' for Inactive)
REMARK    1  A    between atoms: C_1  and  O_2
REMARK    2  A    between atoms: O_2  and  C_3
REMARK    3  A    between atoms: C_9  and  C_10
REMARK    4  A    between atoms: C_10  and  C_11
REMARK    5  A    between atoms: N_15  and  C_16
REMARK    6  A    between atoms: C_16  and  C_17
REMARK    7  A    between atoms: N_19  and  C_20
REMARK    8  A    between atoms: N_19  and  C_21
REMARK    9  A    between atoms: C_21  and  C_22
REMARK   10  A    between atoms: C_21  and  C_23
REMARK                            x       y       z     vdW  Elec       q    Type
REMARK                         _______ _______ _______ _____ _____    ______ ____
ROOT
ATOM      1  C   UNL     1       1.586   8.928  19.029  0.00  0.00    +0.000 A 
ATOM      2  N   UNL     1       1.943   9.675  18.001  0.00  0.00    +0.000 NA
ATOM      3  N   UNL     1       2.807   8.927  17.249  0.00  0.00    +0.000 NA
ATOM      4  N   UNL     1       2.994   7.735  17.791  0.00  0.00    +0.000 NA
ATOM      5  N   UNL     1       2.217   7.713  18.895  0.00  0.00    +0.000 N 
ENDROOT
BRANCH   1   6
ATOM      6  C   UNL     1       0.615   9.322  20.086  0.00  0.00    +0.000 C 
BRANCH   6  13
ATOM      7  C   UNL     1      -0.991  11.117  19.245  0.00  0.00    +0.000 A 
ATOM      8  C   UNL     1      -1.385  12.457  19.161  0.00  0.00    +0.000 A 
ATOM      9  C   UNL     1      -0.643  13.456  19.795  0.00  0.00    +0.000 A 
ATOM     10  C   UNL     1       0.489  13.112  20.529  0.00  0.00    +0.000 A 
ATOM     11 BR   UNL     1       1.509  14.470  21.360  0.00  0.00    +0.000 Br
ATOM     12  C   UNL     1       0.876  11.777  20.642  0.00  0.00    +0.000 A 
ATOM     13  C   UNL     1       0.146  10.763  19.995  0.00  0.00    +0.000 A 
BRANCH   7  15
ATOM     14  C   UNL     1      -1.892  10.204  17.244  0.00  0.00    +0.000 C 
ATOM     15  O   UNL     1      -1.655  10.084  18.640  0.00  0.00    +0.000 OA
ENDBRANCH   7  15
ENDBRANCH   6  13
ENDBRANCH   1   6
BRANCH   5  16
ATOM     16  C   UNL     1       2.324   6.578  19.790  0.00  0.00    +0.000 C 
BRANCH  16  17
ATOM     17  C   UNL     1       3.417   5.591  19.420  0.00  0.00    +0.000 C 
ATOM     18  O   UNL     1       4.563   5.721  19.865  0.00  0.00    +0.000 OA
ATOM     19  N   UNL     1       3.064   4.521  18.581  0.00  0.00    +0.000 N 
ATOM     20  C   UNL     1       1.731   4.348  18.012  0.00  0.00    +0.000 C 
BRANCH  19  21
ATOM     21  C   UNL     1       4.094   3.496  18.273  0.00  0.00    +0.000 C 
ATOM     22  C   UNL     1       3.527   2.111  17.903  0.00  0.00    +0.000 C 
BRANCH  21  23
ATOM     23  C   UNL     1       5.098   3.990  17.232  0.00  0.00    +0.000 A 
ATOM     24  C   UNL     1       4.669   4.181  15.906  0.00  0.00    +0.000 A 
ATOM     25  C   UNL     1       5.540   4.659  14.926  0.00  0.00    +0.000 A 
ATOM     26  C   UNL     1       6.856   4.962  15.256  0.00  0.00    +0.000 A 
ATOM     27  C   UNL     1       7.301   4.784  16.565  0.00  0.00    +0.000 A 
ATOM     28  C   UNL     1       6.432   4.295  17.544  0.00  0.00    +0.000 A 
ENDBRANCH  21  23
ENDBRANCH  19  21
ENDBRANCH  16  17
ENDBRANCH   5  16
TORSDOF 7
ENDMDL
MODEL 5
REMARK VINA RESULT:      -7.4      2.789      8.460
REMARK  Name = 
REMARK  10 active torsions:
REMARK  status: ('A' for Active; 'I' for Inactive)
REMARK    1  A    between atoms: C_1  and  O_2
REMARK    2  A    between atoms: O_2  and  C_3
REMARK    3  A    between atoms: C_9  and  C_10
REMARK    4  A    between atoms: C_10  and  C_11
REMARK    5  A    between atoms: N_15  and  C_16
REMARK    6  A    between atoms: C_16  and  C_17
REMARK    7  A    between atoms: N_19  and  C_20
REMARK    8  A    between atoms: N_19  and  C_21
REMARK    9  A    between atoms: C_21  and  C_22
REMARK   10  A    between atoms: C_21  and  C_23
REMARK                            x       y       z     vdW  Elec       q    Type
REMARK                         _______ _______ _______ _____ _____    ______ ____
ROOT
ATOM      1  C   UNL     1       3.157   3.665  18.321  0.00  0.00    +0.000 A 
ATOM      2  N   UNL     1       2.276   2.723  18.039  0.00  0.00    +0.000 NA
ATOM      3  N   UNL     1       1.087   3.356  17.793  0.00  0.00    +0.000 NA
ATOM      4  N   UNL     1       1.215   4.666  17.921  0.00  0.00    +0.000 NA
ATOM      5  N   UNL     1       2.513   4.876  18.229  0.00  0.00    +0.000 N 
ENDROOT
BRANCH   1   6
ATOM      6  C   UNL     1       4.600   3.436  18.608  0.00  0.00    +0.000 C 
BRANCH   6  13
ATOM      7  C   UNL     1       6.584   4.883  17.921  0.00  0.00    +0.000 A 
ATOM      8  C   UNL     1       7.423   5.412  16.932  0.00  0.00    +0.000 A 
ATOM      9  C   UNL     1       7.217   5.102  15.586  0.00  0.00    +0.000 A 
ATOM     10  C   UNL     1       6.179   4.246  15.228  0.00  0.00    +0.000 A 
ATOM     11 BR   UNL     1       5.885   3.852  13.402  0.00  0.00    +0.000 Br
ATOM     12  C   UNL     1       5.354   3.690  16.207  0.00  0.00    +0.000 A 
ATOM     13  C   UNL     1       5.542   4.008  17.564  0.00  0.00    +0.000 A 
BRANCH   7  15
ATOM     14  C   UNL     1       7.939   5.729  19.680  0.00  0.00    +0.000 C 
ATOM     15  O   UNL     1       6.712   5.152  19.256  0.00  0.00    +0.000 OA
ENDBRANCH   7  15
ENDBRANCH   6  13
ENDBRANCH   1   6
BRANCH   5  16
ATOM     16  C   UNL     1       2.929   6.219  18.580  0.00  0.00    +0.000 C 
BRANCH  16  17
ATOM     17  C   UNL     1       2.057   6.891  19.626  0.00  0.00    +0.000 C 
ATOM     18  O   UNL     1       1.704   6.281  20.642  0.00  0.00    +0.000 OA
ATOM     19  N   UNL     1       1.696   8.230  19.403  0.00  0.00    +0.000 N 
ATOM     20  C   UNL     1       2.067   8.976  18.205  0.00  0.00    +0.000 C 
BRANCH  19  21
ATOM     21  C   UNL     1       0.914   8.935  20.452  0.00  0.00    +0.000 C 
ATOM     22  C   UNL     1       1.701   9.232  21.743  0.00  0.00    +0.000 C 
BRANCH  21  23
ATOM     23  C   UNL     1       0.231  10.189  19.908  0.00  0.00    +0.000 A 
ATOM     24  C   UNL     1       0.784  11.449  20.197  0.00  0.00    +0.000 A 
ATOM     25  C   UNL     1       0.213  12.621  19.699  0.00  0.00    +0.000 A 
ATOM     26  C   UNL     1      -0.919  12.553  18.895  0.00  0.00    +0.000 A 
ATOM     27  C   UNL     1      -1.481  11.315  18.592  0.00  0.00    +0.000 A 
ATOM     28  C   UNL     1      -0.917  10.142  19.100  0.00  0.00    +0.000 A 
ENDBRANCH  21  23
ENDBRANCH  19  21
ENDBRANCH  16  17
ENDBRANCH   5  16
TORSDOF 7
ENDMDL
MODEL 6
REMARK VINA RESULT:      -7.4      3.116      8.314
REMARK  Name = 
REMARK  10 active torsions:
REMARK  status: ('A' for Active; 'I' for Inactive)
REMARK    1  A    between atoms: C_1  and  O_2
REMARK    2  A    between atoms: O_2  and  C_3
REMARK    3  A    between atoms: C_9  and  C_10
REMARK    4  A    between atoms: C_10  and  C_11
REMARK    5  A    between atoms: N_15  and  C_16
REMARK    6  A    between atoms: C_16  and  C_17
REMARK    7  A    between atoms: N_19  and  C_20
REMARK    8  A    between atoms: N_19  and  C_21
REMARK    9  A    between atoms: C_21  and  C_22
REMARK   10  A    between atoms: C_21  and  C_23
REMARK                            x       y       z     vdW  Elec       q    Type
REMARK                         _______ _______ _______ _____ _____    ______ ____
ROOT
ATOM      1  C   UNL     1       3.201   4.351  18.048  0.00  0.00    +0.000 A 
ATOM      2  N   UNL     1       2.291   3.500  17.612  0.00  0.00    +0.000 NA
ATOM      3  N   UNL     1       1.118   4.196  17.505  0.00  0.00    +0.000 NA
ATOM      4  N   UNL     1       1.283   5.457  17.868  0.00  0.00    +0.000 NA
ATOM      5  N   UNL     1       2.589   5.574  18.189  0.00  0.00    +0.000 N 
ENDROOT
BRANCH   1   6
ATOM      6  C   UNL     1       4.640   4.038  18.265  0.00  0.00    +0.000 C 
BRANCH   6  13
ATOM      7  C   UNL     1       6.523   5.471  17.312  0.00  0.00    +0.000 A 
ATOM      8  C   UNL     1       7.333   5.863  16.240  0.00  0.00    +0.000 A 
ATOM      9  C   UNL     1       7.166   5.289  14.977  0.00  0.00    +0.000 A 
ATOM     10  C   UNL     1       6.198   4.307  14.790  0.00  0.00    +0.000 A 
ATOM     11 BR   UNL     1       5.955   3.555  13.073  0.00  0.00    +0.000 Br
ATOM     12  C   UNL     1       5.403   3.888  15.858  0.00  0.00    +0.000 A 
ATOM     13  C   UNL     1       5.551   4.469  17.130  0.00  0.00    +0.000 A 
BRANCH   7  15
ATOM     14  C   UNL     1       7.829   5.770  19.275  0.00  0.00    +0.000 C 
ATOM     15  O   UNL     1       6.615   5.996  18.573  0.00  0.00    +0.000 OA
ENDBRANCH   7  15
ENDBRANCH   6  13
ENDBRANCH   1   6
BRANCH   5  16
ATOM     16  C   UNL     1       3.045   6.820  18.773  0.00  0.00    +0.000 C 
BRANCH  16  17
ATOM     17  C   UNL     1       2.301   8.049  18.284  0.00  0.00    +0.000 C 
ATOM     18  O   UNL     1       2.396   8.421  17.109  0.00  0.00    +0.000 OA
ATOM     19  N   UNL     1       1.487   8.723  19.210  0.00  0.00    +0.000 N 
ATOM     20  C   UNL     1       1.370   8.335  20.612  0.00  0.00    +0.000 C 
BRANCH  19  21
ATOM     21  C   UNL     1       0.683   9.879  18.735  0.00  0.00    +0.000 C 
ATOM     22  C   UNL     1      -0.770   9.900  19.248  0.00  0.00    +0.000 C 
BRANCH  21  23
ATOM     23  C   UNL     1       1.391  11.209  18.990  0.00  0.00    +0.000 A 
ATOM     24  C   UNL     1       1.182  11.870  20.214  0.00  0.00    +0.000 A 
ATOM     25  C   UNL     1       1.828  13.073  20.506  0.00  0.00    +0.000 A 
ATOM     26  C   UNL     1       2.701  13.633  19.580  0.00  0.00    +0.000 A 
ATOM     27  C   UNL     1       2.926  12.992  18.363  0.00  0.00    +0.000 A 
ATOM     28  C   UNL     1       2.271  11.794  18.066  0.00  0.00    +0.000 A 
ENDBRANCH  21  23
ENDBRANCH  19  21
ENDBRANCH  16  17
ENDBRANCH   5  16
TORSDOF 7
ENDMDL
MODEL 7
REMARK VINA RESULT:      -7.3      2.897      9.324
REMARK  Name = 
REMARK  10 active torsions:
REMARK  status: ('A' for Active; 'I' for Inactive)
REMARK    1  A    between atoms: C_1  and  O_2
REMARK    2  A    between atoms: O_2  and  C_3
REMARK    3  A    between atoms: C_9  and  C_10
REMARK    4  A    between atoms: C_10  and  C_11
REMARK    5  A    between atoms: N_15  and  C_16
REMARK    6  A    between atoms: C_16  and  C_17
REMARK    7  A    between atoms: N_19  and  C_20
REMARK    8  A    between atoms: N_19  and  C_21
REMARK    9  A    between atoms: C_21  and  C_22
REMARK   10  A    between atoms: C_21  and  C_23
REMARK                            x       y       z     vdW  Elec       q    Type
REMARK                         _______ _______ _______ _____ _____    ______ ____
ROOT
ATOM      1  C   UNL     1       2.358   7.769  18.742  0.00  0.00    +0.000 A 
ATOM      2  N   UNL     1       2.839   8.152  17.574  0.00  0.00    +0.000 NA
ATOM      3  N   UNL     1       2.387   9.426  17.359  0.00  0.00    +0.000 NA
ATOM      4  N   UNL     1       1.635   9.836  18.366  0.00  0.00    +0.000 NA
ATOM      5  N   UNL     1       1.627   8.816  19.251  0.00  0.00    +0.000 N 
ENDROOT
BRANCH   1   6
ATOM      6  C   UNL     1       2.634   6.464  19.403  0.00  0.00    +0.000 C 
BRANCH   6  13
ATOM      7  C   UNL     1       2.781   4.426  17.876  0.00  0.00    +0.000 A 
ATOM      8  C   UNL     1       3.535   3.526  17.113  0.00  0.00    +0.000 A 
ATOM      9  C   UNL     1       4.924   3.653  17.033  0.00  0.00    +0.000 A 
ATOM     10  C   UNL     1       5.560   4.693  17.705  0.00  0.00    +0.000 A 
ATOM     11 BR   UNL     1       7.443   4.843  17.620  0.00  0.00    +0.000 Br
ATOM     12  C   UNL     1       4.817   5.612  18.447  0.00  0.00    +0.000 A 
ATOM     13  C   UNL     1       3.419   5.486  18.548  0.00  0.00    +0.000 A 
BRANCH   7  15
ATOM     14  C   UNL     1       0.903   3.233  18.710  0.00  0.00    +0.000 C 
ATOM     15  O   UNL     1       1.422   4.359  18.016  0.00  0.00    +0.000 OA
ENDBRANCH   7  15
ENDBRANCH   6  13
ENDBRANCH   1   6
BRANCH   5  16
ATOM     16  C   UNL     1       0.754   8.913  20.405  0.00  0.00    +0.000 C 
BRANCH  16  17
ATOM     17  C   UNL     1       0.494  10.334  20.874  0.00  0.00    +0.000 C 
ATOM     18  O   UNL     1       1.232  10.870  21.707  0.00  0.00    +0.000 OA
ATOM     19  N   UNL     1      -0.598  11.012  20.305  0.00  0.00    +0.000 N 
ATOM     20  C   UNL     1      -1.510  10.405  19.342  0.00  0.00    +0.000 C 
BRANCH  19  21
ATOM     21  C   UNL     1      -0.823  12.430  20.685  0.00  0.00    +0.000 C 
ATOM     22  C   UNL     1      -0.846  13.413  19.498  0.00  0.00    +0.000 C 
BRANCH  21  23
ATOM     23  C   UNL     1      -2.054  12.594  21.576  0.00  0.00    +0.000 A 
ATOM     24  C   UNL     1      -3.200  13.217  21.050  0.00  0.00    +0.000 A 
ATOM     25  C   UNL     1      -4.359  13.363  21.814  0.00  0.00    +0.000 A 
ATOM     26  C   UNL     1      -4.395  12.881  23.118  0.00  0.00    +0.000 A 
ATOM     27  C   UNL     1      -3.272  12.257  23.657  0.00  0.00    +0.000 A 
ATOM     28  C   UNL     1      -2.108  12.120  22.896  0.00  0.00    +0.000 A 
ENDBRANCH  21  23
ENDBRANCH  19  21
ENDBRANCH  16  17
ENDBRANCH   5  16
TORSDOF 7
ENDMDL
MODEL 8
REMARK VINA RESULT:      -7.2      3.072      8.647
REMARK  Name = 
REMARK  10 active torsions:
REMARK  status: ('A' for Active; 'I' for Inactive)
REMARK    1  A    between atoms: C_1  and  O_2
REMARK    2  A    between atoms: O_2  and  C_3
REMARK    3  A    between atoms: C_9  and  C_10
REMARK    4  A    between atoms: C_10  and  C_11
REMARK    5  A    between atoms: N_15  and  C_16
REMARK    6  A    between atoms: C_16  and  C_17
REMARK    7  A    between atoms: N_19  and  C_20
REMARK    8  A    between atoms: N_19  and  C_21
REMARK    9  A    between atoms: C_21  and  C_22
REMARK   10  A    between atoms: C_21  and  C_23
REMARK                            x       y       z     vdW  Elec       q    Type
REMARK                         _______ _______ _______ _____ _____    ______ ____
ROOT
ATOM      1  C   UNL     1       3.204   5.910  18.208  0.00  0.00    +0.000 A 
ATOM      2  N   UNL     1       2.945   4.615  18.176  0.00  0.00    +0.000 NA
ATOM      3  N   UNL     1       1.926   4.394  19.063  0.00  0.00    +0.000 NA
ATOM      4  N   UNL     1       1.553   5.522  19.644  0.00  0.00    +0.000 NA
ATOM      5  N   UNL     1       2.329   6.483  19.101  0.00  0.00    +0.000 N 
ENDROOT
BRANCH   1   6
ATOM      6  C   UNL     1       4.212   6.608  17.365  0.00  0.00    +0.000 C 
BRANCH   6  13
ATOM      7  C   UNL     1       6.412   5.325  17.487  0.00  0.00    +0.000 A 
ATOM      8  C   UNL     1       7.376   4.498  16.896  0.00  0.00    +0.000 A 
ATOM      9  C   UNL     1       7.222   4.057  15.580  0.00  0.00    +0.000 A 
ATOM     10  C   UNL     1       6.092   4.429  14.857  0.00  0.00    +0.000 A 
ATOM     11 BR   UNL     1       5.902   3.855  13.066  0.00  0.00    +0.000 Br
ATOM     12  C   UNL     1       5.112   5.230  15.444  0.00  0.00    +0.000 A 
ATOM     13  C   UNL     1       5.263   5.694  16.764  0.00  0.00    +0.000 A 
BRANCH   7  15
ATOM     14  C   UNL     1       7.801   5.912  19.324  0.00  0.00    +0.000 C 
ATOM     15  O   UNL     1       6.499   5.810  18.763  0.00  0.00    +0.000 OA
ENDBRANCH   7  15
ENDBRANCH   6  13
ENDBRANCH   1   6
BRANCH   5  16
ATOM     16  C   UNL     1       2.254   7.822  19.653  0.00  0.00    +0.000 C 
BRANCH  16  17
ATOM     17  C   UNL     1       1.583   8.836  18.744  0.00  0.00    +0.000 C 
ATOM     18  O   UNL     1       1.877   8.903  17.545  0.00  0.00    +0.000 OA
ATOM     19  N   UNL     1       0.606   9.669  19.315  0.00  0.00    +0.000 N 
ATOM     20  C   UNL     1       0.252   9.642  20.731  0.00  0.00    +0.000 C 
BRANCH  19  21
ATOM     21  C   UNL     1      -0.124  10.611  18.429  0.00  0.00    +0.000 C 
ATOM     22  C   UNL     1      -1.659  10.484  18.488  0.00  0.00    +0.000 C 
BRANCH  21  23
ATOM     23  C   UNL     1       0.330  12.056  18.635  0.00  0.00    +0.000 A 
ATOM     24  C   UNL     1      -0.641  13.056  18.828  0.00  0.00    +0.000 A 
ATOM     25  C   UNL     1      -0.275  14.385  19.049  0.00  0.00    +0.000 A 
ATOM     26  C   UNL     1       1.070  14.737  19.089  0.00  0.00    +0.000 A 
ATOM     27  C   UNL     1       2.047  13.761  18.905  0.00  0.00    +0.000 A 
ATOM     28  C   UNL     1       1.682  12.432  18.672  0.00  0.00    +0.000 A 
ENDBRANCH  21  23
ENDBRANCH  19  21
ENDBRANCH  16  17
ENDBRANCH   5  16
TORSDOF 7
ENDMDL
MODEL 9
REMARK VINA RESULT:      -7.2      2.928      9.270
REMARK  Name = 
REMARK  10 active torsions:
REMARK  status: ('A' for Active; 'I' for Inactive)
REMARK    1  A    between atoms: C_1  and  O_2
REMARK    2  A    between atoms: O_2  and  C_3
REMARK    3  A    between atoms: C_9  and  C_10
REMARK    4  A    between atoms: C_10  and  C_11
REMARK    5  A    between atoms: N_15  and  C_16
REMARK    6  A    between atoms: C_16  and  C_17
REMARK    7  A    between atoms: N_19  and  C_20
REMARK    8  A    between atoms: N_19  and  C_21
REMARK    9  A    between atoms: C_21  and  C_22
REMARK   10  A    between atoms: C_21  and  C_23
REMARK                            x       y       z     vdW  Elec       q    Type
REMARK                         _______ _______ _______ _____ _____    ______ ____
ROOT
ATOM      1  C   UNL     1       2.202   7.935  18.951  0.00  0.00    +0.000 A 
ATOM      2  N   UNL     1       2.766   8.326  17.823  0.00  0.00    +0.000 NA
ATOM      3  N   UNL     1       2.225   9.545  17.513  0.00  0.00    +0.000 NA
ATOM      4  N   UNL     1       1.338   9.912  18.422  0.00  0.00    +0.000 NA
ATOM      5  N   UNL     1       1.330   8.924  19.342  0.00  0.00    +0.000 N 
ENDROOT
BRANCH   1   6
ATOM      6  C   UNL     1       2.526   6.683  19.688  0.00  0.00    +0.000 C 
BRANCH   6  13
ATOM      7  C   UNL     1       2.024   4.298  18.934  0.00  0.00    +0.000 A 
ATOM      8  C   UNL     1       2.292   3.198  18.111  0.00  0.00    +0.000 A 
ATOM      9  C   UNL     1       3.321   3.252  17.166  0.00  0.00    +0.000 A 
ATOM     10  C   UNL     1       4.072   4.415  17.034  0.00  0.00    +0.000 A 
ATOM     11 BR   UNL     1       5.483   4.474  15.776  0.00  0.00    +0.000 Br
ATOM     12  C   UNL     1       3.797   5.528  17.829  0.00  0.00    +0.000 A 
ATOM     13  C   UNL     1       2.774   5.481  18.795  0.00  0.00    +0.000 A 
BRANCH   7  15
ATOM     14  C   UNL     1       1.178   3.392  20.961  0.00  0.00    +0.000 C 
ATOM     15  O   UNL     1       1.046   4.318  19.891  0.00  0.00    +0.000 OA
ENDBRANCH   7  15
ENDBRANCH   6  13
ENDBRANCH   1   6
BRANCH   5  16
ATOM     16  C   UNL     1       0.338   8.973  20.397  0.00  0.00    +0.000 C 
BRANCH  16  17
ATOM     17  C   UNL     1       0.486  10.154  21.341  0.00  0.00    +0.000 C 
ATOM     18  O   UNL     1       1.317  10.132  22.255  0.00  0.00    +0.000 OA
ATOM     19  N   UNL     1      -0.336  11.270  21.113  0.00  0.00    +0.000 N 
ATOM     20  C   UNL     1      -1.349  11.325  20.063  0.00  0.00    +0.000 C 
BRANCH  19  21
ATOM     21  C   UNL     1      -0.151  12.470  21.969  0.00  0.00    +0.000 C 
ATOM     22  C   UNL     1       0.483  13.676  21.250  0.00  0.00    +0.000 C 
BRANCH  21  23
ATOM     23  C   UNL     1      -1.440  12.858  22.693  0.00  0.00    +0.000 A 
ATOM     24  C   UNL     1      -1.798  14.216  22.768  0.00  0.00    +0.000 A 
ATOM     25  C   UNL     1      -2.980  14.618  23.393  0.00  0.00    +0.000 A 
ATOM     26  C   UNL     1      -3.829  13.668  23.948  0.00  0.00    +0.000 A 
ATOM     27  C   UNL     1      -3.495  12.316  23.881  0.00  0.00    +0.000 A 
ATOM     28  C   UNL     1      -2.307  11.914  23.265  0.00  0.00    +0.000 A 
ENDBRANCH  21  23
ENDBRANCH  19  21
ENDBRANCH  16  17
ENDBRANCH   5  16
TORSDOF 7
ENDMDL
