MODEL 1
REMARK VINA RESULT:      -8.9      0.000      0.000
REMARK  Name = 
REMARK  6 active torsions:
REMARK  status: ('A' for Active; 'I' for Inactive)
REMARK    1  A    between atoms: C_2  and  C_3
REMARK    2  A    between atoms: C_5  and  S_6
REMARK    3  A    between atoms: S_6  and  N_9
REMARK    4  A    between atoms: C_19  and  O_20
REMARK    5  A    between atoms: O_20  and  C_21
REMARK    6  A    between atoms: C_24  and  N_25
REMARK                            x       y       z     vdW  Elec       q    Type
REMARK                         _______ _______ _______ _____ _____    ______ ____
ROOT
ATOM      1  C   UNL     1       1.141   8.771  20.438  0.00  0.00    +0.000 A 
ATOM      2  C   UNL     1       1.785   7.525  20.385  0.00  0.00    +0.000 A 
ATOM      3  C   UNL     1       2.356   7.075  19.195  0.00  0.00    +0.000 A 
ATOM      4  C   UNL     1       2.271   7.855  18.039  0.00  0.00    +0.000 A 
ATOM      5  C   UNL     1       1.664   9.116  18.101  0.00  0.00    +0.000 A 
ATOM      6  C   UNL     1       1.122   9.600  19.302  0.00  0.00    +0.000 A 
ENDROOT
BRANCH   3   7
ATOM      7  S   UNL     1       3.083   5.445  19.157  0.00  0.00    +0.000 S 
ATOM      8  O   UNL     1       2.958   4.886  20.487  0.00  0.00    +0.000 OA
ATOM      9  O   UNL     1       2.527   4.769  18.007  0.00  0.00    +0.000 OA
BRANCH   7  10
ATOM     10  N   UNL     1       4.703   5.723  18.821  0.00  0.00    +0.000 N 
ATOM     11  C   UNL     1       5.129   5.471  17.504  0.00  0.00    +0.000 A 
ATOM     12  C   UNL     1       4.932   6.374  16.470  0.00  0.00    +0.000 A 
ATOM     13  C   UNL     1       5.409   6.029  15.206  0.00  0.00    +0.000 A 
ATOM     14  C   UNL     1       6.031   4.801  15.038  0.00  0.00    +0.000 A 
ATOM     15  F   UNL     1       6.508   4.439  13.842  0.00  0.00    +0.000 F 
ATOM     16  C   UNL     1       6.155   3.958  16.130  0.00  0.00    +0.000 A 
ATOM     17  N   UNL     1       5.714   4.269  17.374  0.00  0.00    +0.000 NA
ATOM     18  H   UNL     1       5.294   5.243  19.498  0.00  0.00    +0.000 HD
ENDBRANCH   7  10
ENDBRANCH   3   7
BRANCH   1  20
ATOM     19  N   UNL     1      -0.019   9.426  22.663  0.00  0.00    +0.000 NA
ATOM     20  C   UNL     1       0.516   9.101  21.684  0.00  0.00    +0.000 C 
ENDBRANCH   1  20
BRANCH   6  21
ATOM     21  O   UNL     1       0.525  10.841  19.205  0.00  0.00    +0.000 OA
BRANCH  21  22
ATOM     22  C   UNL     1      -0.812  10.953  18.917  0.00  0.00    +0.000 A 
ATOM     23  C   UNL     1      -1.581  11.781  19.720  0.00  0.00    +0.000 A 
ATOM     24  N   UNL     1      -2.892  12.057  19.502  0.00  0.00    +0.000 NA
ATOM     25  C   UNL     1      -3.502  11.511  18.414  0.00  0.00    +0.000 A 
ATOM     26  C   UNL     1      -2.793  10.621  17.586  0.00  0.00    +0.000 A 
ATOM     27 CL   UNL     1      -3.417   9.913  16.137  0.00  0.00    +0.000 Cl
ATOM     28  C   UNL     1      -1.463  10.296  17.885  0.00  0.00    +0.000 A 
BRANCH  25  29
ATOM     29  N   UNL     1      -4.839  11.860  18.210  0.00  0.00    +0.000 N 
ATOM     30  C   UNL     1      -5.946  11.822  19.106  0.00  0.00    +0.000 C 
ATOM     31  C   UNL     1      -6.848  11.939  17.873  0.00  0.00    +0.000 C 
ATOM     32  C   UNL     1      -5.589  12.361  17.115  0.00  0.00    +0.000 C 
ENDBRANCH  25  29
ENDBRANCH  21  22
ENDBRANCH   6  21
TORSDOF 6
ENDMDL
MODEL 2
REMARK VINA RESULT:      -8.5      1.232      1.508
REMARK  Name = 
REMARK  6 active torsions:
REMARK  status: ('A' for Active; 'I' for Inactive)
REMARK    1  A    between atoms: C_2  and  C_3
REMARK    2  A    between atoms: C_5  and  S_6
REMARK    3  A    between atoms: S_6  and  N_9
REMARK    4  A    between atoms: C_19  and  O_20
REMARK    5  A    between atoms: O_20  and  C_21
REMARK    6  A    between atoms: C_24  and  N_25
REMARK                            x       y       z     vdW  Elec       q    Type
REMARK                         _______ _______ _______ _____ _____    ______ ____
ROOT
ATOM      1  C   UNL     1       1.121   9.101  20.800  0.00  0.00    +0.000 A 
ATOM      2  C   UNL     1       1.658   7.806  20.739  0.00  0.00    +0.000 A 
ATOM      3  C   UNL     1       2.095   7.279  19.524  0.00  0.00    +0.000 A 
ATOM      4  C   UNL     1       1.978   8.031  18.353  0.00  0.00    +0.000 A 
ATOM      5  C   UNL     1       1.479   9.339  18.420  0.00  0.00    +0.000 A 
ATOM      6  C   UNL     1       1.076   9.898  19.641  0.00  0.00    +0.000 A 
ENDROOT
BRANCH   3   7
ATOM      7  S   UNL     1       2.685   5.596  19.485  0.00  0.00    +0.000 S 
ATOM      8  O   UNL     1       2.454   5.026  20.795  0.00  0.00    +0.000 OA
ATOM      9  O   UNL     1       2.129   4.988  18.297  0.00  0.00    +0.000 OA
BRANCH   7  10
ATOM     10  N   UNL     1       4.336   5.743  19.227  0.00  0.00    +0.000 N 
ATOM     11  C   UNL     1       4.789   5.578  17.904  0.00  0.00    +0.000 A 
ATOM     12  C   UNL     1       4.720   6.592  16.961  0.00  0.00    +0.000 A 
ATOM     13  C   UNL     1       5.212   6.325  15.684  0.00  0.00    +0.000 A 
ATOM     14  C   UNL     1       5.720   5.064  15.412  0.00  0.00    +0.000 A 
ATOM     15  F   UNL     1       6.207   4.773  14.201  0.00  0.00    +0.000 F 
ATOM     16  C   UNL     1       5.720   4.111  16.418  0.00  0.00    +0.000 A 
ATOM     17  N   UNL     1       5.260   4.342  17.673  0.00  0.00    +0.000 NA
ATOM     18  H   UNL     1       4.852   5.144  19.870  0.00  0.00    +0.000 HD
ENDBRANCH   7  10
ENDBRANCH   3   7
BRANCH   1  20
ATOM     19  N   UNL     1       0.283   9.824  23.145  0.00  0.00    +0.000 NA
ATOM     20  C   UNL     1       0.625   9.515  22.079  0.00  0.00    +0.000 C 
ENDBRANCH   1  20
BRANCH   6  21
ATOM     21  O   UNL     1       0.572  11.181  19.550  0.00  0.00    +0.000 OA
BRANCH  21  22
ATOM     22  C   UNL     1      -0.749  11.393  19.244  0.00  0.00    +0.000 A 
ATOM     23  C   UNL     1      -1.303  10.651  18.212  0.00  0.00    +0.000 A 
ATOM     24  N   UNL     1      -2.611  10.691  17.858  0.00  0.00    +0.000 NA
ATOM     25  C   UNL     1      -3.457  11.488  18.569  0.00  0.00    +0.000 A 
ATOM     26  C   UNL     1      -2.951  12.305  19.596  0.00  0.00    +0.000 A 
ATOM     27 CL   UNL     1      -3.916  13.308  20.623  0.00  0.00    +0.000 Cl
ATOM     28  C   UNL     1      -1.580  12.299  19.884  0.00  0.00    +0.000 A 
BRANCH  25  29
ATOM     29  N   UNL     1      -4.801  11.460  18.193  0.00  0.00    +0.000 N 
ATOM     30  C   UNL     1      -5.492  12.203  17.192  0.00  0.00    +0.000 C 
ATOM     31  C   UNL     1      -6.792  11.780  17.886  0.00  0.00    +0.000 C 
ATOM     32  C   UNL     1      -5.946  10.734  18.614  0.00  0.00    +0.000 C 
ENDBRANCH  25  29
ENDBRANCH  21  22
ENDBRANCH   6  21
TORSDOF 6
ENDMDL
MODEL 3
REMARK VINA RESULT:      -8.4      2.772      3.346
REMARK  Name = 
REMARK  6 active torsions:
REMARK  status: ('A' for Active; 'I' for Inactive)
REMARK    1  A    between atoms: C_2  and  C_3
REMARK    2  A    between atoms: C_5  and  S_6
REMARK    3  A    between atoms: S_6  and  N_9
REMARK    4  A    between atoms: C_19  and  O_20
REMARK    5  A    between atoms: O_20  and  C_21
REMARK    6  A    between atoms: C_24  and  N_25
REMARK                            x       y       z     vdW  Elec       q    Type
REMARK                         _______ _______ _______ _____ _____    ______ ____
ROOT
ATOM      1  C   UNL     1       1.095   8.976  19.991  0.00  0.00    +0.000 A 
ATOM      2  C   UNL     1       1.930   7.879  19.726  0.00  0.00    +0.000 A 
ATOM      3  C   UNL     1       2.609   7.785  18.512  0.00  0.00    +0.000 A 
ATOM      4  C   UNL     1       2.444   8.774  17.539  0.00  0.00    +0.000 A 
ATOM      5  C   UNL     1       1.643   9.889  17.818  0.00  0.00    +0.000 A 
ATOM      6  C   UNL     1       0.987  10.018  19.052  0.00  0.00    +0.000 A 
ENDROOT
BRANCH   3   7
ATOM      7  S   UNL     1       3.587   6.327  18.190  0.00  0.00    +0.000 S 
ATOM      8  O   UNL     1       4.282   6.542  16.939  0.00  0.00    +0.000 OA
ATOM      9  O   UNL     1       4.311   6.035  19.407  0.00  0.00    +0.000 OA
BRANCH   7  10
ATOM     10  N   UNL     1       2.455   5.105  17.994  0.00  0.00    +0.000 N 
ATOM     11  C   UNL     1       2.229   4.266  19.101  0.00  0.00    +0.000 A 
ATOM     12  C   UNL     1       1.408   4.630  20.158  0.00  0.00    +0.000 A 
ATOM     13  C   UNL     1       1.243   3.714  21.197  0.00  0.00    +0.000 A 
ATOM     14  C   UNL     1       1.919   2.506  21.137  0.00  0.00    +0.000 A 
ATOM     15  F   UNL     1       1.779   1.599  22.111  0.00  0.00    +0.000 F 
ATOM     16  C   UNL     1       2.738   2.249  20.050  0.00  0.00    +0.000 A 
ATOM     17  N   UNL     1       2.910   3.112  19.018  0.00  0.00    +0.000 NA
ATOM     18  H   UNL     1       2.658   4.563  17.156  0.00  0.00    +0.000 HD
ENDBRANCH   7  10
ENDBRANCH   3   7
BRANCH   1  20
ATOM     19  N   UNL     1      -0.159   8.850  22.257  0.00  0.00    +0.000 NA
ATOM     20  C   UNL     1       0.379   8.935  21.231  0.00  0.00    +0.000 C 
ENDBRANCH   1  20
BRANCH   6  21
ATOM     21  O   UNL     1       0.204  11.149  19.172  0.00  0.00    +0.000 OA
BRANCH  21  22
ATOM     22  C   UNL     1      -1.123  11.122  18.820  0.00  0.00    +0.000 A 
ATOM     23  C   UNL     1      -2.006  11.893  19.559  0.00  0.00    +0.000 A 
ATOM     24  N   UNL     1      -3.325  12.033  19.274  0.00  0.00    +0.000 NA
ATOM     25  C   UNL     1      -3.826  11.401  18.176  0.00  0.00    +0.000 A 
ATOM     26  C   UNL     1      -2.996  10.562  17.410  0.00  0.00    +0.000 A 
ATOM     27 CL   UNL     1      -3.477   9.758  15.957  0.00  0.00    +0.000 Cl
ATOM     28  C   UNL     1      -1.656  10.377  17.780  0.00  0.00    +0.000 A 
BRANCH  25  29
ATOM     29  N   UNL     1      -5.178  11.611  17.900  0.00  0.00    +0.000 N 
ATOM     30  C   UNL     1      -5.807  12.586  17.072  0.00  0.00    +0.000 C 
ATOM     31  C   UNL     1      -7.115  12.239  17.790  0.00  0.00    +0.000 C 
ATOM     32  C   UNL     1      -6.392  10.990  18.294  0.00  0.00    +0.000 C 
ENDBRANCH  25  29
ENDBRANCH  21  22
ENDBRANCH   6  21
TORSDOF 6
ENDMDL
MODEL 4
REMARK VINA RESULT:      -8.4      0.890      1.291
REMARK  Name = 
REMARK  6 active torsions:
REMARK  status: ('A' for Active; 'I' for Inactive)
REMARK    1  A    between atoms: C_2  and  C_3
REMARK    2  A    between atoms: C_5  and  S_6
REMARK    3  A    between atoms: S_6  and  N_9
REMARK    4  A    between atoms: C_19  and  O_20
REMARK    5  A    between atoms: O_20  and  C_21
REMARK    6  A    between atoms: C_24  and  N_25
REMARK                            x       y       z     vdW  Elec       q    Type
REMARK                         _______ _______ _______ _____ _____    ______ ____
ROOT
ATOM      1  C   UNL     1       1.050   8.895  20.413  0.00  0.00    +0.000 A 
ATOM      2  C   UNL     1       1.773   7.692  20.401  0.00  0.00    +0.000 A 
ATOM      3  C   UNL     1       2.396   7.254  19.233  0.00  0.00    +0.000 A 
ATOM      4  C   UNL     1       2.285   8.001  18.058  0.00  0.00    +0.000 A 
ATOM      5  C   UNL     1       1.597   9.222  18.079  0.00  0.00    +0.000 A 
ATOM      6  C   UNL     1       1.001   9.696  19.258  0.00  0.00    +0.000 A 
ENDROOT
BRANCH   3   7
ATOM      7  S   UNL     1       3.226   5.675  19.246  0.00  0.00    +0.000 S 
ATOM      8  O   UNL     1       4.617   5.921  19.563  0.00  0.00    +0.000 OA
ATOM      9  O   UNL     1       2.421   4.789  20.056  0.00  0.00    +0.000 OA
BRANCH   7  10
ATOM     10  N   UNL     1       3.105   5.130  17.664  0.00  0.00    +0.000 N 
ATOM     11  C   UNL     1       4.306   5.010  16.941  0.00  0.00    +0.000 A 
ATOM     12  C   UNL     1       5.153   3.919  17.075  0.00  0.00    +0.000 A 
ATOM     13  C   UNL     1       6.310   3.896  16.298  0.00  0.00    +0.000 A 
ATOM     14  C   UNL     1       6.571   4.964  15.454  0.00  0.00    +0.000 A 
ATOM     15  F   UNL     1       7.667   4.973  14.687  0.00  0.00    +0.000 F 
ATOM     16  C   UNL     1       5.674   6.019  15.412  0.00  0.00    +0.000 A 
ATOM     17  N   UNL     1       4.534   6.067  16.145  0.00  0.00    +0.000 NA
ATOM     18  H   UNL     1       2.419   5.680  17.150  0.00  0.00    +0.000 HD
ENDBRANCH   7  10
ENDBRANCH   3   7
BRANCH   1  20
ATOM     19  N   UNL     1      -0.111   9.437  22.667  0.00  0.00    +0.000 NA
ATOM     20  C   UNL     1       0.379   9.211  21.638  0.00  0.00    +0.000 C 
ENDBRANCH   1  20
BRANCH   6  21
ATOM     21  O   UNL     1       0.328  10.894  19.121  0.00  0.00    +0.000 OA
BRANCH  21  22
ATOM     22  C   UNL     1      -0.998  10.914  18.767  0.00  0.00    +0.000 A 
ATOM     23  C   UNL     1      -1.862  11.681  19.533  0.00  0.00    +0.000 A 
ATOM     24  N   UNL     1      -3.176  11.866  19.251  0.00  0.00    +0.000 NA
ATOM     25  C   UNL     1      -3.692  11.287  18.131  0.00  0.00    +0.000 A 
ATOM     26  C   UNL     1      -2.882  10.455  17.337  0.00  0.00    +0.000 A 
ATOM     27 CL   UNL     1      -3.382   9.716  15.855  0.00  0.00    +0.000 Cl
ATOM     28  C   UNL     1      -1.549  10.221  17.701  0.00  0.00    +0.000 A 
BRANCH  25  29
ATOM     29  N   UNL     1      -5.038  11.542  17.862  0.00  0.00    +0.000 N 
ATOM     30  C   UNL     1      -5.635  12.478  16.968  0.00  0.00    +0.000 C 
ATOM     31  C   UNL     1      -6.944  12.256  17.734  0.00  0.00    +0.000 C 
ATOM     32  C   UNL     1      -6.272  11.016  18.325  0.00  0.00    +0.000 C 
ENDBRANCH  25  29
ENDBRANCH  21  22
ENDBRANCH   6  21
TORSDOF 6
ENDMDL
MODEL 5
REMARK VINA RESULT:      -8.0      1.648      2.035
REMARK  Name = 
REMARK  6 active torsions:
REMARK  status: ('A' for Active; 'I' for Inactive)
REMARK    1  A    between atoms: C_2  and  C_3
REMARK    2  A    between atoms: C_5  and  S_6
REMARK    3  A    between atoms: S_6  and  N_9
REMARK    4  A    between atoms: C_19  and  O_20
REMARK    5  A    between atoms: O_20  and  C_21
REMARK    6  A    between atoms: C_24  and  N_25
REMARK                            x       y       z     vdW  Elec       q    Type
REMARK                         _______ _______ _______ _____ _____    ______ ____
ROOT
ATOM      1  C   UNL     1       1.568   8.398  20.093  0.00  0.00    +0.000 A 
ATOM      2  C   UNL     1       2.131   7.118  19.969  0.00  0.00    +0.000 A 
ATOM      3  C   UNL     1       2.531   6.640  18.722  0.00  0.00    +0.000 A 
ATOM      4  C   UNL     1       2.354   7.427  17.581  0.00  0.00    +0.000 A 
ATOM      5  C   UNL     1       1.830   8.720  17.710  0.00  0.00    +0.000 A 
ATOM      6  C   UNL     1       1.461   9.230  18.964  0.00  0.00    +0.000 A 
ENDROOT
BRANCH   3   7
ATOM      7  S   UNL     1       3.157   4.973  18.605  0.00  0.00    +0.000 S 
ATOM      8  O   UNL     1       3.782   4.657  19.872  0.00  0.00    +0.000 OA
ATOM      9  O   UNL     1       2.082   4.162  18.080  0.00  0.00    +0.000 OA
BRANCH   7  10
ATOM     10  N   UNL     1       4.331   5.055  17.410  0.00  0.00    +0.000 N 
ATOM     11  C   UNL     1       5.538   5.694  17.750  0.00  0.00    +0.000 A 
ATOM     12  C   UNL     1       6.544   5.058  18.463  0.00  0.00    +0.000 A 
ATOM     13  C   UNL     1       7.706   5.781  18.732  0.00  0.00    +0.000 A 
ATOM     14  C   UNL     1       7.791   7.096  18.300  0.00  0.00    +0.000 A 
ATOM     15  F   UNL     1       8.892   7.819  18.533  0.00  0.00    +0.000 F 
ATOM     16  C   UNL     1       6.718   7.648  17.618  0.00  0.00    +0.000 A 
ATOM     17  N   UNL     1       5.581   6.969  17.330  0.00  0.00    +0.000 NA
ATOM     18  H   UNL     1       3.940   5.440  16.552  0.00  0.00    +0.000 HD
ENDBRANCH   7  10
ENDBRANCH   3   7
BRANCH   1  20
ATOM     19  N   UNL     1       0.680   9.033  22.445  0.00  0.00    +0.000 NA
ATOM     20  C   UNL     1       1.114   8.760  21.403  0.00  0.00    +0.000 C 
ENDBRANCH   1  20
BRANCH   6  21
ATOM     21  O   UNL     1       0.927  10.503  18.933  0.00  0.00    +0.000 OA
BRANCH  21  22
ATOM     22  C   UNL     1      -0.411  10.694  18.694  0.00  0.00    +0.000 A 
ATOM     23  C   UNL     1      -1.101  11.563  19.525  0.00  0.00    +0.000 A 
ATOM     24  N   UNL     1      -2.400  11.915  19.356  0.00  0.00    +0.000 NA
ATOM     25  C   UNL     1      -3.080  11.411  18.289  0.00  0.00    +0.000 A 
ATOM     26  C   UNL     1      -2.455  10.484  17.435  0.00  0.00    +0.000 A 
ATOM     27 CL   UNL     1      -3.171   9.820  16.008  0.00  0.00    +0.000 Cl
ATOM     28  C   UNL     1      -1.136  10.081  17.685  0.00  0.00    +0.000 A 
BRANCH  25  29
ATOM     29  N   UNL     1      -4.400  11.838  18.135  0.00  0.00    +0.000 N 
ATOM     30  C   UNL     1      -5.231  11.854  16.977  0.00  0.00    +0.000 C 
ATOM     31  C   UNL     1      -6.144  12.819  17.742  0.00  0.00    +0.000 C 
ATOM     32  C   UNL     1      -5.386  12.384  18.997  0.00  0.00    +0.000 C 
ENDBRANCH  25  29
ENDBRANCH  21  22
ENDBRANCH   6  21
TORSDOF 6
ENDMDL
MODEL 6
REMARK VINA RESULT:      -8.0      3.842      5.110
REMARK  Name = 
REMARK  6 active torsions:
REMARK  status: ('A' for Active; 'I' for Inactive)
REMARK    1  A    between atoms: C_2  and  C_3
REMARK    2  A    between atoms: C_5  and  S_6
REMARK    3  A    between atoms: S_6  and  N_9
REMARK    4  A    between atoms: C_19  and  O_20
REMARK    5  A    between atoms: O_20  and  C_21
REMARK    6  A    between atoms: C_24  and  N_25
REMARK                            x       y       z     vdW  Elec       q    Type
REMARK                         _______ _______ _______ _____ _____    ______ ____
ROOT
ATOM      1  C   UNL     1       1.267   8.959  20.677  0.00  0.00    +0.000 A 
ATOM      2  C   UNL     1       1.783   7.654  20.635  0.00  0.00    +0.000 A 
ATOM      3  C   UNL     1       2.168   7.084  19.422  0.00  0.00    +0.000 A 
ATOM      4  C   UNL     1       2.021   7.804  18.234  0.00  0.00    +0.000 A 
ATOM      5  C   UNL     1       1.545   9.121  18.279  0.00  0.00    +0.000 A 
ATOM      6  C   UNL     1       1.193   9.721  19.497  0.00  0.00    +0.000 A 
ENDROOT
BRANCH   3   7
ATOM      7  S   UNL     1       2.732   5.391  19.413  0.00  0.00    +0.000 S 
ATOM      8  O   UNL     1       2.499   4.851  20.736  0.00  0.00    +0.000 OA
ATOM      9  O   UNL     1       2.159   4.769  18.240  0.00  0.00    +0.000 OA
BRANCH   7  10
ATOM     10  N   UNL     1       4.383   5.507  19.142  0.00  0.00    +0.000 N 
ATOM     11  C   UNL     1       4.818   5.385  17.809  0.00  0.00    +0.000 A 
ATOM     12  C   UNL     1       4.765   6.439  16.908  0.00  0.00    +0.000 A 
ATOM     13  C   UNL     1       5.236   6.211  15.616  0.00  0.00    +0.000 A 
ATOM     14  C   UNL     1       5.709   4.950  15.287  0.00  0.00    +0.000 A 
ATOM     15  F   UNL     1       6.176   4.697  14.060  0.00  0.00    +0.000 F 
ATOM     16  C   UNL     1       5.694   3.957  16.254  0.00  0.00    +0.000 A 
ATOM     17  N   UNL     1       5.255   4.148  17.522  0.00  0.00    +0.000 NA
ATOM     18  H   UNL     1       4.890   4.869  19.754  0.00  0.00    +0.000 HD
ENDBRANCH   7  10
ENDBRANCH   3   7
BRANCH   1  20
ATOM     19  N   UNL     1       0.531   9.810  23.013  0.00  0.00    +0.000 NA
ATOM     20  C   UNL     1       0.824   9.418  21.959  0.00  0.00    +0.000 C 
ENDBRANCH   1  20
BRANCH   6  21
ATOM     21  O   UNL     1       0.706  11.009  19.385  0.00  0.00    +0.000 OA
BRANCH  21  22
ATOM     22  C   UNL     1       1.550  12.087  19.485  0.00  0.00    +0.000 A 
ATOM     23  C   UNL     1       2.276  12.449  18.361  0.00  0.00    +0.000 A 
ATOM     24  N   UNL     1       3.079  13.540  18.287  0.00  0.00    +0.000 NA
ATOM     25  C   UNL     1       3.170  14.359  19.371  0.00  0.00    +0.000 A 
ATOM     26  C   UNL     1       2.499  14.023  20.561  0.00  0.00    +0.000 A 
ATOM     27 CL   UNL     1       2.468  15.002  21.986  0.00  0.00    +0.000 Cl
ATOM     28  C   UNL     1       1.742  12.846  20.629  0.00  0.00    +0.000 A 
BRANCH  25  29
ATOM     29  N   UNL     1       3.974  15.492  19.230  0.00  0.00    +0.000 N 
ATOM     30  C   UNL     1       5.388  15.605  19.095  0.00  0.00    +0.000 C 
ATOM     31  C   UNL     1       5.225  17.087  19.447  0.00  0.00    +0.000 C 
ATOM     32  C   UNL     1       3.736  16.889  19.161  0.00  0.00    +0.000 C 
ENDBRANCH  25  29
ENDBRANCH  21  22
ENDBRANCH   6  21
TORSDOF 6
ENDMDL
MODEL 7
REMARK VINA RESULT:      -7.9      3.563      4.897
REMARK  Name = 
REMARK  6 active torsions:
REMARK  status: ('A' for Active; 'I' for Inactive)
REMARK    1  A    between atoms: C_2  and  C_3
REMARK    2  A    between atoms: C_5  and  S_6
REMARK    3  A    between atoms: S_6  and  N_9
REMARK    4  A    between atoms: C_19  and  O_20
REMARK    5  A    between atoms: O_20  and  C_21
REMARK    6  A    between atoms: C_24  and  N_25
REMARK                            x       y       z     vdW  Elec       q    Type
REMARK                         _______ _______ _______ _____ _____    ______ ____
ROOT
ATOM      1  C   UNL     1       1.084   8.864  20.429  0.00  0.00    +0.000 A 
ATOM      2  C   UNL     1       1.704   7.607  20.361  0.00  0.00    +0.000 A 
ATOM      3  C   UNL     1       2.292   7.172  19.174  0.00  0.00    +0.000 A 
ATOM      4  C   UNL     1       2.246   7.977  18.034  0.00  0.00    +0.000 A 
ATOM      5  C   UNL     1       1.662   9.249  18.111  0.00  0.00    +0.000 A 
ATOM      6  C   UNL     1       1.105   9.718  19.310  0.00  0.00    +0.000 A 
ENDROOT
BRANCH   3   7
ATOM      7  S   UNL     1       2.988   5.530  19.116  0.00  0.00    +0.000 S 
ATOM      8  O   UNL     1       2.833   4.948  20.433  0.00  0.00    +0.000 OA
ATOM      9  O   UNL     1       2.435   4.885  17.946  0.00  0.00    +0.000 OA
BRANCH   7  10
ATOM     10  N   UNL     1       4.617   5.782  18.808  0.00  0.00    +0.000 N 
ATOM     11  C   UNL     1       5.066   5.503  17.503  0.00  0.00    +0.000 A 
ATOM     12  C   UNL     1       4.901   6.392  16.451  0.00  0.00    +0.000 A 
ATOM     13  C   UNL     1       5.398   6.020  15.203  0.00  0.00    +0.000 A 
ATOM     14  C   UNL     1       6.008   4.782  15.067  0.00  0.00    +0.000 A 
ATOM     15  F   UNL     1       6.504   4.394  13.887  0.00  0.00    +0.000 F 
ATOM     16  C   UNL     1       6.100   3.955  16.175  0.00  0.00    +0.000 A 
ATOM     17  N   UNL     1       5.638   4.292  17.405  0.00  0.00    +0.000 NA
ATOM     18  H   UNL     1       5.189   5.306  19.504  0.00  0.00    +0.000 HD
ENDBRANCH   7  10
ENDBRANCH   3   7
BRANCH   1  20
ATOM     19  N   UNL     1      -0.067   9.504  22.663  0.00  0.00    +0.000 NA
ATOM     20  C   UNL     1       0.438   9.180  21.668  0.00  0.00    +0.000 C 
ENDBRANCH   1  20
BRANCH   6  21
ATOM     21  O   UNL     1       0.533  10.972  19.228  0.00  0.00    +0.000 OA
BRANCH  21  22
ATOM     22  C   UNL     1       1.250  12.091  19.575  0.00  0.00    +0.000 A 
ATOM     23  C   UNL     1       1.086  12.594  20.856  0.00  0.00    +0.000 A 
ATOM     24  N   UNL     1       1.791  13.636  21.365  0.00  0.00    +0.000 NA
ATOM     25  C   UNL     1       2.745  14.221  20.589  0.00  0.00    +0.000 A 
ATOM     26  C   UNL     1       2.928  13.791  19.262  0.00  0.00    +0.000 A 
ATOM     27 CL   UNL     1       4.145  14.393  18.190  0.00  0.00    +0.000 Cl
ATOM     28  C   UNL     1       2.128  12.766  18.741  0.00  0.00    +0.000 A 
BRANCH  25  29
ATOM     29  N   UNL     1       3.473  15.259  21.174  0.00  0.00    +0.000 N 
ATOM     30  C   UNL     1       4.504  15.219  22.156  0.00  0.00    +0.000 C 
ATOM     31  C   UNL     1       4.260  16.718  22.360  0.00  0.00    +0.000 C 
ATOM     32  C   UNL     1       3.490  16.672  21.041  0.00  0.00    +0.000 C 
ENDBRANCH  25  29
ENDBRANCH  21  22
ENDBRANCH   6  21
TORSDOF 6
ENDMDL
MODEL 8
REMARK VINA RESULT:      -7.9      1.661      1.988
REMARK  Name = 
REMARK  6 active torsions:
REMARK  status: ('A' for Active; 'I' for Inactive)
REMARK    1  A    between atoms: C_2  and  C_3
REMARK    2  A    between atoms: C_5  and  S_6
REMARK    3  A    between atoms: S_6  and  N_9
REMARK    4  A    between atoms: C_19  and  O_20
REMARK    5  A    between atoms: O_20  and  C_21
REMARK    6  A    between atoms: C_24  and  N_25
REMARK                            x       y       z     vdW  Elec       q    Type
REMARK                         _______ _______ _______ _____ _____    ______ ____
ROOT
ATOM      1  C   UNL     1       1.004   9.324  20.940  0.00  0.00    +0.000 A 
ATOM      2  C   UNL     1       1.531   8.030  20.807  0.00  0.00    +0.000 A 
ATOM      3  C   UNL     1       1.995   7.580  19.571  0.00  0.00    +0.000 A 
ATOM      4  C   UNL     1       1.918   8.409  18.450  0.00  0.00    +0.000 A 
ATOM      5  C   UNL     1       1.429   9.715  18.590  0.00  0.00    +0.000 A 
ATOM      6  C   UNL     1       0.998  10.196  19.836  0.00  0.00    +0.000 A 
ENDROOT
BRANCH   3   7
ATOM      7  S   UNL     1       2.572   5.896  19.436  0.00  0.00    +0.000 S 
ATOM      8  O   UNL     1       3.924   5.860  19.952  0.00  0.00    +0.000 OA
ATOM      9  O   UNL     1       1.536   5.056  19.994  0.00  0.00    +0.000 OA
BRANCH   7  10
ATOM     10  N   UNL     1       2.599   5.600  17.785  0.00  0.00    +0.000 N 
ATOM     11  C   UNL     1       3.839   5.236  17.226  0.00  0.00    +0.000 A 
ATOM     12  C   UNL     1       4.338   3.945  17.297  0.00  0.00    +0.000 A 
ATOM     13  C   UNL     1       5.571   3.691  16.696  0.00  0.00    +0.000 A 
ATOM     14  C   UNL     1       6.243   4.737  16.082  0.00  0.00    +0.000 A 
ATOM     15  F   UNL     1       7.424   4.530  15.488  0.00  0.00    +0.000 F 
ATOM     16  C   UNL     1       5.670   5.998  16.088  0.00  0.00    +0.000 A 
ATOM     17  N   UNL     1       4.469   6.275  16.653  0.00  0.00    +0.000 NA
ATOM     18  H   UNL     1       2.180   6.378  17.277  0.00  0.00    +0.000 HD
ENDBRANCH   7  10
ENDBRANCH   3   7
BRANCH   1  20
ATOM     19  N   UNL     1       0.008   9.975  23.244  0.00  0.00    +0.000 NA
ATOM     20  C   UNL     1       0.478   9.658  22.230  0.00  0.00    +0.000 C 
ENDBRANCH   1  20
BRANCH   6  21
ATOM     21  O   UNL     1       0.509  11.488  19.817  0.00  0.00    +0.000 OA
BRANCH  21  22
ATOM     22  C   UNL     1      -0.831  11.725  19.634  0.00  0.00    +0.000 A 
ATOM     23  C   UNL     1      -1.391  11.376  18.416  0.00  0.00    +0.000 A 
ATOM     24  N   UNL     1      -2.713  11.471  18.126  0.00  0.00    +0.000 NA
ATOM     25  C   UNL     1      -3.564  11.912  19.094  0.00  0.00    +0.000 A 
ATOM     26  C   UNL     1      -3.055  12.331  20.337  0.00  0.00    +0.000 A 
ATOM     27 CL   UNL     1      -4.021  12.844  21.676  0.00  0.00    +0.000 Cl
ATOM     28  C   UNL     1      -1.674  12.295  20.575  0.00  0.00    +0.000 A 
BRANCH  25  29
ATOM     29  N   UNL     1      -4.920  11.950  18.761  0.00  0.00    +0.000 N 
ATOM     30  C   UNL     1      -5.799  10.900  18.368  0.00  0.00    +0.000 C 
ATOM     31  C   UNL     1      -6.751  11.991  17.866  0.00  0.00    +0.000 C 
ATOM     32  C   UNL     1      -5.907  12.966  18.686  0.00  0.00    +0.000 C 
ENDBRANCH  25  29
ENDBRANCH  21  22
ENDBRANCH   6  21
TORSDOF 6
ENDMDL
MODEL 9
REMARK VINA RESULT:      -7.9      1.887      2.337
REMARK  Name = 
REMARK  6 active torsions:
REMARK  status: ('A' for Active; 'I' for Inactive)
REMARK    1  A    between atoms: C_2  and  C_3
REMARK    2  A    between atoms: C_5  and  S_6
REMARK    3  A    between atoms: S_6  and  N_9
REMARK    4  A    between atoms: C_19  and  O_20
REMARK    5  A    between atoms: O_20  and  C_21
REMARK    6  A    between atoms: C_24  and  N_25
REMARK                            x       y       z     vdW  Elec       q    Type
REMARK                         _______ _______ _______ _____ _____    ______ ____
ROOT
ATOM      1  C   UNL     1       1.512   8.682  20.202  0.00  0.00    +0.000 A 
ATOM      2  C   UNL     1       2.000   7.371  20.085  0.00  0.00    +0.000 A 
ATOM      3  C   UNL     1       2.314   6.842  18.834  0.00  0.00    +0.000 A 
ATOM      4  C   UNL     1       2.121   7.609  17.682  0.00  0.00    +0.000 A 
ATOM      5  C   UNL     1       1.672   8.931  17.801  0.00  0.00    +0.000 A 
ATOM      6  C   UNL     1       1.393   9.490  19.057  0.00  0.00    +0.000 A 
ENDROOT
BRANCH   3   7
ATOM      7  S   UNL     1       2.844   5.141  18.732  0.00  0.00    +0.000 S 
ATOM      8  O   UNL     1       3.495   4.817  19.984  0.00  0.00    +0.000 OA
ATOM      9  O   UNL     1       1.710   4.379  18.260  0.00  0.00    +0.000 OA
BRANCH   7  10
ATOM     10  N   UNL     1       3.981   5.136  17.498  0.00  0.00    +0.000 N 
ATOM     11  C   UNL     1       5.243   5.682  17.796  0.00  0.00    +0.000 A 
ATOM     12  C   UNL     1       6.222   4.971  18.474  0.00  0.00    +0.000 A 
ATOM     13  C   UNL     1       7.443   5.604  18.702  0.00  0.00    +0.000 A 
ATOM     14  C   UNL     1       7.612   6.910  18.267  0.00  0.00    +0.000 A 
ATOM     15  F   UNL     1       8.772   7.547  18.461  0.00  0.00    +0.000 F 
ATOM     16  C   UNL     1       6.562   7.541  17.621  0.00  0.00    +0.000 A 
ATOM     17  N   UNL     1       5.367   6.950  17.373  0.00  0.00    +0.000 NA
ATOM     18  H   UNL     1       3.590   5.550  16.653  0.00  0.00    +0.000 HD
ENDBRANCH   7  10
ENDBRANCH   3   7
BRANCH   1  20
ATOM     19  N   UNL     1       0.869   9.500  22.577  0.00  0.00    +0.000 NA
ATOM     20  C   UNL     1       1.142   9.098  21.521  0.00  0.00    +0.000 C 
ENDBRANCH   1  20
BRANCH   6  21
ATOM     21  O   UNL     1       0.925  10.789  19.018  0.00  0.00    +0.000 OA
BRANCH  21  22
ATOM     22  C   UNL     1      -0.406  11.046  18.805  0.00  0.00    +0.000 A 
ATOM     23  C   UNL     1      -1.071  10.284  17.857  0.00  0.00    +0.000 A 
ATOM     24  N   UNL     1      -2.401  10.366  17.604  0.00  0.00    +0.000 NA
ATOM     25  C   UNL     1      -3.153  11.232  18.339  0.00  0.00    +0.000 A 
ATOM     26  C   UNL     1      -2.534  12.072  19.282  0.00  0.00    +0.000 A 
ATOM     27 CL   UNL     1      -3.371  13.163  20.330  0.00  0.00    +0.000 Cl
ATOM     28  C   UNL     1      -1.145  12.018  19.462  0.00  0.00    +0.000 A 
BRANCH  25  29
ATOM     29  N   UNL     1      -4.524  11.247  18.071  0.00  0.00    +0.000 N 
ATOM     30  C   UNL     1      -5.278  12.069  17.185  0.00  0.00    +0.000 C 
ATOM     31  C   UNL     1      -6.526  11.612  17.947  0.00  0.00    +0.000 C 
ATOM     32  C   UNL     1      -5.644  10.506  18.528  0.00  0.00    +0.000 C 
ENDBRANCH  25  29
ENDBRANCH  21  22
ENDBRANCH   6  21
TORSDOF 6
ENDMDL
