MODEL 1
REMARK VINA RESULT:      -6.4      0.000      0.000
REMARK  Name = 
REMARK  12 active torsions:
REMARK  status: ('A' for Active; 'I' for Inactive)
REMARK    1  A    between atoms: C_1  and  C_2
REMARK    2  A    between atoms: C_2  and  C_3
REMARK    3  A    between atoms: C_3  and  C_4
REMARK    4  A    between atoms: C_4  and  C_5
REMARK    5  A    between atoms: C_5  and  C_6
REMARK    6  A    between atoms: C_6  and  C_7
REMARK    7  A    between atoms: C_7  and  C_8
REMARK    8  A    between atoms: C_8  and  C_9
REMARK    9  A    between atoms: C_9  and  C_10
REMARK   10  A    between atoms: C_10  and  N_11
REMARK   11  A    between atoms: N_14  and  N_15
REMARK   12  A    between atoms: C_16  and  C_18
REMARK                            x       y       z     vdW  Elec       q    Type
REMARK                         _______ _______ _______ _____ _____    ______ ____
ROOT
ATOM      1  N   UNL     1       6.695   6.037  17.558  0.00  0.00    +0.000 N 
ATOM      2  C   UNL     1       7.642   6.784  18.216  0.00  0.00    +0.000 C 
ATOM      3  O   UNL     1       8.322   6.355  19.142  0.00  0.00    +0.000 OA
ATOM      4  N   UNL     1       7.783   8.070  17.740  0.00  0.00    +0.000 N 
ATOM      5  H   UNL     1       6.190   6.446  16.787  0.00  0.00    +0.000 HD
ATOM      6  H   UNL     1       7.195   8.497  17.031  0.00  0.00    +0.000 HD
ENDROOT
BRANCH   4   7
ATOM      7  N   UNL     1       8.731   8.897  18.375  0.00  0.00    +0.000 N 
ATOM      8  C   UNL     1       8.713  10.262  18.159  0.00  0.00    +0.000 C 
ATOM      9  O   UNL     1       7.881  10.814  17.443  0.00  0.00    +0.000 OA
ATOM     10  H   UNL     1       9.311   8.430  19.069  0.00  0.00    +0.000 HD
BRANCH   8  11
ATOM     11  C   UNL     1       9.756  11.074  18.857  0.00  0.00    +0.000 A 
ATOM     12  C   UNL     1       9.687  11.361  20.224  0.00  0.00    +0.000 A 
ATOM     13  C   UNL     1      10.730  12.078  20.791  0.00  0.00    +0.000 A 
ATOM     14  N   UNL     1      11.802  12.528  20.103  0.00  0.00    +0.000 NA
ATOM     15  C   UNL     1      11.853  12.232  18.788  0.00  0.00    +0.000 A 
ATOM     16  C   UNL     1      10.865  11.513  18.127  0.00  0.00    +0.000 A 
ENDBRANCH   8  11
ENDBRANCH   4   7
BRANCH   1  17
ATOM     17  C   UNL     1       6.455   4.632  17.883  0.00  0.00    +0.000 C 
BRANCH  17  18
ATOM     18  C   UNL     1       5.211   4.428  18.755  0.00  0.00    +0.000 C 
BRANCH  18  19
ATOM     19  C   UNL     1       4.133   5.487  18.473  0.00  0.00    +0.000 C 
BRANCH  19  20
ATOM     20  C   UNL     1       2.899   4.879  17.799  0.00  0.00    +0.000 C 
BRANCH  20  21
ATOM     21  C   UNL     1       3.166   3.453  17.313  0.00  0.00    +0.000 C 
BRANCH  21  22
ATOM     22  C   UNL     1       2.125   2.476  17.862  0.00  0.00    +0.000 C 
BRANCH  22  23
ATOM     23  C   UNL     1       0.925   3.219  18.446  0.00  0.00    +0.000 C 
BRANCH  23  24
ATOM     24  C   UNL     1       0.694   2.821  19.902  0.00  0.00    +0.000 C 
BRANCH  24  26
ATOM     25  C   UNL     1       2.596   2.896  21.540  0.00  0.00    +0.000 C 
ATOM     26  C   UNL     1       1.505   3.700  20.851  0.00  0.00    +0.000 C 
ENDBRANCH  24  26
ENDBRANCH  23  24
ENDBRANCH  22  23
ENDBRANCH  21  22
ENDBRANCH  20  21
ENDBRANCH  19  20
ENDBRANCH  18  19
ENDBRANCH  17  18
ENDBRANCH   1  17
TORSDOF 11
ENDMDL
MODEL 2
REMARK VINA RESULT:      -6.1      0.699      1.485
REMARK  Name = 
REMARK  12 active torsions:
REMARK  status: ('A' for Active; 'I' for Inactive)
REMARK    1  A    between atoms: C_1  and  C_2
REMARK    2  A    between atoms: C_2  and  C_3
REMARK    3  A    between atoms: C_3  and  C_4
REMARK    4  A    between atoms: C_4  and  C_5
REMARK    5  A    between atoms: C_5  and  C_6
REMARK    6  A    between atoms: C_6  and  C_7
REMARK    7  A    between atoms: C_7  and  C_8
REMARK    8  A    between atoms: C_8  and  C_9
REMARK    9  A    between atoms: C_9  and  C_10
REMARK   10  A    between atoms: C_10  and  N_11
REMARK   11  A    between atoms: N_14  and  N_15
REMARK   12  A    between atoms: C_16  and  C_18
REMARK                            x       y       z     vdW  Elec       q    Type
REMARK                         _______ _______ _______ _____ _____    ______ ____
ROOT
ATOM      1  N   UNL     1       6.552   6.093  17.584  0.00  0.00    +0.000 N 
ATOM      2  C   UNL     1       7.546   6.819  18.195  0.00  0.00    +0.000 C 
ATOM      3  O   UNL     1       8.243   6.382  19.105  0.00  0.00    +0.000 OA
ATOM      4  N   UNL     1       7.714   8.090  17.689  0.00  0.00    +0.000 N 
ATOM      5  H   UNL     1       6.034   6.506  16.823  0.00  0.00    +0.000 HD
ATOM      6  H   UNL     1       7.116   8.524  16.993  0.00  0.00    +0.000 HD
ENDROOT
BRANCH   4   7
ATOM      7  N   UNL     1       8.712   8.894  18.275  0.00  0.00    +0.000 N 
ATOM      8  C   UNL     1       8.697  10.264  18.085  0.00  0.00    +0.000 C 
ATOM      9  O   UNL     1       7.826  10.837  17.436  0.00  0.00    +0.000 OA
ATOM     10  H   UNL     1       9.331   8.408  18.920  0.00  0.00    +0.000 HD
BRANCH   8  11
ATOM     11  C   UNL     1       9.793  11.051  18.727  0.00  0.00    +0.000 A 
ATOM     12  C   UNL     1      10.837  11.615  17.989  0.00  0.00    +0.000 A 
ATOM     13  C   UNL     1      11.779  12.373  18.669  0.00  0.00    +0.000 A 
ATOM     14  N   UNL     1      11.757  12.589  20.002  0.00  0.00    +0.000 NA
ATOM     15  C   UNL     1      10.736  12.045  20.694  0.00  0.00    +0.000 A 
ATOM     16  C   UNL     1       9.738  11.277  20.107  0.00  0.00    +0.000 A 
ENDBRANCH   8  11
ENDBRANCH   4   7
BRANCH   1  17
ATOM     17  C   UNL     1       6.275   4.704  17.945  0.00  0.00    +0.000 C 
BRANCH  17  18
ATOM     18  C   UNL     1       5.486   3.955  16.866  0.00  0.00    +0.000 C 
BRANCH  18  19
ATOM     19  C   UNL     1       4.073   4.532  16.684  0.00  0.00    +0.000 C 
BRANCH  19  20
ATOM     20  C   UNL     1       2.990   3.541  17.124  0.00  0.00    +0.000 C 
BRANCH  20  21
ATOM     21  C   UNL     1       1.901   4.226  17.953  0.00  0.00    +0.000 C 
BRANCH  21  22
ATOM     22  C   UNL     1       0.974   3.200  18.606  0.00  0.00    +0.000 C 
BRANCH  22  23
ATOM     23  C   UNL     1       0.755   3.515  20.084  0.00  0.00    +0.000 C 
BRANCH  23  24
ATOM     24  C   UNL     1       2.066   3.914  20.757  0.00  0.00    +0.000 C 
BRANCH  24  26
ATOM     25  C   UNL     1       4.014   2.371  20.399  0.00  0.00    +0.000 C 
ATOM     26  C   UNL     1       2.815   2.690  21.277  0.00  0.00    +0.000 C 
ENDBRANCH  24  26
ENDBRANCH  23  24
ENDBRANCH  22  23
ENDBRANCH  21  22
ENDBRANCH  20  21
ENDBRANCH  19  20
ENDBRANCH  18  19
ENDBRANCH  17  18
ENDBRANCH   1  17
TORSDOF 11
ENDMDL
MODEL 3
REMARK VINA RESULT:      -6.1      1.789      2.092
REMARK  Name = 
REMARK  12 active torsions:
REMARK  status: ('A' for Active; 'I' for Inactive)
REMARK    1  A    between atoms: C_1  and  C_2
REMARK    2  A    between atoms: C_2  and  C_3
REMARK    3  A    between atoms: C_3  and  C_4
REMARK    4  A    between atoms: C_4  and  C_5
REMARK    5  A    between atoms: C_5  and  C_6
REMARK    6  A    between atoms: C_6  and  C_7
REMARK    7  A    between atoms: C_7  and  C_8
REMARK    8  A    between atoms: C_8  and  C_9
REMARK    9  A    between atoms: C_9  and  C_10
REMARK   10  A    between atoms: C_10  and  N_11
REMARK   11  A    between atoms: N_14  and  N_15
REMARK   12  A    between atoms: C_16  and  C_18
REMARK                            x       y       z     vdW  Elec       q    Type
REMARK                         _______ _______ _______ _____ _____    ______ ____
ROOT
ATOM      1  N   UNL     1       7.895   6.555  18.492  0.00  0.00    +0.000 N 
ATOM      2  C   UNL     1       8.088   7.862  18.113  0.00  0.00    +0.000 C 
ATOM      3  O   UNL     1       7.592   8.357  17.106  0.00  0.00    +0.000 OA
ATOM      4  N   UNL     1       8.883   8.592  18.972  0.00  0.00    +0.000 N 
ATOM      5  H   UNL     1       8.313   6.221  19.347  0.00  0.00    +0.000 HD
ATOM      6  H   UNL     1       9.377   8.211  19.772  0.00  0.00    +0.000 HD
ENDROOT
BRANCH   4   7
ATOM      7  N   UNL     1       9.129   9.939  18.640  0.00  0.00    +0.000 N 
ATOM      8  C   UNL     1       9.323  10.873  19.641  0.00  0.00    +0.000 C 
ATOM      9  O   UNL     1       9.312  10.583  20.835  0.00  0.00    +0.000 OA
ATOM     10  H   UNL     1       9.274  10.117  17.649  0.00  0.00    +0.000 HD
BRANCH   8  11
ATOM     11  C   UNL     1       9.569  12.284  19.215  0.00  0.00    +0.000 A 
ATOM     12  C   UNL     1       9.548  13.351  20.119  0.00  0.00    +0.000 A 
ATOM     13  C   UNL     1       9.840  14.618  19.636  0.00  0.00    +0.000 A 
ATOM     14  N   UNL     1      10.131  14.887  18.345  0.00  0.00    +0.000 NA
ATOM     15  C   UNL     1      10.155  13.844  17.492  0.00  0.00    +0.000 A 
ATOM     16  C   UNL     1       9.886  12.536  17.876  0.00  0.00    +0.000 A 
ENDBRANCH   8  11
ENDBRANCH   4   7
BRANCH   1  17
ATOM     17  C   UNL     1       7.030   5.651  17.738  0.00  0.00    +0.000 C 
BRANCH  17  18
ATOM     18  C   UNL     1       5.618   5.550  18.326  0.00  0.00    +0.000 C 
BRANCH  18  19
ATOM     19  C   UNL     1       4.537   5.617  17.236  0.00  0.00    +0.000 C 
BRANCH  19  20
ATOM     20  C   UNL     1       3.519   4.479  17.371  0.00  0.00    +0.000 C 
BRANCH  20  21
ATOM     21  C   UNL     1       2.205   4.968  17.988  0.00  0.00    +0.000 C 
BRANCH  21  22
ATOM     22  C   UNL     1       2.454   5.711  19.302  0.00  0.00    +0.000 C 
BRANCH  22  23
ATOM     23  C   UNL     1       1.624   5.116  20.438  0.00  0.00    +0.000 C 
BRANCH  23  24
ATOM     24  C   UNL     1       0.880   3.866  19.973  0.00  0.00    +0.000 C 
BRANCH  24  26
ATOM     25  C   UNL     1       2.325   3.010  21.839  0.00  0.00    +0.000 C 
ATOM     26  C   UNL     1       1.308   2.638  20.773  0.00  0.00    +0.000 C 
ENDBRANCH  24  26
ENDBRANCH  23  24
ENDBRANCH  22  23
ENDBRANCH  21  22
ENDBRANCH  20  21
ENDBRANCH  19  20
ENDBRANCH  18  19
ENDBRANCH  17  18
ENDBRANCH   1  17
TORSDOF 11
ENDMDL
MODEL 4
REMARK VINA RESULT:      -6.1      6.017      8.436
REMARK  Name = 
REMARK  12 active torsions:
REMARK  status: ('A' for Active; 'I' for Inactive)
REMARK    1  A    between atoms: C_1  and  C_2
REMARK    2  A    between atoms: C_2  and  C_3
REMARK    3  A    between atoms: C_3  and  C_4
REMARK    4  A    between atoms: C_4  and  C_5
REMARK    5  A    between atoms: C_5  and  C_6
REMARK    6  A    between atoms: C_6  and  C_7
REMARK    7  A    between atoms: C_7  and  C_8
REMARK    8  A    between atoms: C_8  and  C_9
REMARK    9  A    between atoms: C_9  and  C_10
REMARK   10  A    between atoms: C_10  and  N_11
REMARK   11  A    between atoms: N_14  and  N_15
REMARK   12  A    between atoms: C_16  and  C_18
REMARK                            x       y       z     vdW  Elec       q    Type
REMARK                         _______ _______ _______ _____ _____    ______ ____
ROOT
ATOM      1  N   UNL     1       3.442   5.802  19.885  0.00  0.00    +0.000 N 
ATOM      2  C   UNL     1       2.526   6.807  19.686  0.00  0.00    +0.000 C 
ATOM      3  O   UNL     1       2.184   7.204  18.577  0.00  0.00    +0.000 OA
ATOM      4  N   UNL     1       2.001   7.334  20.847  0.00  0.00    +0.000 N 
ATOM      5  H   UNL     1       3.658   5.507  20.825  0.00  0.00    +0.000 HD
ATOM      6  H   UNL     1       2.306   7.095  21.785  0.00  0.00    +0.000 HD
ENDROOT
BRANCH   4   7
ATOM      7  N   UNL     1       1.060   8.375  20.719  0.00  0.00    +0.000 N 
ATOM      8  C   UNL     1       0.898   9.291  21.742  0.00  0.00    +0.000 C 
ATOM      9  O   UNL     1       1.560   9.260  22.776  0.00  0.00    +0.000 OA
ATOM     10  H   UNL     1       0.634   8.457  19.798  0.00  0.00    +0.000 HD
BRANCH   8  11
ATOM     11  C   UNL     1      -0.126  10.361  21.540  0.00  0.00    +0.000 A 
ATOM     12  C   UNL     1      -0.615  11.134  22.597  0.00  0.00    +0.000 A 
ATOM     13  C   UNL     1      -1.525  12.139  22.302  0.00  0.00    +0.000 A 
ATOM     14  N   UNL     1      -1.977  12.408  21.058  0.00  0.00    +0.000 NA
ATOM     15  C   UNL     1      -1.485  11.657  20.051  0.00  0.00    +0.000 A 
ATOM     16  C   UNL     1      -0.565  10.633  20.240  0.00  0.00    +0.000 A 
ENDBRANCH   8  11
ENDBRANCH   4   7
BRANCH   1  17
ATOM     17  C   UNL     1       4.054   5.082  18.769  0.00  0.00    +0.000 C 
BRANCH  17  18
ATOM     18  C   UNL     1       5.474   5.566  18.457  0.00  0.00    +0.000 C 
BRANCH  18  19
ATOM     19  C   UNL     1       5.488   6.618  17.336  0.00  0.00    +0.000 C 
BRANCH  19  20
ATOM     20  C   UNL     1       5.421   5.974  15.947  0.00  0.00    +0.000 C 
BRANCH  20  21
ATOM     21  C   UNL     1       6.298   4.723  15.863  0.00  0.00    +0.000 C 
BRANCH  21  22
ATOM     22  C   UNL     1       6.056   3.964  14.558  0.00  0.00    +0.000 C 
BRANCH  22  23
ATOM     23  C   UNL     1       6.955   4.486  13.439  0.00  0.00    +0.000 C 
BRANCH  23  24
ATOM     24  C   UNL     1       6.594   3.839  12.104  0.00  0.00    +0.000 C 
BRANCH  24  26
ATOM     25  C   UNL     1       4.300   3.240  11.278  0.00  0.00    +0.000 C 
ATOM     26  C   UNL     1       5.411   2.886  12.253  0.00  0.00    +0.000 C 
ENDBRANCH  24  26
ENDBRANCH  23  24
ENDBRANCH  22  23
ENDBRANCH  21  22
ENDBRANCH  20  21
ENDBRANCH  19  20
ENDBRANCH  18  19
ENDBRANCH  17  18
ENDBRANCH   1  17
TORSDOF 11
ENDMDL
MODEL 5
REMARK VINA RESULT:      -6.1      1.724      2.120
REMARK  Name = 
REMARK  12 active torsions:
REMARK  status: ('A' for Active; 'I' for Inactive)
REMARK    1  A    between atoms: C_1  and  C_2
REMARK    2  A    between atoms: C_2  and  C_3
REMARK    3  A    between atoms: C_3  and  C_4
REMARK    4  A    between atoms: C_4  and  C_5
REMARK    5  A    between atoms: C_5  and  C_6
REMARK    6  A    between atoms: C_6  and  C_7
REMARK    7  A    between atoms: C_7  and  C_8
REMARK    8  A    between atoms: C_8  and  C_9
REMARK    9  A    between atoms: C_9  and  C_10
REMARK   10  A    between atoms: C_10  and  N_11
REMARK   11  A    between atoms: N_14  and  N_15
REMARK   12  A    between atoms: C_16  and  C_18
REMARK                            x       y       z     vdW  Elec       q    Type
REMARK                         _______ _______ _______ _____ _____    ______ ____
ROOT
ATOM      1  N   UNL     1       7.811   6.784  18.483  0.00  0.00    +0.000 N 
ATOM      2  C   UNL     1       8.146   8.062  18.109  0.00  0.00    +0.000 C 
ATOM      3  O   UNL     1       7.843   8.554  17.026  0.00  0.00    +0.000 OA
ATOM      4  N   UNL     1       8.848   8.768  19.063  0.00  0.00    +0.000 N 
ATOM      5  H   UNL     1       8.070   6.452  19.399  0.00  0.00    +0.000 HD
ATOM      6  H   UNL     1       9.188   8.384  19.939  0.00  0.00    +0.000 HD
ENDROOT
BRANCH   4   7
ATOM      7  N   UNL     1       9.232  10.086  18.743  0.00  0.00    +0.000 N 
ATOM      8  C   UNL     1       9.463  11.003  19.751  0.00  0.00    +0.000 C 
ATOM      9  O   UNL     1       9.371  10.721  20.943  0.00  0.00    +0.000 OA
ATOM     10  H   UNL     1       9.438  10.246  17.759  0.00  0.00    +0.000 HD
BRANCH   8  11
ATOM     11  C   UNL     1       9.857  12.384  19.337  0.00  0.00    +0.000 A 
ATOM     12  C   UNL     1       9.859  12.790  17.999  0.00  0.00    +0.000 A 
ATOM     13  C   UNL     1      10.189  14.107  17.719  0.00  0.00    +0.000 A 
ATOM     14  N   UNL     1      10.522  15.019  18.657  0.00  0.00    +0.000 NA
ATOM     15  C   UNL     1      10.504  14.611  19.942  0.00  0.00    +0.000 A 
ATOM     16  C   UNL     1      10.179  13.316  20.328  0.00  0.00    +0.000 A 
ENDBRANCH   8  11
ENDBRANCH   4   7
BRANCH   1  17
ATOM     17  C   UNL     1       7.011   5.911  17.625  0.00  0.00    +0.000 C 
BRANCH  17  18
ATOM     18  C   UNL     1       5.545   6.348  17.534  0.00  0.00    +0.000 C 
BRANCH  18  19
ATOM     19  C   UNL     1       4.642   5.220  17.010  0.00  0.00    +0.000 C 
BRANCH  19  20
ATOM     20  C   UNL     1       3.435   4.984  17.923  0.00  0.00    +0.000 C 
BRANCH  20  21
ATOM     21  C   UNL     1       2.834   3.591  17.715  0.00  0.00    +0.000 C 
BRANCH  21  22
ATOM     22  C   UNL     1       1.325   3.597  17.964  0.00  0.00    +0.000 C 
BRANCH  22  23
ATOM     23  C   UNL     1       0.988   3.005  19.331  0.00  0.00    +0.000 C 
BRANCH  23  24
ATOM     24  C   UNL     1       0.900   4.100  20.392  0.00  0.00    +0.000 C 
BRANCH  24  26
ATOM     25  C   UNL     1       2.598   2.637  21.523  0.00  0.00    +0.000 C 
ATOM     26  C   UNL     1       2.106   4.062  21.327  0.00  0.00    +0.000 C 
ENDBRANCH  24  26
ENDBRANCH  23  24
ENDBRANCH  22  23
ENDBRANCH  21  22
ENDBRANCH  20  21
ENDBRANCH  19  20
ENDBRANCH  18  19
ENDBRANCH  17  18
ENDBRANCH   1  17
TORSDOF 11
ENDMDL
MODEL 6
REMARK VINA RESULT:      -6.0      5.985      8.364
REMARK  Name = 
REMARK  12 active torsions:
REMARK  status: ('A' for Active; 'I' for Inactive)
REMARK    1  A    between atoms: C_1  and  C_2
REMARK    2  A    between atoms: C_2  and  C_3
REMARK    3  A    between atoms: C_3  and  C_4
REMARK    4  A    between atoms: C_4  and  C_5
REMARK    5  A    between atoms: C_5  and  C_6
REMARK    6  A    between atoms: C_6  and  C_7
REMARK    7  A    between atoms: C_7  and  C_8
REMARK    8  A    between atoms: C_8  and  C_9
REMARK    9  A    between atoms: C_9  and  C_10
REMARK   10  A    between atoms: C_10  and  N_11
REMARK   11  A    between atoms: N_14  and  N_15
REMARK   12  A    between atoms: C_16  and  C_18
REMARK                            x       y       z     vdW  Elec       q    Type
REMARK                         _______ _______ _______ _____ _____    ______ ____
ROOT
ATOM      1  N   UNL     1       2.745   5.112  20.474  0.00  0.00    +0.000 N 
ATOM      2  C   UNL     1       2.391   6.396  20.135  0.00  0.00    +0.000 C 
ATOM      3  O   UNL     1       2.709   6.931  19.077  0.00  0.00    +0.000 OA
ATOM      4  N   UNL     1       1.628   7.044  21.083  0.00  0.00    +0.000 N 
ATOM      5  H   UNL     1       2.428   4.726  21.350  0.00  0.00    +0.000 HD
ATOM      6  H   UNL     1       1.404   6.676  22.002  0.00  0.00    +0.000 HD
ENDROOT
BRANCH   4   7
ATOM      7  N   UNL     1       1.235   8.369  20.804  0.00  0.00    +0.000 N 
ATOM      8  C   UNL     1       0.028   8.846  21.279  0.00  0.00    +0.000 C 
ATOM      9  O   UNL     1      -0.733   8.170  21.967  0.00  0.00    +0.000 OA
ATOM     10  H   UNL     1       1.947   8.943  20.358  0.00  0.00    +0.000 HD
BRANCH   8  11
ATOM     11  C   UNL     1      -0.327  10.257  20.936  0.00  0.00    +0.000 A 
ATOM     12  C   UNL     1      -0.481  10.688  19.614  0.00  0.00    +0.000 A 
ATOM     13  C   UNL     1      -0.863  12.003  19.399  0.00  0.00    +0.000 A 
ATOM     14  N   UNL     1      -1.083  12.898  20.386  0.00  0.00    +0.000 NA
ATOM     15  C   UNL     1      -0.939  12.460  21.653  0.00  0.00    +0.000 A 
ATOM     16  C   UNL     1      -0.568  11.161  21.976  0.00  0.00    +0.000 A 
ENDBRANCH   8  11
ENDBRANCH   4   7
BRANCH   1  17
ATOM     17  C   UNL     1       3.499   4.252  19.564  0.00  0.00    +0.000 C 
BRANCH  17  18
ATOM     18  C   UNL     1       2.616   3.593  18.499  0.00  0.00    +0.000 C 
BRANCH  18  19
ATOM     19  C   UNL     1       3.207   3.746  17.089  0.00  0.00    +0.000 C 
BRANCH  19  20
ATOM     20  C   UNL     1       4.710   4.043  17.129  0.00  0.00    +0.000 C 
BRANCH  20  21
ATOM     21  C   UNL     1       5.060   5.291  16.315  0.00  0.00    +0.000 C 
BRANCH  21  22
ATOM     22  C   UNL     1       6.063   4.967  15.208  0.00  0.00    +0.000 C 
BRANCH  22  23
ATOM     23  C   UNL     1       5.405   4.174  14.080  0.00  0.00    +0.000 C 
BRANCH  23  24
ATOM     24  C   UNL     1       6.429   3.795  13.012  0.00  0.00    +0.000 C 
BRANCH  24  26
ATOM     25  C   UNL     1       4.419   3.337  11.578  0.00  0.00    +0.000 C 
ATOM     26  C   UNL     1       5.815   2.874  11.961  0.00  0.00    +0.000 C 
ENDBRANCH  24  26
ENDBRANCH  23  24
ENDBRANCH  22  23
ENDBRANCH  21  22
ENDBRANCH  20  21
ENDBRANCH  19  20
ENDBRANCH  18  19
ENDBRANCH  17  18
ENDBRANCH   1  17
TORSDOF 11
ENDMDL
MODEL 7
REMARK VINA RESULT:      -6.0      1.543      2.036
REMARK  Name = 
REMARK  12 active torsions:
REMARK  status: ('A' for Active; 'I' for Inactive)
REMARK    1  A    between atoms: C_1  and  C_2
REMARK    2  A    between atoms: C_2  and  C_3
REMARK    3  A    between atoms: C_3  and  C_4
REMARK    4  A    between atoms: C_4  and  C_5
REMARK    5  A    between atoms: C_5  and  C_6
REMARK    6  A    between atoms: C_6  and  C_7
REMARK    7  A    between atoms: C_7  and  C_8
REMARK    8  A    between atoms: C_8  and  C_9
REMARK    9  A    between atoms: C_9  and  C_10
REMARK   10  A    between atoms: C_10  and  N_11
REMARK   11  A    between atoms: N_14  and  N_15
REMARK   12  A    between atoms: C_16  and  C_18
REMARK                            x       y       z     vdW  Elec       q    Type
REMARK                         _______ _______ _______ _____ _____    ______ ____
ROOT
ATOM      1  N   UNL     1       7.135   6.219  18.348  0.00  0.00    +0.000 N 
ATOM      2  C   UNL     1       7.774   7.341  17.878  0.00  0.00    +0.000 C 
ATOM      3  O   UNL     1       7.903   7.600  16.686  0.00  0.00    +0.000 OA
ATOM      4  N   UNL     1       8.255   8.176  18.865  0.00  0.00    +0.000 N 
ATOM      5  H   UNL     1       7.042   6.081  19.342  0.00  0.00    +0.000 HD
ATOM      6  H   UNL     1       8.241   7.971  19.859  0.00  0.00    +0.000 HD
ENDROOT
BRANCH   4   7
ATOM      7  N   UNL     1       8.929   9.343  18.455  0.00  0.00    +0.000 N 
ATOM      8  C   UNL     1       9.272  10.306  19.386  0.00  0.00    +0.000 C 
ATOM      9  O   UNL     1       9.035  10.189  20.586  0.00  0.00    +0.000 OA
ATOM     10  H   UNL     1       9.236   9.343  17.485  0.00  0.00    +0.000 HD
BRANCH   8  11
ATOM     11  C   UNL     1       9.976  11.523  18.877  0.00  0.00    +0.000 A 
ATOM     12  C   UNL     1      10.541  11.578  17.600  0.00  0.00    +0.000 A 
ATOM     13  C   UNL     1      11.128  12.769  17.199  0.00  0.00    +0.000 A 
ATOM     14  N   UNL     1      11.199  13.875  17.971  0.00  0.00    +0.000 NA
ATOM     15  C   UNL     1      10.639  13.804  19.196  0.00  0.00    +0.000 A 
ATOM     16  C   UNL     1      10.020  12.661  19.689  0.00  0.00    +0.000 A 
ENDBRANCH   8  11
ENDBRANCH   4   7
BRANCH   1  17
ATOM     17  C   UNL     1       6.506   5.254  17.448  0.00  0.00    +0.000 C 
BRANCH  17  18
ATOM     18  C   UNL     1       4.983   5.202  17.602  0.00  0.00    +0.000 C 
BRANCH  18  19
ATOM     19  C   UNL     1       4.479   3.770  17.840  0.00  0.00    +0.000 C 
BRANCH  19  20
ATOM     20  C   UNL     1       3.110   3.531  17.194  0.00  0.00    +0.000 C 
BRANCH  20  21
ATOM     21  C   UNL     1       2.352   2.394  17.883  0.00  0.00    +0.000 C 
BRANCH  21  22
ATOM     22  C   UNL     1       2.853   2.181  19.312  0.00  0.00    +0.000 C 
BRANCH  22  23
ATOM     23  C   UNL     1       1.730   2.385  20.328  0.00  0.00    +0.000 C 
BRANCH  23  24
ATOM     24  C   UNL     1       1.989   3.622  21.185  0.00  0.00    +0.000 C 
BRANCH  24  26
ATOM     25  C   UNL     1       2.231   5.856  20.065  0.00  0.00    +0.000 C 
ATOM     26  C   UNL     1       1.253   4.841  20.635  0.00  0.00    +0.000 C 
ENDBRANCH  24  26
ENDBRANCH  23  24
ENDBRANCH  22  23
ENDBRANCH  21  22
ENDBRANCH  20  21
ENDBRANCH  19  20
ENDBRANCH  18  19
ENDBRANCH  17  18
ENDBRANCH   1  17
TORSDOF 11
ENDMDL
MODEL 8
REMARK VINA RESULT:      -6.0      5.912      8.100
REMARK  Name = 
REMARK  12 active torsions:
REMARK  status: ('A' for Active; 'I' for Inactive)
REMARK    1  A    between atoms: C_1  and  C_2
REMARK    2  A    between atoms: C_2  and  C_3
REMARK    3  A    between atoms: C_3  and  C_4
REMARK    4  A    between atoms: C_4  and  C_5
REMARK    5  A    between atoms: C_5  and  C_6
REMARK    6  A    between atoms: C_6  and  C_7
REMARK    7  A    between atoms: C_7  and  C_8
REMARK    8  A    between atoms: C_8  and  C_9
REMARK    9  A    between atoms: C_9  and  C_10
REMARK   10  A    between atoms: C_10  and  N_11
REMARK   11  A    between atoms: N_14  and  N_15
REMARK   12  A    between atoms: C_16  and  C_18
REMARK                            x       y       z     vdW  Elec       q    Type
REMARK                         _______ _______ _______ _____ _____    ______ ____
ROOT
ATOM      1  N   UNL     1       3.247   4.617  19.695  0.00  0.00    +0.000 N 
ATOM      2  C   UNL     1       2.407   5.423  20.424  0.00  0.00    +0.000 C 
ATOM      3  O   UNL     1       1.584   4.995  21.227  0.00  0.00    +0.000 OA
ATOM      4  N   UNL     1       2.571   6.772  20.193  0.00  0.00    +0.000 N 
ATOM      5  H   UNL     1       3.919   5.038  19.071  0.00  0.00    +0.000 HD
ATOM      6  H   UNL     1       3.180   7.172  19.487  0.00  0.00    +0.000 HD
ENDROOT
BRANCH   4   7
ATOM      7  N   UNL     1       1.735   7.658  20.903  0.00  0.00    +0.000 N 
ATOM      8  C   UNL     1       1.211   8.770  20.270  0.00  0.00    +0.000 C 
ATOM      9  O   UNL     1       1.421   9.026  19.087  0.00  0.00    +0.000 OA
ATOM     10  H   UNL     1       1.466   7.343  21.832  0.00  0.00    +0.000 HD
BRANCH   8  11
ATOM     11  C   UNL     1       0.342   9.670  21.088  0.00  0.00    +0.000 A 
ATOM     12  C   UNL     1      -0.266  10.810  20.552  0.00  0.00    +0.000 A 
ATOM     13  C   UNL     1      -1.097  11.553  21.376  0.00  0.00    +0.000 A 
ATOM     14  N   UNL     1      -1.345  11.251  22.669  0.00  0.00    +0.000 NA
ATOM     15  C   UNL     1      -0.758  10.143  23.164  0.00  0.00    +0.000 A 
ATOM     16  C   UNL     1       0.084   9.327  22.419  0.00  0.00    +0.000 A 
ENDBRANCH   8  11
ENDBRANCH   4   7
BRANCH   1  17
ATOM     17  C   UNL     1       3.260   3.165  19.857  0.00  0.00    +0.000 C 
BRANCH  17  18
ATOM     18  C   UNL     1       2.662   2.426  18.655  0.00  0.00    +0.000 C 
BRANCH  18  19
ATOM     19  C   UNL     1       2.792   3.240  17.359  0.00  0.00    +0.000 C 
BRANCH  19  20
ATOM     20  C   UNL     1       4.193   3.122  16.749  0.00  0.00    +0.000 C 
BRANCH  20  21
ATOM     21  C   UNL     1       4.810   4.498  16.482  0.00  0.00    +0.000 C 
BRANCH  21  22
ATOM     22  C   UNL     1       6.337   4.428  16.482  0.00  0.00    +0.000 C 
BRANCH  22  23
ATOM     23  C   UNL     1       6.891   4.439  15.058  0.00  0.00    +0.000 C 
BRANCH  23  24
ATOM     24  C   UNL     1       5.760   4.381  14.034  0.00  0.00    +0.000 C 
BRANCH  24  26
ATOM     25  C   UNL     1       4.968   3.204  11.963  0.00  0.00    +0.000 C 
ATOM     26  C   UNL     1       6.179   3.600  12.791  0.00  0.00    +0.000 C 
ENDBRANCH  24  26
ENDBRANCH  23  24
ENDBRANCH  22  23
ENDBRANCH  21  22
ENDBRANCH  20  21
ENDBRANCH  19  20
ENDBRANCH  18  19
ENDBRANCH  17  18
ENDBRANCH   1  17
TORSDOF 11
ENDMDL
MODEL 9
REMARK VINA RESULT:      -6.0      1.303      1.705
REMARK  Name = 
REMARK  12 active torsions:
REMARK  status: ('A' for Active; 'I' for Inactive)
REMARK    1  A    between atoms: C_1  and  C_2
REMARK    2  A    between atoms: C_2  and  C_3
REMARK    3  A    between atoms: C_3  and  C_4
REMARK    4  A    between atoms: C_4  and  C_5
REMARK    5  A    between atoms: C_5  and  C_6
REMARK    6  A    between atoms: C_6  and  C_7
REMARK    7  A    between atoms: C_7  and  C_8
REMARK    8  A    between atoms: C_8  and  C_9
REMARK    9  A    between atoms: C_9  and  C_10
REMARK   10  A    between atoms: C_10  and  N_11
REMARK   11  A    between atoms: N_14  and  N_15
REMARK   12  A    between atoms: C_16  and  C_18
REMARK                            x       y       z     vdW  Elec       q    Type
REMARK                         _______ _______ _______ _____ _____    ______ ____
ROOT
ATOM      1  N   UNL     1       6.921   7.023  17.077  0.00  0.00    +0.000 N 
ATOM      2  C   UNL     1       7.788   7.791  17.816  0.00  0.00    +0.000 C 
ATOM      3  O   UNL     1       8.512   7.340  18.698  0.00  0.00    +0.000 OA
ATOM      4  N   UNL     1       7.795   9.127  17.474  0.00  0.00    +0.000 N 
ATOM      5  H   UNL     1       6.374   7.455  16.349  0.00  0.00    +0.000 HD
ATOM      6  H   UNL     1       7.164   9.562  16.808  0.00  0.00    +0.000 HD
ENDROOT
BRANCH   4   7
ATOM      7  N   UNL     1       8.657   9.976  18.197  0.00  0.00    +0.000 N 
ATOM      8  C   UNL     1       8.615  11.343  17.989  0.00  0.00    +0.000 C 
ATOM      9  O   UNL     1       7.834  11.875  17.204  0.00  0.00    +0.000 OA
ATOM     10  H   UNL     1       9.186   9.522  18.937  0.00  0.00    +0.000 HD
BRANCH   8  11
ATOM     11  C   UNL     1       9.565  12.180  18.783  0.00  0.00    +0.000 A 
ATOM     12  C   UNL     1       9.247  13.475  19.203  0.00  0.00    +0.000 A 
ATOM     13  C   UNL     1      10.174  14.154  19.980  0.00  0.00    +0.000 A 
ATOM     14  N   UNL     1      11.371  13.646  20.345  0.00  0.00    +0.000 NA
ATOM     15  C   UNL     1      11.654  12.392  19.939  0.00  0.00    +0.000 A 
ATOM     16  C   UNL     1      10.791  11.625  19.165  0.00  0.00    +0.000 A 
ENDBRANCH   8  11
ENDBRANCH   4   7
BRANCH   1  17
ATOM     17  C   UNL     1       6.827   5.575  17.256  0.00  0.00    +0.000 C 
BRANCH  17  18
ATOM     18  C   UNL     1       5.944   5.178  18.444  0.00  0.00    +0.000 C 
BRANCH  18  19
ATOM     19  C   UNL     1       4.634   4.515  17.990  0.00  0.00    +0.000 C 
BRANCH  19  20
ATOM     20  C   UNL     1       3.647   5.536  17.414  0.00  0.00    +0.000 C 
BRANCH  20  21
ATOM     21  C   UNL     1       2.353   5.590  18.230  0.00  0.00    +0.000 C 
BRANCH  21  22
ATOM     22  C   UNL     1       2.605   6.146  19.632  0.00  0.00    +0.000 C 
BRANCH  22  23
ATOM     23  C   UNL     1       2.052   5.211  20.705  0.00  0.00    +0.000 C 
BRANCH  23  24
ATOM     24  C   UNL     1       1.018   4.254  20.114  0.00  0.00    +0.000 C 
BRANCH  24  26
ATOM     25  C   UNL     1       1.986   2.595  21.731  0.00  0.00    +0.000 C 
ATOM     26  C   UNL     1       1.423   2.799  20.334  0.00  0.00    +0.000 C 
ENDBRANCH  24  26
ENDBRANCH  23  24
ENDBRANCH  22  23
ENDBRANCH  21  22
ENDBRANCH  20  21
ENDBRANCH  19  20
ENDBRANCH  18  19
ENDBRANCH  17  18
ENDBRANCH   1  17
TORSDOF 11
ENDMDL
