MODEL 1
REMARK VINA RESULT:      -6.4      0.000      0.000
REMARK  Name = 
REMARK  4 active torsions:
REMARK  status: ('A' for Active; 'I' for Inactive)
REMARK    1  A    between atoms: C_1  and  S_2
REMARK    2  A    between atoms: S_2  and  C_3
REMARK    3  A    between atoms: C_6  and  C_7
REMARK    4  A    between atoms: N_15  and  C_16
REMARK                            x       y       z     vdW  Elec       q    Type
REMARK                         _______ _______ _______ _____ _____    ______ ____
ROOT
ATOM      1  C   UNL     1       6.062   3.986  13.741  0.00  0.00    +0.000 C 
ATOM      2  N   UNL     1       5.178   3.793  14.669  0.00  0.00    +0.000 NA
ATOM      3  C   UNL     1       5.571   4.639  15.680  0.00  0.00    +0.000 C 
ATOM      4  C   UNL     1       5.014   4.801  16.886  0.00  0.00    +0.000 C 
ATOM      5  C   UNL     1       6.796   5.377  15.261  0.00  0.00    +0.000 C 
ATOM      6  O   UNL     1       7.423   6.195  15.910  0.00  0.00    +0.000 OA
ATOM      7  N   UNL     1       7.034   4.891  14.011  0.00  0.00    +0.000 N 
ATOM      8  C   UNL     1       8.170   5.279  13.203  0.00  0.00    +0.000 C 
ENDROOT
BRANCH   4   9
ATOM      9  C   UNL     1       3.866   4.023  17.353  0.00  0.00    +0.000 A 
ATOM     10  C   UNL     1       2.626   4.652  17.525  0.00  0.00    +0.000 A 
ATOM     11  C   UNL     1       1.534   3.934  18.018  0.00  0.00    +0.000 A 
ATOM     12  C   UNL     1       1.672   2.584  18.335  0.00  0.00    +0.000 A 
ATOM     13  C   UNL     1       2.897   1.946  18.146  0.00  0.00    +0.000 A 
ATOM     14  C   UNL     1       3.992   2.662  17.653  0.00  0.00    +0.000 A 
ENDBRANCH   4   9
BRANCH   1  16
ATOM     15  C   UNL     1       4.328   3.420  11.741  0.00  0.00    +0.000 C 
ATOM     16  S   UNL     1       6.050   3.161  12.218  0.00  0.00    +0.000 S 
ENDBRANCH   1  16
TORSDOF 2
ENDMDL
MODEL 2
REMARK VINA RESULT:      -6.3      0.060      1.209
REMARK  Name = 
REMARK  4 active torsions:
REMARK  status: ('A' for Active; 'I' for Inactive)
REMARK    1  A    between atoms: C_1  and  S_2
REMARK    2  A    between atoms: S_2  and  C_3
REMARK    3  A    between atoms: C_6  and  C_7
REMARK    4  A    between atoms: N_15  and  C_16
REMARK                            x       y       z     vdW  Elec       q    Type
REMARK                         _______ _______ _______ _____ _____    ______ ____
ROOT
ATOM      1  C   UNL     1       6.061   3.997  13.754  0.00  0.00    +0.000 C 
ATOM      2  N   UNL     1       5.186   3.820  14.693  0.00  0.00    +0.000 NA
ATOM      3  C   UNL     1       5.597   4.672  15.691  0.00  0.00    +0.000 C 
ATOM      4  C   UNL     1       5.055   4.851  16.902  0.00  0.00    +0.000 C 
ATOM      5  C   UNL     1       6.824   5.396  15.253  0.00  0.00    +0.000 C 
ATOM      6  O   UNL     1       7.465   6.214  15.887  0.00  0.00    +0.000 OA
ATOM      7  N   UNL     1       7.045   4.895  14.005  0.00  0.00    +0.000 N 
ATOM      8  C   UNL     1       8.175   5.266  13.181  0.00  0.00    +0.000 C 
ENDROOT
BRANCH   4   9
ATOM      9  C   UNL     1       3.905   4.087  17.389  0.00  0.00    +0.000 A 
ATOM     10  C   UNL     1       4.042   2.717  17.647  0.00  0.00    +0.000 A 
ATOM     11  C   UNL     1       2.941   1.965  18.063  0.00  0.00    +0.000 A 
ATOM     12  C   UNL     1       1.701   2.578  18.233  0.00  0.00    +0.000 A 
ATOM     13  C   UNL     1       1.563   3.946  18.000  0.00  0.00    +0.000 A 
ATOM     14  C   UNL     1       2.662   4.700  17.581  0.00  0.00    +0.000 A 
ENDBRANCH   4   9
BRANCH   1  16
ATOM     15  C   UNL     1       4.302   3.433  11.775  0.00  0.00    +0.000 C 
ATOM     16  S   UNL     1       6.026   3.158  12.239  0.00  0.00    +0.000 S 
ENDBRANCH   1  16
TORSDOF 2
ENDMDL
MODEL 3
REMARK VINA RESULT:      -6.3      4.198      6.588
REMARK  Name = 
REMARK  4 active torsions:
REMARK  status: ('A' for Active; 'I' for Inactive)
REMARK    1  A    between atoms: C_1  and  S_2
REMARK    2  A    between atoms: S_2  and  C_3
REMARK    3  A    between atoms: C_6  and  C_7
REMARK    4  A    between atoms: N_15  and  C_16
REMARK                            x       y       z     vdW  Elec       q    Type
REMARK                         _______ _______ _______ _____ _____    ______ ____
ROOT
ATOM      1  C   UNL     1       2.555   4.155  19.617  0.00  0.00    +0.000 C 
ATOM      2  N   UNL     1       3.633   4.782  19.269  0.00  0.00    +0.000 NA
ATOM      3  C   UNL     1       3.774   4.481  17.935  0.00  0.00    +0.000 C 
ATOM      4  C   UNL     1       4.754   4.854  17.102  0.00  0.00    +0.000 C 
ATOM      5  C   UNL     1       2.653   3.599  17.503  0.00  0.00    +0.000 C 
ATOM      6  O   UNL     1       2.468   3.129  16.396  0.00  0.00    +0.000 OA
ATOM      7  N   UNL     1       1.929   3.444  18.647  0.00  0.00    +0.000 N 
ATOM      8  C   UNL     1       0.748   2.613  18.742  0.00  0.00    +0.000 C 
ENDROOT
BRANCH   4   9
ATOM      9  C   UNL     1       5.912   5.644  17.523  0.00  0.00    +0.000 A 
ATOM     10  C   UNL     1       6.788   5.129  18.486  0.00  0.00    +0.000 A 
ATOM     11  C   UNL     1       7.869   5.891  18.935  0.00  0.00    +0.000 A 
ATOM     12  C   UNL     1       8.085   7.167  18.419  0.00  0.00    +0.000 A 
ATOM     13  C   UNL     1       7.229   7.677  17.444  0.00  0.00    +0.000 A 
ATOM     14  C   UNL     1       6.146   6.917  16.994  0.00  0.00    +0.000 A 
ENDBRANCH   4   9
BRANCH   1  16
ATOM     15  C   UNL     1       2.438   2.565  21.804  0.00  0.00    +0.000 C 
ATOM     16  S   UNL     1       1.900   4.187  21.221  0.00  0.00    +0.000 S 
ENDBRANCH   1  16
TORSDOF 2
ENDMDL
MODEL 4
REMARK VINA RESULT:      -6.3      4.228      6.520
REMARK  Name = 
REMARK  4 active torsions:
REMARK  status: ('A' for Active; 'I' for Inactive)
REMARK    1  A    between atoms: C_1  and  S_2
REMARK    2  A    between atoms: S_2  and  C_3
REMARK    3  A    between atoms: C_6  and  C_7
REMARK    4  A    between atoms: N_15  and  C_16
REMARK                            x       y       z     vdW  Elec       q    Type
REMARK                         _______ _______ _______ _____ _____    ______ ____
ROOT
ATOM      1  C   UNL     1       2.483   4.144  19.620  0.00  0.00    +0.000 C 
ATOM      2  N   UNL     1       3.563   4.785  19.302  0.00  0.00    +0.000 NA
ATOM      3  C   UNL     1       3.752   4.476  17.976  0.00  0.00    +0.000 C 
ATOM      4  C   UNL     1       4.752   4.857  17.172  0.00  0.00    +0.000 C 
ATOM      5  C   UNL     1       2.658   3.573  17.516  0.00  0.00    +0.000 C 
ATOM      6  O   UNL     1       2.516   3.092  16.407  0.00  0.00    +0.000 OA
ATOM      7  N   UNL     1       1.900   3.417  18.636  0.00  0.00    +0.000 N 
ATOM      8  C   UNL     1       0.729   2.568  18.700  0.00  0.00    +0.000 C 
ENDROOT
BRANCH   4   9
ATOM      9  C   UNL     1       5.883   5.668  17.624  0.00  0.00    +0.000 A 
ATOM     10  C   UNL     1       6.114   6.920  17.042  0.00  0.00    +0.000 A 
ATOM     11  C   UNL     1       7.219   7.684  17.427  0.00  0.00    +0.000 A 
ATOM     12  C   UNL     1       8.094   7.204  18.400  0.00  0.00    +0.000 A 
ATOM     13  C   UNL     1       7.857   5.968  19.000  0.00  0.00    +0.000 A 
ATOM     14  C   UNL     1       6.753   5.202  18.615  0.00  0.00    +0.000 A 
ENDBRANCH   4   9
BRANCH   1  16
ATOM     15  C   UNL     1       2.359   2.590  21.833  0.00  0.00    +0.000 C 
ATOM     16  S   UNL     1       1.776   4.178  21.202  0.00  0.00    +0.000 S 
ENDBRANCH   1  16
TORSDOF 2
ENDMDL
MODEL 5
REMARK VINA RESULT:      -6.0      4.324      6.256
REMARK  Name = 
REMARK  4 active torsions:
REMARK  status: ('A' for Active; 'I' for Inactive)
REMARK    1  A    between atoms: C_1  and  S_2
REMARK    2  A    between atoms: S_2  and  C_3
REMARK    3  A    between atoms: C_6  and  C_7
REMARK    4  A    between atoms: N_15  and  C_16
REMARK                            x       y       z     vdW  Elec       q    Type
REMARK                         _______ _______ _______ _____ _____    ______ ____
ROOT
ATOM      1  C   UNL     1       2.023   3.701  18.816  0.00  0.00    +0.000 C 
ATOM      2  N   UNL     1       1.786   4.972  18.894  0.00  0.00    +0.000 NA
ATOM      3  C   UNL     1       2.833   5.546  18.211  0.00  0.00    +0.000 C 
ATOM      4  C   UNL     1       3.085   6.847  18.025  0.00  0.00    +0.000 C 
ATOM      5  C   UNL     1       3.738   4.478  17.700  0.00  0.00    +0.000 C 
ATOM      6  O   UNL     1       4.766   4.623  17.066  0.00  0.00    +0.000 OA
ATOM      7  N   UNL     1       3.139   3.335  18.138  0.00  0.00    +0.000 N 
ATOM      8  C   UNL     1       3.685   2.012  17.925  0.00  0.00    +0.000 C 
ENDROOT
BRANCH   4   9
ATOM      9  C   UNL     1       2.262   7.916  18.594  0.00  0.00    +0.000 A 
ATOM     10  C   UNL     1       1.949   7.898  19.959  0.00  0.00    +0.000 A 
ATOM     11  C   UNL     1       1.124   8.882  20.507  0.00  0.00    +0.000 A 
ATOM     12  C   UNL     1       0.613   9.894  19.696  0.00  0.00    +0.000 A 
ATOM     13  C   UNL     1       0.938   9.932  18.341  0.00  0.00    +0.000 A 
ATOM     14  C   UNL     1       1.763   8.947  17.791  0.00  0.00    +0.000 A 
ENDBRANCH   4   9
BRANCH   1  16
ATOM     15  C   UNL     1       1.376   2.750  21.266  0.00  0.00    +0.000 C 
ATOM     16  S   UNL     1       1.004   2.489  19.518  0.00  0.00    +0.000 S 
ENDBRANCH   1  16
TORSDOF 2
ENDMDL
MODEL 6
REMARK VINA RESULT:      -6.0      2.685      3.601
REMARK  Name = 
REMARK  4 active torsions:
REMARK  status: ('A' for Active; 'I' for Inactive)
REMARK    1  A    between atoms: C_1  and  S_2
REMARK    2  A    between atoms: S_2  and  C_3
REMARK    3  A    between atoms: C_6  and  C_7
REMARK    4  A    between atoms: N_15  and  C_16
REMARK                            x       y       z     vdW  Elec       q    Type
REMARK                         _______ _______ _______ _____ _____    ______ ____
ROOT
ATOM      1  C   UNL     1       6.432   4.789  17.593  0.00  0.00    +0.000 C 
ATOM      2  N   UNL     1       5.336   4.433  18.185  0.00  0.00    +0.000 NA
ATOM      3  C   UNL     1       4.510   4.057  17.152  0.00  0.00    +0.000 C 
ATOM      4  C   UNL     1       3.240   3.638  17.219  0.00  0.00    +0.000 C 
ATOM      5  C   UNL     1       5.228   4.220  15.857  0.00  0.00    +0.000 C 
ATOM      6  O   UNL     1       4.798   3.996  14.741  0.00  0.00    +0.000 OA
ATOM      7  N   UNL     1       6.446   4.694  16.241  0.00  0.00    +0.000 N 
ATOM      8  C   UNL     1       7.495   5.059  15.311  0.00  0.00    +0.000 C 
ENDROOT
BRANCH   4   9
ATOM      9  C   UNL     1       2.485   3.557  18.470  0.00  0.00    +0.000 A 
ATOM     10  C   UNL     1       1.968   4.725  19.045  0.00  0.00    +0.000 A 
ATOM     11  C   UNL     1       1.289   4.670  20.264  0.00  0.00    +0.000 A 
ATOM     12  C   UNL     1       1.113   3.448  20.911  0.00  0.00    +0.000 A 
ATOM     13  C   UNL     1       1.605   2.278  20.333  0.00  0.00    +0.000 A 
ATOM     14  C   UNL     1       2.287   2.331  19.114  0.00  0.00    +0.000 A 
ENDBRANCH   4   9
BRANCH   1  16
ATOM     15  C   UNL     1       7.697   7.129  18.092  0.00  0.00    +0.000 C 
ATOM     16  S   UNL     1       7.835   5.361  18.433  0.00  0.00    +0.000 S 
ENDBRANCH   1  16
TORSDOF 2
ENDMDL
MODEL 7
REMARK VINA RESULT:      -6.0      2.885      3.914
REMARK  Name = 
REMARK  4 active torsions:
REMARK  status: ('A' for Active; 'I' for Inactive)
REMARK    1  A    between atoms: C_1  and  S_2
REMARK    2  A    between atoms: S_2  and  C_3
REMARK    3  A    between atoms: C_6  and  C_7
REMARK    4  A    between atoms: N_15  and  C_16
REMARK                            x       y       z     vdW  Elec       q    Type
REMARK                         _______ _______ _______ _____ _____    ______ ____
ROOT
ATOM      1  C   UNL     1       6.465   5.077  17.768  0.00  0.00    +0.000 C 
ATOM      2  N   UNL     1       5.447   4.644  18.442  0.00  0.00    +0.000 NA
ATOM      3  C   UNL     1       4.691   3.978  17.507  0.00  0.00    +0.000 C 
ATOM      4  C   UNL     1       3.511   3.371  17.678  0.00  0.00    +0.000 C 
ATOM      5  C   UNL     1       5.366   4.049  16.180  0.00  0.00    +0.000 C 
ATOM      6  O   UNL     1       4.974   3.582  15.127  0.00  0.00    +0.000 OA
ATOM      7  N   UNL     1       6.489   4.772  16.447  0.00  0.00    +0.000 N 
ATOM      8  C   UNL     1       7.456   5.152  15.439  0.00  0.00    +0.000 C 
ENDROOT
BRANCH   4   9
ATOM      9  C   UNL     1       2.785   3.366  18.950  0.00  0.00    +0.000 A 
ATOM     10  C   UNL     1       3.295   2.643  20.035  0.00  0.00    +0.000 A 
ATOM     11  C   UNL     1       2.589   2.587  21.239  0.00  0.00    +0.000 A 
ATOM     12  C   UNL     1       1.375   3.259  21.368  0.00  0.00    +0.000 A 
ATOM     13  C   UNL     1       0.872   3.999  20.298  0.00  0.00    +0.000 A 
ATOM     14  C   UNL     1       1.576   4.055  19.092  0.00  0.00    +0.000 A 
ENDBRANCH   4   9
BRANCH   1  16
ATOM     15  C   UNL     1       7.451   7.596  17.676  0.00  0.00    +0.000 C 
ATOM     16  S   UNL     1       7.756   6.000  18.463  0.00  0.00    +0.000 S 
ENDBRANCH   1  16
TORSDOF 2
ENDMDL
MODEL 8
REMARK VINA RESULT:      -6.0      2.755      3.589
REMARK  Name = 
REMARK  4 active torsions:
REMARK  status: ('A' for Active; 'I' for Inactive)
REMARK    1  A    between atoms: C_1  and  S_2
REMARK    2  A    between atoms: S_2  and  C_3
REMARK    3  A    between atoms: C_6  and  C_7
REMARK    4  A    between atoms: N_15  and  C_16
REMARK                            x       y       z     vdW  Elec       q    Type
REMARK                         _______ _______ _______ _____ _____    ______ ____
ROOT
ATOM      1  C   UNL     1       5.412   5.921  17.183  0.00  0.00    +0.000 C 
ATOM      2  N   UNL     1       4.462   5.247  17.749  0.00  0.00    +0.000 NA
ATOM      3  C   UNL     1       4.970   4.937  18.989  0.00  0.00    +0.000 C 
ATOM      4  C   UNL     1       4.398   4.215  19.960  0.00  0.00    +0.000 C 
ATOM      5  C   UNL     1       6.343   5.503  19.119  0.00  0.00    +0.000 C 
ATOM      6  O   UNL     1       7.092   5.411  20.073  0.00  0.00    +0.000 OA
ATOM      7  N   UNL     1       6.537   6.111  17.915  0.00  0.00    +0.000 N 
ATOM      8  C   UNL     1       7.769   6.773  17.541  0.00  0.00    +0.000 C 
ENDROOT
BRANCH   4   9
ATOM      9  C   UNL     1       3.091   3.573  19.822  0.00  0.00    +0.000 A 
ATOM     10  C   UNL     1       2.973   2.394  19.074  0.00  0.00    +0.000 A 
ATOM     11  C   UNL     1       1.724   1.797  18.891  0.00  0.00    +0.000 A 
ATOM     12  C   UNL     1       0.587   2.368  19.460  0.00  0.00    +0.000 A 
ATOM     13  C   UNL     1       0.700   3.529  20.225  0.00  0.00    +0.000 A 
ATOM     14  C   UNL     1       1.949   4.129  20.408  0.00  0.00    +0.000 A 
ENDBRANCH   4   9
BRANCH   1  16
ATOM     15  C   UNL     1       5.843   5.131  14.631  0.00  0.00    +0.000 C 
ATOM     16  S   UNL     1       5.307   6.570  15.580  0.00  0.00    +0.000 S 
ENDBRANCH   1  16
TORSDOF 2
ENDMDL
MODEL 9
REMARK VINA RESULT:      -5.9      4.224      6.578
REMARK  Name = 
REMARK  4 active torsions:
REMARK  status: ('A' for Active; 'I' for Inactive)
REMARK    1  A    between atoms: C_1  and  S_2
REMARK    2  A    between atoms: S_2  and  C_3
REMARK    3  A    between atoms: C_6  and  C_7
REMARK    4  A    between atoms: N_15  and  C_16
REMARK                            x       y       z     vdW  Elec       q    Type
REMARK                         _______ _______ _______ _____ _____    ______ ____
ROOT
ATOM      1  C   UNL     1       2.680   4.348  19.577  0.00  0.00    +0.000 C 
ATOM      2  N   UNL     1       3.746   4.964  19.175  0.00  0.00    +0.000 NA
ATOM      3  C   UNL     1       4.336   4.072  18.309  0.00  0.00    +0.000 C 
ATOM      4  C   UNL     1       5.488   4.206  17.642  0.00  0.00    +0.000 C 
ATOM      5  C   UNL     1       3.503   2.839  18.223  0.00  0.00    +0.000 C 
ATOM      6  O   UNL     1       3.729   1.841  17.564  0.00  0.00    +0.000 OA
ATOM      7  N   UNL     1       2.470   3.108  19.069  0.00  0.00    +0.000 N 
ATOM      8  C   UNL     1       1.408   2.169  19.362  0.00  0.00    +0.000 C 
ENDROOT
BRANCH   4   9
ATOM      9  C   UNL     1       6.368   5.369  17.780  0.00  0.00    +0.000 A 
ATOM     10  C   UNL     1       7.357   5.375  18.771  0.00  0.00    +0.000 A 
ATOM     11  C   UNL     1       8.171   6.496  18.947  0.00  0.00    +0.000 A 
ATOM     12  C   UNL     1       8.006   7.614  18.131  0.00  0.00    +0.000 A 
ATOM     13  C   UNL     1       7.037   7.606  17.128  0.00  0.00    +0.000 A 
ATOM     14  C   UNL     1       6.221   6.485  16.950  0.00  0.00    +0.000 A 
ENDBRANCH   4   9
BRANCH   1  16
ATOM     15  C   UNL     1       1.867   6.780  20.441  0.00  0.00    +0.000 C 
ATOM     16  S   UNL     1       1.547   5.022  20.700  0.00  0.00    +0.000 S 
ENDBRANCH   1  16
TORSDOF 2
ENDMDL
