MODEL 1
REMARK VINA RESULT:      -7.6      0.000      0.000
REMARK  Name = 
REMARK  9 active torsions:
REMARK  status: ('A' for Active; 'I' for Inactive)
REMARK    1  A    between atoms: C_2  and  C_3
REMARK    2  A    between atoms: C_3  and  C_4
REMARK    3  A    between atoms: C_5  and  C_6
REMARK    4  A    between atoms: C_6  and  C_7
REMARK    5  A    between atoms: C_13  and  C_14
REMARK    6  A    between atoms: C_13  and  C_15
REMARK    7  A    between atoms: C_15  and  O_16
REMARK    8  A    between atoms: C_17  and  O_18
REMARK    9  A    between atoms: C_21  and  C_22
REMARK                            x       y       z     vdW  Elec       q    Type
REMARK                         _______ _______ _______ _____ _____    ______ ____
ROOT
ATOM      1  C   UNL     1       3.093   5.317  19.534  0.00  0.00    +0.000 C 
ATOM      2  C   UNL     1       2.144   4.171  19.201  0.00  0.00    +0.000 C 
ATOM      3  C   UNL     1       0.972   3.978  19.852  0.00  0.00    +0.000 C 
ATOM      4  C   UNL     1       2.551   3.131  18.189  0.00  0.00    +0.000 C 
ATOM      5  C   UNL     1       3.391   3.652  17.029  0.00  0.00    +0.000 C 
ATOM      6  C   UNL     1       4.674   4.312  17.530  0.00  0.00    +0.000 C 
ATOM      7  C   UNL     1       5.814   4.605  16.448  0.00  0.00    +0.000 C 
ATOM      8  C   UNL     1       6.175   3.296  15.685  0.00  0.00    +0.000 C 
ATOM      9  C   UNL     1       7.092   5.114  17.211  0.00  0.00    +0.000 C 
ATOM     10  C   UNL     1       6.874   6.063  18.404  0.00  0.00    +0.000 C 
ATOM     11  C   UNL     1       5.660   5.742  19.296  0.00  0.00    +0.000 C 
ATOM     12  C   UNL     1       4.345   5.536  18.485  0.00  0.00    +0.000 C 
ATOM     13  C   UNL     1       4.092   6.817  17.647  0.00  0.00    +0.000 C 
ENDROOT
BRANCH   9  14
ATOM     14  O   UNL     1       7.863   4.011  17.708  0.00  0.00    +0.000 OA
ATOM     15  H   UNL     1       7.352   3.576  18.410  0.00  0.00    +0.000 HD
ENDBRANCH   9  14
BRANCH   1  16
ATOM     16  C   UNL     1       2.352   6.700  19.724  0.00  0.00    +0.000 C 
BRANCH  16  19
ATOM     17  C   UNL     1       1.172   8.571  20.986  0.00  0.00    +0.000 C 
ATOM     18  C   UNL     1       1.005   9.183  22.358  0.00  0.00    +0.000 C 
ATOM     19  C   UNL     1       1.572   7.281  20.884  0.00  0.00    +0.000 C 
BRANCH  17  21
ATOM     20  C   UNL     1      -0.187   9.993  19.434  0.00  0.00    +0.000 C 
ATOM     21  C   UNL     1       0.967   9.441  19.829  0.00  0.00    +0.000 C 
ENDBRANCH  17  21
ENDBRANCH  16  19
ENDBRANCH   1  16
BRANCH   7  22
ATOM     22  C   UNL     1       5.473   5.588  15.274  0.00  0.00    +0.000 C 
BRANCH  22  23
ATOM     23  O   UNL     1       6.576   5.765  14.398  0.00  0.00    +0.000 OA
ATOM     24  H   UNL     1       7.388   5.551  14.887  0.00  0.00    +0.000 HD
ENDBRANCH  22  23
ENDBRANCH   7  22
TORSDOF 6
ENDMDL
MODEL 2
REMARK VINA RESULT:      -7.5      2.359      4.402
REMARK  Name = 
REMARK  9 active torsions:
REMARK  status: ('A' for Active; 'I' for Inactive)
REMARK    1  A    between atoms: C_2  and  C_3
REMARK    2  A    between atoms: C_3  and  C_4
REMARK    3  A    between atoms: C_5  and  C_6
REMARK    4  A    between atoms: C_6  and  C_7
REMARK    5  A    between atoms: C_13  and  C_14
REMARK    6  A    between atoms: C_13  and  C_15
REMARK    7  A    between atoms: C_15  and  O_16
REMARK    8  A    between atoms: C_17  and  O_18
REMARK    9  A    between atoms: C_21  and  C_22
REMARK                            x       y       z     vdW  Elec       q    Type
REMARK                         _______ _______ _______ _____ _____    ______ ____
ROOT
ATOM      1  C   UNL     1       3.445   6.078  17.234  0.00  0.00    +0.000 C 
ATOM      2  C   UNL     1       4.654   5.794  16.350  0.00  0.00    +0.000 C 
ATOM      3  C   UNL     1       5.203   6.729  15.537  0.00  0.00    +0.000 C 
ATOM      4  C   UNL     1       5.212   4.397  16.268  0.00  0.00    +0.000 C 
ATOM      5  C   UNL     1       5.138   3.595  17.564  0.00  0.00    +0.000 C 
ATOM      6  C   UNL     1       3.696   3.472  18.053  0.00  0.00    +0.000 C 
ATOM      7  C   UNL     1       3.405   2.392  19.197  0.00  0.00    +0.000 C 
ATOM      8  C   UNL     1       3.916   0.991  18.749  0.00  0.00    +0.000 C 
ATOM      9  C   UNL     1       1.848   2.317  19.411  0.00  0.00    +0.000 C 
ATOM     10  C   UNL     1       1.061   3.640  19.356  0.00  0.00    +0.000 C 
ATOM     11  C   UNL     1       1.530   4.649  18.290  0.00  0.00    +0.000 C 
ATOM     12  C   UNL     1       3.067   4.903  18.326  0.00  0.00    +0.000 C 
ATOM     13  C   UNL     1       3.440   5.390  19.752  0.00  0.00    +0.000 C 
ENDROOT
BRANCH   9  14
ATOM     14  O   UNL     1       1.241   1.445  18.448  0.00  0.00    +0.000 OA
ATOM     15  H   UNL     1       1.947   0.950  18.000  0.00  0.00    +0.000 HD
ENDBRANCH   9  14
BRANCH   1  16
ATOM     16  C   UNL     1       3.548   7.458  17.999  0.00  0.00    +0.000 C 
BRANCH  16  19
ATOM     17  C   UNL     1       1.636   8.937  18.799  0.00  0.00    +0.000 C 
ATOM     18  C   UNL     1       0.497   9.805  18.314  0.00  0.00    +0.000 C 
ATOM     19  C   UNL     1       2.681   8.699  17.972  0.00  0.00    +0.000 C 
BRANCH  17  21
ATOM     20  C   UNL     1       0.757   8.774  21.139  0.00  0.00    +0.000 C 
ATOM     21  C   UNL     1       1.506   8.330  20.122  0.00  0.00    +0.000 C 
ENDBRANCH  17  21
ENDBRANCH  16  19
ENDBRANCH   1  16
BRANCH   7  22
ATOM     22  C   UNL     1       4.121   2.580  20.579  0.00  0.00    +0.000 C 
BRANCH  22  23
ATOM     23  O   UNL     1       5.205   1.676  20.737  0.00  0.00    +0.000 OA
ATOM     24  H   UNL     1       6.032   2.184  20.684  0.00  0.00    +0.000 HD
ENDBRANCH  22  23
ENDBRANCH   7  22
TORSDOF 6
ENDMDL
MODEL 3
REMARK VINA RESULT:      -7.4      2.485      4.182
REMARK  Name = 
REMARK  9 active torsions:
REMARK  status: ('A' for Active; 'I' for Inactive)
REMARK    1  A    between atoms: C_2  and  C_3
REMARK    2  A    between atoms: C_3  and  C_4
REMARK    3  A    between atoms: C_5  and  C_6
REMARK    4  A    between atoms: C_6  and  C_7
REMARK    5  A    between atoms: C_13  and  C_14
REMARK    6  A    between atoms: C_13  and  C_15
REMARK    7  A    between atoms: C_15  and  O_16
REMARK    8  A    between atoms: C_17  and  O_18
REMARK    9  A    between atoms: C_21  and  C_22
REMARK                            x       y       z     vdW  Elec       q    Type
REMARK                         _______ _______ _______ _____ _____    ______ ____
ROOT
ATOM      1  C   UNL     1       1.810   6.632  19.342  0.00  0.00    +0.000 C 
ATOM      2  C   UNL     1       2.702   7.178  18.233  0.00  0.00    +0.000 C 
ATOM      3  C   UNL     1       2.748   8.493  17.909  0.00  0.00    +0.000 C 
ATOM      4  C   UNL     1       3.490   6.228  17.369  0.00  0.00    +0.000 C 
ATOM      5  C   UNL     1       4.009   4.984  18.084  0.00  0.00    +0.000 C 
ATOM      6  C   UNL     1       2.862   4.183  18.697  0.00  0.00    +0.000 C 
ATOM      7  C   UNL     1       3.191   2.695  19.184  0.00  0.00    +0.000 C 
ATOM      8  C   UNL     1       3.820   1.880  18.015  0.00  0.00    +0.000 C 
ATOM      9  C   UNL     1       1.840   2.011  19.608  0.00  0.00    +0.000 C 
ATOM     10  C   UNL     1       0.813   2.878  20.360  0.00  0.00    +0.000 C 
ATOM     11  C   UNL     1       0.688   4.334  19.873  0.00  0.00    +0.000 C 
ATOM     12  C   UNL     1       2.063   5.057  19.753  0.00  0.00    +0.000 C 
ATOM     13  C   UNL     1       2.760   4.995  21.138  0.00  0.00    +0.000 C 
ENDROOT
BRANCH   9  14
ATOM     14  O   UNL     1       1.158   1.475  18.466  0.00  0.00    +0.000 OA
ATOM     15  H   UNL     1       0.263   1.215  18.742  0.00  0.00    +0.000 HD
ENDBRANCH   9  14
BRANCH   1  16
ATOM     16  C   UNL     1       1.854   7.506  20.659  0.00  0.00    +0.000 C 
BRANCH  16  19
ATOM     17  C   UNL     1       0.311   9.358  21.481  0.00  0.00    +0.000 C 
ATOM     18  C   UNL     1      -0.258   9.988  22.732  0.00  0.00    +0.000 C 
ATOM     19  C   UNL     1       0.758   8.081  21.532  0.00  0.00    +0.000 C 
BRANCH  17  21
ATOM     20  C   UNL     1      -0.394  10.206  19.232  0.00  0.00    +0.000 C 
ATOM     21  C   UNL     1       0.423  10.200  20.292  0.00  0.00    +0.000 C 
ENDBRANCH  17  21
ENDBRANCH  16  19
ENDBRANCH   1  16
BRANCH   7  22
ATOM     22  C   UNL     1       4.255   2.517  20.322  0.00  0.00    +0.000 C 
BRANCH  22  23
ATOM     23  O   UNL     1       5.197   1.501  20.008  0.00  0.00    +0.000 OA
ATOM     24  H   UNL     1       4.825   0.954  19.295  0.00  0.00    +0.000 HD
ENDBRANCH  22  23
ENDBRANCH   7  22
TORSDOF 6
ENDMDL
MODEL 4
REMARK VINA RESULT:      -7.4      3.231      6.638
REMARK  Name = 
REMARK  9 active torsions:
REMARK  status: ('A' for Active; 'I' for Inactive)
REMARK    1  A    between atoms: C_2  and  C_3
REMARK    2  A    between atoms: C_3  and  C_4
REMARK    3  A    between atoms: C_5  and  C_6
REMARK    4  A    between atoms: C_6  and  C_7
REMARK    5  A    between atoms: C_13  and  C_14
REMARK    6  A    between atoms: C_13  and  C_15
REMARK    7  A    between atoms: C_15  and  O_16
REMARK    8  A    between atoms: C_17  and  O_18
REMARK    9  A    between atoms: C_21  and  C_22
REMARK                            x       y       z     vdW  Elec       q    Type
REMARK                         _______ _______ _______ _____ _____    ______ ____
ROOT
ATOM      1  C   UNL     1       5.241   5.160  17.687  0.00  0.00    +0.000 C 
ATOM      2  C   UNL     1       4.652   6.548  17.462  0.00  0.00    +0.000 C 
ATOM      3  C   UNL     1       5.296   7.514  16.765  0.00  0.00    +0.000 C 
ATOM      4  C   UNL     1       3.353   6.928  18.126  0.00  0.00    +0.000 C 
ATOM      5  C   UNL     1       2.342   5.794  18.263  0.00  0.00    +0.000 C 
ATOM      6  C   UNL     1       2.926   4.629  19.059  0.00  0.00    +0.000 C 
ATOM      7  C   UNL     1       1.902   3.516  19.579  0.00  0.00    +0.000 C 
ATOM      8  C   UNL     1       0.765   4.184  20.408  0.00  0.00    +0.000 C 
ATOM      9  C   UNL     1       2.692   2.525  20.512  0.00  0.00    +0.000 C 
ATOM     10  C   UNL     1       4.123   2.144  20.091  0.00  0.00    +0.000 C 
ATOM     11  C   UNL     1       4.962   3.284  19.482  0.00  0.00    +0.000 C 
ATOM     12  C   UNL     1       4.219   4.048  18.346  0.00  0.00    +0.000 C 
ATOM     13  C   UNL     1       3.815   3.017  17.259  0.00  0.00    +0.000 C 
ENDROOT
BRANCH   9  14
ATOM     14  O   UNL     1       2.787   3.045  21.846  0.00  0.00    +0.000 OA
ATOM     15  H   UNL     1       3.725   3.208  22.040  0.00  0.00    +0.000 HD
ENDBRANCH   9  14
BRANCH   1  16
ATOM     16  C   UNL     1       5.881   4.540  16.381  0.00  0.00    +0.000 C 
BRANCH  16  19
ATOM     17  C   UNL     1       6.612   4.633  13.943  0.00  0.00    +0.000 C 
ATOM     18  C   UNL     1       7.781   4.971  13.046  0.00  0.00    +0.000 C 
ATOM     19  C   UNL     1       6.555   5.175  15.183  0.00  0.00    +0.000 C 
BRANCH  17  21
ATOM     20  C   UNL     1       5.504   3.234  12.185  0.00  0.00    +0.000 C 
ATOM     21  C   UNL     1       5.638   3.663  13.446  0.00  0.00    +0.000 C 
ENDBRANCH  17  21
ENDBRANCH  16  19
ENDBRANCH   1  16
BRANCH   7  22
ATOM     22  C   UNL     1       1.097   2.704  18.506  0.00  0.00    +0.000 C 
BRANCH  22  23
ATOM     23  O   UNL     1       1.061   1.318  18.812  0.00  0.00    +0.000 OA
ATOM     24  H   UNL     1       0.249   0.945  18.427  0.00  0.00    +0.000 HD
ENDBRANCH  22  23
ENDBRANCH   7  22
TORSDOF 6
ENDMDL
MODEL 5
REMARK VINA RESULT:      -7.4      2.594      4.643
REMARK  Name = 
REMARK  9 active torsions:
REMARK  status: ('A' for Active; 'I' for Inactive)
REMARK    1  A    between atoms: C_2  and  C_3
REMARK    2  A    between atoms: C_3  and  C_4
REMARK    3  A    between atoms: C_5  and  C_6
REMARK    4  A    between atoms: C_6  and  C_7
REMARK    5  A    between atoms: C_13  and  C_14
REMARK    6  A    between atoms: C_13  and  C_15
REMARK    7  A    between atoms: C_15  and  O_16
REMARK    8  A    between atoms: C_17  and  O_18
REMARK    9  A    between atoms: C_21  and  C_22
REMARK                            x       y       z     vdW  Elec       q    Type
REMARK                         _______ _______ _______ _____ _____    ______ ____
ROOT
ATOM      1  C   UNL     1       3.524   6.458  17.701  0.00  0.00    +0.000 C 
ATOM      2  C   UNL     1       5.045   6.458  17.593  0.00  0.00    +0.000 C 
ATOM      3  C   UNL     1       5.742   7.497  17.073  0.00  0.00    +0.000 C 
ATOM      4  C   UNL     1       5.823   5.223  17.965  0.00  0.00    +0.000 C 
ATOM      5  C   UNL     1       5.243   4.418  19.123  0.00  0.00    +0.000 C 
ATOM      6  C   UNL     1       3.814   3.972  18.822  0.00  0.00    +0.000 C 
ATOM      7  C   UNL     1       3.186   2.848  19.771  0.00  0.00    +0.000 C 
ATOM      8  C   UNL     1       4.117   1.600  19.808  0.00  0.00    +0.000 C 
ATOM      9  C   UNL     1       1.795   2.423  19.171  0.00  0.00    +0.000 C 
ATOM     10  C   UNL     1       0.912   3.535  18.575  0.00  0.00    +0.000 C 
ATOM     11  C   UNL     1       1.661   4.630  17.790  0.00  0.00    +0.000 C 
ATOM     12  C   UNL     1       2.870   5.223  18.574  0.00  0.00    +0.000 C 
ATOM     13  C   UNL     1       2.342   5.773  19.925  0.00  0.00    +0.000 C 
ENDROOT
BRANCH   9  14
ATOM     14  O   UNL     1       1.962   1.442  18.139  0.00  0.00    +0.000 OA
ATOM     15  H   UNL     1       1.087   1.241  17.767  0.00  0.00    +0.000 HD
ENDBRANCH   9  14
BRANCH   1  16
ATOM     16  C   UNL     1       2.942   7.822  18.251  0.00  0.00    +0.000 C 
BRANCH  16  19
ATOM     17  C   UNL     1       0.936   9.380  18.426  0.00  0.00    +0.000 C 
ATOM     18  C   UNL     1      -0.364   9.755  17.751  0.00  0.00    +0.000 C 
ATOM     19  C   UNL     1       1.906   8.777  17.698  0.00  0.00    +0.000 C 
BRANCH  17  21
ATOM     20  C   UNL     1       0.093   9.418  20.785  0.00  0.00    +0.000 C 
ATOM     21  C   UNL     1       1.044   9.620  19.863  0.00  0.00    +0.000 C 
ENDBRANCH  17  21
ENDBRANCH  16  19
ENDBRANCH   1  16
BRANCH   7  22
ATOM     22  C   UNL     1       3.025   3.184  21.294  0.00  0.00    +0.000 C 
BRANCH  22  23
ATOM     23  O   UNL     1       1.894   2.537  21.860  0.00  0.00    +0.000 OA
ATOM     24  H   UNL     1       2.200   1.989  22.603  0.00  0.00    +0.000 HD
ENDBRANCH  22  23
ENDBRANCH   7  22
TORSDOF 6
ENDMDL
MODEL 6
REMARK VINA RESULT:      -7.2      2.810      4.721
REMARK  Name = 
REMARK  9 active torsions:
REMARK  status: ('A' for Active; 'I' for Inactive)
REMARK    1  A    between atoms: C_2  and  C_3
REMARK    2  A    between atoms: C_3  and  C_4
REMARK    3  A    between atoms: C_5  and  C_6
REMARK    4  A    between atoms: C_6  and  C_7
REMARK    5  A    between atoms: C_13  and  C_14
REMARK    6  A    between atoms: C_13  and  C_15
REMARK    7  A    between atoms: C_15  and  O_16
REMARK    8  A    between atoms: C_17  and  O_18
REMARK    9  A    between atoms: C_21  and  C_22
REMARK                            x       y       z     vdW  Elec       q    Type
REMARK                         _______ _______ _______ _____ _____    ______ ____
ROOT
ATOM      1  C   UNL     1       3.618   6.421  17.610  0.00  0.00    +0.000 C 
ATOM      2  C   UNL     1       5.143   6.445  17.609  0.00  0.00    +0.000 C 
ATOM      3  C   UNL     1       5.859   7.459  17.065  0.00  0.00    +0.000 C 
ATOM      4  C   UNL     1       5.912   5.256  18.123  0.00  0.00    +0.000 C 
ATOM      5  C   UNL     1       5.264   4.524  19.293  0.00  0.00    +0.000 C 
ATOM      6  C   UNL     1       3.867   4.027  18.926  0.00  0.00    +0.000 C 
ATOM      7  C   UNL     1       3.191   2.961  19.908  0.00  0.00    +0.000 C 
ATOM      8  C   UNL     1       4.137   1.739  20.100  0.00  0.00    +0.000 C 
ATOM      9  C   UNL     1       1.854   2.466  19.244  0.00  0.00    +0.000 C 
ATOM     10  C   UNL     1       0.998   3.514  18.509  0.00  0.00    +0.000 C 
ATOM     11  C   UNL     1       1.783   4.565  17.701  0.00  0.00    +0.000 C 
ATOM     12  C   UNL     1       2.923   5.238  18.522  0.00  0.00    +0.000 C 
ATOM     13  C   UNL     1       2.293   5.872  19.790  0.00  0.00    +0.000 C 
ENDROOT
BRANCH   9  14
ATOM     14  O   UNL     1       2.109   1.417  18.300  0.00  0.00    +0.000 OA
ATOM     15  H   UNL     1       1.785   1.707  17.431  0.00  0.00    +0.000 HD
ENDBRANCH   9  14
BRANCH   1  16
ATOM     16  C   UNL     1       2.977   7.808  18.018  0.00  0.00    +0.000 C 
BRANCH  16  19
ATOM     17  C   UNL     1       1.283   9.709  17.994  0.00  0.00    +0.000 C 
ATOM     18  C   UNL     1      -0.170  10.034  18.256  0.00  0.00    +0.000 C 
ATOM     19  C   UNL     1       1.632   8.431  17.712  0.00  0.00    +0.000 C 
BRANCH  17  21
ATOM     20  C   UNL     1       1.996  12.061  18.479  0.00  0.00    +0.000 C 
ATOM     21  C   UNL     1       2.254  10.791  18.143  0.00  0.00    +0.000 C 
ENDBRANCH  17  21
ENDBRANCH  16  19
ENDBRANCH   1  16
BRANCH   7  22
ATOM     22  C   UNL     1       2.916   3.402  21.388  0.00  0.00    +0.000 C 
BRANCH  22  23
ATOM     23  O   UNL     1       1.906   2.609  21.995  0.00  0.00    +0.000 OA
ATOM     24  H   UNL     1       1.326   3.199  22.506  0.00  0.00    +0.000 HD
ENDBRANCH  22  23
ENDBRANCH   7  22
TORSDOF 6
ENDMDL
MODEL 7
REMARK VINA RESULT:      -7.0      1.561      4.016
REMARK  Name = 
REMARK  9 active torsions:
REMARK  status: ('A' for Active; 'I' for Inactive)
REMARK    1  A    between atoms: C_2  and  C_3
REMARK    2  A    between atoms: C_3  and  C_4
REMARK    3  A    between atoms: C_5  and  C_6
REMARK    4  A    between atoms: C_6  and  C_7
REMARK    5  A    between atoms: C_13  and  C_14
REMARK    6  A    between atoms: C_13  and  C_15
REMARK    7  A    between atoms: C_15  and  O_16
REMARK    8  A    between atoms: C_17  and  O_18
REMARK    9  A    between atoms: C_21  and  C_22
REMARK                            x       y       z     vdW  Elec       q    Type
REMARK                         _______ _______ _______ _____ _____    ______ ____
ROOT
ATOM      1  C   UNL     1       2.491   6.117  18.617  0.00  0.00    +0.000 C 
ATOM      2  C   UNL     1       2.531   7.622  18.370  0.00  0.00    +0.000 C 
ATOM      3  C   UNL     1       1.627   8.476  18.906  0.00  0.00    +0.000 C 
ATOM      4  C   UNL     1       3.535   8.197  17.405  0.00  0.00    +0.000 C 
ATOM      5  C   UNL     1       4.884   7.487  17.377  0.00  0.00    +0.000 C 
ATOM      6  C   UNL     1       4.722   6.010  17.024  0.00  0.00    +0.000 C 
ATOM      7  C   UNL     1       6.046   5.206  16.624  0.00  0.00    +0.000 C 
ATOM      8  C   UNL     1       6.780   5.935  15.459  0.00  0.00    +0.000 C 
ATOM      9  C   UNL     1       5.617   3.774  16.133  0.00  0.00    +0.000 C 
ATOM     10  C   UNL     1       4.472   3.079  16.893  0.00  0.00    +0.000 C 
ATOM     11  C   UNL     1       3.315   3.996  17.336  0.00  0.00    +0.000 C 
ATOM     12  C   UNL     1       3.802   5.272  18.085  0.00  0.00    +0.000 C 
ATOM     13  C   UNL     1       4.648   4.819  19.305  0.00  0.00    +0.000 C 
ENDROOT
BRANCH   9  14
ATOM     14  O   UNL     1       5.230   3.801  14.753  0.00  0.00    +0.000 OA
ATOM     15  H   UNL     1       5.279   4.720  14.442  0.00  0.00    +0.000 HD
ENDBRANCH   9  14
BRANCH   1  16
ATOM     16  C   UNL     1       2.236   5.745  20.132  0.00  0.00    +0.000 C 
BRANCH  16  19
ATOM     17  C   UNL     1       1.505   3.410  20.837  0.00  0.00    +0.000 C 
ATOM     18  C   UNL     1       1.366   2.499  22.036  0.00  0.00    +0.000 C 
ATOM     19  C   UNL     1       2.378   4.444  20.893  0.00  0.00    +0.000 C 
BRANCH  17  21
ATOM     20  C   UNL     1       0.754   2.219  18.765  0.00  0.00    +0.000 C 
ATOM     21  C   UNL     1       0.620   3.168  19.699  0.00  0.00    +0.000 C 
ENDBRANCH  17  21
ENDBRANCH  16  19
ENDBRANCH   1  16
BRANCH   7  22
ATOM     22  C   UNL     1       7.178   5.080  17.701  0.00  0.00    +0.000 C 
BRANCH  22  23
ATOM     23  O   UNL     1       8.141   4.101  17.341  0.00  0.00    +0.000 OA
ATOM     24  H   UNL     1       8.114   3.992  16.375  0.00  0.00    +0.000 HD
ENDBRANCH  22  23
ENDBRANCH   7  22
TORSDOF 6
ENDMDL
MODEL 8
REMARK VINA RESULT:      -7.0      3.038      5.633
REMARK  Name = 
REMARK  9 active torsions:
REMARK  status: ('A' for Active; 'I' for Inactive)
REMARK    1  A    between atoms: C_2  and  C_3
REMARK    2  A    between atoms: C_3  and  C_4
REMARK    3  A    between atoms: C_5  and  C_6
REMARK    4  A    between atoms: C_6  and  C_7
REMARK    5  A    between atoms: C_13  and  C_14
REMARK    6  A    between atoms: C_13  and  C_15
REMARK    7  A    between atoms: C_15  and  O_16
REMARK    8  A    between atoms: C_17  and  O_18
REMARK    9  A    between atoms: C_21  and  C_22
REMARK                            x       y       z     vdW  Elec       q    Type
REMARK                         _______ _______ _______ _____ _____    ______ ____
ROOT
ATOM      1  C   UNL     1       4.337   5.851  16.812  0.00  0.00    +0.000 C 
ATOM      2  C   UNL     1       5.245   5.108  15.838  0.00  0.00    +0.000 C 
ATOM      3  C   UNL     1       5.989   5.743  14.900  0.00  0.00    +0.000 C 
ATOM      4  C   UNL     1       5.251   3.601  15.819  0.00  0.00    +0.000 C 
ATOM      5  C   UNL     1       5.055   2.937  17.177  0.00  0.00    +0.000 C 
ATOM      6  C   UNL     1       3.737   3.369  17.816  0.00  0.00    +0.000 C 
ATOM      7  C   UNL     1       3.221   2.519  19.069  0.00  0.00    +0.000 C 
ATOM      8  C   UNL     1       3.137   1.011  18.691  0.00  0.00    +0.000 C 
ATOM      9  C   UNL     1       1.779   3.027  19.442  0.00  0.00    +0.000 C 
ATOM     10  C   UNL     1       1.518   4.543  19.356  0.00  0.00    +0.000 C 
ATOM     11  C   UNL     1       2.183   5.265  18.169  0.00  0.00    +0.000 C 
ATOM     12  C   UNL     1       3.701   4.941  18.031  0.00  0.00    +0.000 C 
ATOM     13  C   UNL     1       4.395   5.317  19.366  0.00  0.00    +0.000 C 
ENDROOT
BRANCH   9  14
ATOM     14  O   UNL     1       0.787   2.398  18.620  0.00  0.00    +0.000 OA
ATOM     15  H   UNL     1       0.264   1.802  19.181  0.00  0.00    +0.000 HD
ENDBRANCH   9  14
BRANCH   1  16
ATOM     16  C   UNL     1       5.020   7.128  17.446  0.00  0.00    +0.000 C 
BRANCH  16  19
ATOM     17  C   UNL     1       7.483   7.535  17.950  0.00  0.00    +0.000 C 
ATOM     18  C   UNL     1       8.524   8.624  18.082  0.00  0.00    +0.000 C 
ATOM     19  C   UNL     1       6.370   7.774  17.216  0.00  0.00    +0.000 C 
BRANCH  17  21
ATOM     20  C   UNL     1       7.850   5.069  18.190  0.00  0.00    +0.000 C 
ATOM     21  C   UNL     1       7.701   6.299  18.697  0.00  0.00    +0.000 C 
ENDBRANCH  17  21
ENDBRANCH  16  19
ENDBRANCH   1  16
BRANCH   7  22
ATOM     22  C   UNL     1       4.120   2.489  20.353  0.00  0.00    +0.000 C 
BRANCH  22  23
ATOM     23  O   UNL     1       5.212   1.592  20.210  0.00  0.00    +0.000 OA
ATOM     24  H   UNL     1       5.964   2.087  19.843  0.00  0.00    +0.000 HD
ENDBRANCH  22  23
ENDBRANCH   7  22
TORSDOF 6
ENDMDL
MODEL 9
REMARK VINA RESULT:      -7.0      3.326      6.582
REMARK  Name = 
REMARK  9 active torsions:
REMARK  status: ('A' for Active; 'I' for Inactive)
REMARK    1  A    between atoms: C_2  and  C_3
REMARK    2  A    between atoms: C_3  and  C_4
REMARK    3  A    between atoms: C_5  and  C_6
REMARK    4  A    between atoms: C_6  and  C_7
REMARK    5  A    between atoms: C_13  and  C_14
REMARK    6  A    between atoms: C_13  and  C_15
REMARK    7  A    between atoms: C_15  and  O_16
REMARK    8  A    between atoms: C_17  and  O_18
REMARK    9  A    between atoms: C_21  and  C_22
REMARK                            x       y       z     vdW  Elec       q    Type
REMARK                         _______ _______ _______ _____ _____    ______ ____
ROOT
ATOM      1  C   UNL     1       5.432   4.990  17.892  0.00  0.00    +0.000 C 
ATOM      2  C   UNL     1       4.888   6.343  17.448  0.00  0.00    +0.000 C 
ATOM      3  C   UNL     1       5.620   7.227  16.728  0.00  0.00    +0.000 C 
ATOM      4  C   UNL     1       3.526   6.791  17.910  0.00  0.00    +0.000 C 
ATOM      5  C   UNL     1       2.493   5.678  18.053  0.00  0.00    +0.000 C 
ATOM      6  C   UNL     1       2.968   4.610  19.035  0.00  0.00    +0.000 C 
ATOM      7  C   UNL     1       1.878   3.560  19.553  0.00  0.00    +0.000 C 
ATOM      8  C   UNL     1       0.660   4.314  20.164  0.00  0.00    +0.000 C 
ATOM      9  C   UNL     1       2.543   2.681  20.676  0.00  0.00    +0.000 C 
ATOM     10  C   UNL     1       4.009   2.258  20.469  0.00  0.00    +0.000 C 
ATOM     11  C   UNL     1       4.926   3.324  19.839  0.00  0.00    +0.000 C 
ATOM     12  C   UNL     1       4.329   3.955  18.546  0.00  0.00    +0.000 C 
ATOM     13  C   UNL     1       4.042   2.809  17.541  0.00  0.00    +0.000 C 
ENDROOT
BRANCH   9  14
ATOM     14  O   UNL     1       2.489   3.345  21.945  0.00  0.00    +0.000 OA
ATOM     15  H   UNL     1       1.635   3.804  22.010  0.00  0.00    +0.000 HD
ENDBRANCH   9  14
BRANCH   1  16
ATOM     16  C   UNL     1       6.212   4.229  16.746  0.00  0.00    +0.000 C 
BRANCH  16  19
ATOM     17  C   UNL     1       6.126   4.161  14.202  0.00  0.00    +0.000 C 
ATOM     18  C   UNL     1       5.184   3.998  13.030  0.00  0.00    +0.000 C 
ATOM     19  C   UNL     1       5.763   3.673  15.412  0.00  0.00    +0.000 C 
BRANCH  17  21
ATOM     20  C   UNL     1       7.855   5.310  12.800  0.00  0.00    +0.000 C 
ATOM     21  C   UNL     1       7.355   4.919  13.979  0.00  0.00    +0.000 C 
ENDBRANCH  17  21
ENDBRANCH  16  19
ENDBRANCH   1  16
BRANCH   7  22
ATOM     22  C   UNL     1       1.194   2.632  18.490  0.00  0.00    +0.000 C 
BRANCH  22  23
ATOM     23  O   UNL     1       1.094   1.291  18.947  0.00  0.00    +0.000 OA
ATOM     24  H   UNL     1       1.100   0.706  18.170  0.00  0.00    +0.000 HD
ENDBRANCH  22  23
ENDBRANCH   7  22
TORSDOF 6
ENDMDL
