MODEL 1
REMARK VINA RESULT:      -6.8      0.000      0.000
REMARK  Name = 
REMARK  1 active torsions:
REMARK  status: ('A' for Active; 'I' for Inactive)
REMARK    1  A    between atoms: C_8  and  C_9
REMARK                            x       y       z     vdW  Elec       q    Type
REMARK                         _______ _______ _______ _____ _____    ______ ____
ROOT
ATOM      1  O   UNL     1       7.928   4.883  18.667  0.00  0.00    +0.000 OA
ATOM      2  C   UNL     1       7.073   4.656  17.827  0.00  0.00    +0.000 C 
ATOM      3  N   UNL     1       7.303   4.580  16.482  0.00  0.00    +0.000 N 
ATOM      4  C   UNL     1       6.255   4.278  15.667  0.00  0.00    +0.000 C 
ATOM      5  S   UNL     1       6.380   4.137  14.023  0.00  0.00    +0.000 S 
ATOM      6  S   UNL     1       4.809   4.055  16.624  0.00  0.00    +0.000 S 
ATOM      7  C   UNL     1       5.638   4.389  18.102  0.00  0.00    +0.000 C 
ATOM      8  C   UNL     1       5.136   4.419  19.343  0.00  0.00    +0.000 C 
ATOM      9  H   UNL     1       8.232   4.728  16.118  0.00  0.00    +0.000 HD
ENDROOT
BRANCH   8  10
ATOM     10  C   UNL     1       3.740   4.156  19.667  0.00  0.00    +0.000 A 
ATOM     11  C   UNL     1       2.865   5.197  19.950  0.00  0.00    +0.000 A 
ATOM     12  C   UNL     1       1.552   4.887  20.292  0.00  0.00    +0.000 A 
ATOM     13  C   UNL     1       1.160   3.555  20.338  0.00  0.00    +0.000 A 
ATOM     14  C   UNL     1       2.099   2.584  20.029  0.00  0.00    +0.000 A 
ATOM     15  N   UNL     1       3.378   2.854  19.688  0.00  0.00    +0.000 NA
ENDBRANCH   8  10
TORSDOF 1
ENDMDL
MODEL 2
REMARK VINA RESULT:      -6.6      0.762      1.286
REMARK  Name = 
REMARK  1 active torsions:
REMARK  status: ('A' for Active; 'I' for Inactive)
REMARK    1  A    between atoms: C_8  and  C_9
REMARK                            x       y       z     vdW  Elec       q    Type
REMARK                         _______ _______ _______ _____ _____    ______ ____
ROOT
ATOM      1  O   UNL     1       7.954   4.832  18.562  0.00  0.00    +0.000 OA
ATOM      2  C   UNL     1       7.074   4.621  17.745  0.00  0.00    +0.000 C 
ATOM      3  N   UNL     1       7.269   4.532  16.395  0.00  0.00    +0.000 N 
ATOM      4  C   UNL     1       6.194   4.249  15.608  0.00  0.00    +0.000 C 
ATOM      5  S   UNL     1       6.276   4.097  13.962  0.00  0.00    +0.000 S 
ATOM      6  S   UNL     1       4.768   4.065  16.601  0.00  0.00    +0.000 S 
ATOM      7  C   UNL     1       5.640   4.388  18.056  0.00  0.00    +0.000 C 
ATOM      8  C   UNL     1       5.170   4.436  19.309  0.00  0.00    +0.000 C 
ATOM      9  H   UNL     1       8.192   4.657  16.008  0.00  0.00    +0.000 HD
ENDROOT
BRANCH   8  10
ATOM     10  C   UNL     1       3.777   4.207  19.669  0.00  0.00    +0.000 A 
ATOM     11  C   UNL     1       3.256   2.920  19.721  0.00  0.00    +0.000 A 
ATOM     12  C   UNL     1       1.908   2.761  20.032  0.00  0.00    +0.000 A 
ATOM     13  C   UNL     1       1.133   3.887  20.281  0.00  0.00    +0.000 A 
ATOM     14  C   UNL     1       1.742   5.130  20.219  0.00  0.00    +0.000 A 
ATOM     15  N   UNL     1       3.048   5.316  19.926  0.00  0.00    +0.000 NA
ENDBRANCH   8  10
TORSDOF 1
ENDMDL
MODEL 3
REMARK VINA RESULT:      -6.5      2.358      2.639
REMARK  Name = 
REMARK  1 active torsions:
REMARK  status: ('A' for Active; 'I' for Inactive)
REMARK    1  A    between atoms: C_8  and  C_9
REMARK                            x       y       z     vdW  Elec       q    Type
REMARK                         _______ _______ _______ _____ _____    ______ ____
ROOT
ATOM      1  O   UNL     1       6.810   4.145  14.842  0.00  0.00    +0.000 OA
ATOM      2  C   UNL     1       6.629   4.861  15.812  0.00  0.00    +0.000 C 
ATOM      3  N   UNL     1       7.373   5.968  16.113  0.00  0.00    +0.000 N 
ATOM      4  C   UNL     1       7.026   6.696  17.211  0.00  0.00    +0.000 C 
ATOM      5  S   UNL     1       7.820   8.065  17.693  0.00  0.00    +0.000 S 
ATOM      6  S   UNL     1       5.637   5.970  17.985  0.00  0.00    +0.000 S 
ATOM      7  C   UNL     1       5.558   4.692  16.827  0.00  0.00    +0.000 C 
ATOM      8  C   UNL     1       4.693   3.670  16.782  0.00  0.00    +0.000 C 
ATOM      9  H   UNL     1       8.142   6.237  15.519  0.00  0.00    +0.000 HD
ENDROOT
BRANCH   8  10
ATOM     10  C   UNL     1       3.620   3.463  17.745  0.00  0.00    +0.000 A 
ATOM     11  C   UNL     1       2.336   3.931  17.495  0.00  0.00    +0.000 A 
ATOM     12  C   UNL     1       1.358   3.739  18.467  0.00  0.00    +0.000 A 
ATOM     13  C   UNL     1       1.695   3.089  19.648  0.00  0.00    +0.000 A 
ATOM     14  C   UNL     1       2.998   2.646  19.805  0.00  0.00    +0.000 A 
ATOM     15  N   UNL     1       3.967   2.811  18.877  0.00  0.00    +0.000 NA
ENDBRANCH   8  10
TORSDOF 1
ENDMDL
MODEL 4
REMARK VINA RESULT:      -6.2      2.396      2.814
REMARK  Name = 
REMARK  1 active torsions:
REMARK  status: ('A' for Active; 'I' for Inactive)
REMARK    1  A    between atoms: C_8  and  C_9
REMARK                            x       y       z     vdW  Elec       q    Type
REMARK                         _______ _______ _______ _____ _____    ______ ____
ROOT
ATOM      1  O   UNL     1       6.789   4.127  14.851  0.00  0.00    +0.000 OA
ATOM      2  C   UNL     1       6.608   4.842  15.822  0.00  0.00    +0.000 C 
ATOM      3  N   UNL     1       7.352   5.949  16.125  0.00  0.00    +0.000 N 
ATOM      4  C   UNL     1       7.004   6.674  17.223  0.00  0.00    +0.000 C 
ATOM      5  S   UNL     1       7.799   8.043  17.708  0.00  0.00    +0.000 S 
ATOM      6  S   UNL     1       5.615   5.949  17.996  0.00  0.00    +0.000 S 
ATOM      7  C   UNL     1       5.536   4.672  16.836  0.00  0.00    +0.000 C 
ATOM      8  C   UNL     1       4.670   3.651  16.787  0.00  0.00    +0.000 C 
ATOM      9  H   UNL     1       8.122   6.218  15.533  0.00  0.00    +0.000 HD
ENDROOT
BRANCH   8  10
ATOM     10  C   UNL     1       3.596   3.443  17.749  0.00  0.00    +0.000 A 
ATOM     11  C   UNL     1       3.803   2.687  18.897  0.00  0.00    +0.000 A 
ATOM     12  C   UNL     1       2.731   2.488  19.763  0.00  0.00    +0.000 A 
ATOM     13  C   UNL     1       1.498   3.048  19.455  0.00  0.00    +0.000 A 
ATOM     14  C   UNL     1       1.388   3.797  18.295  0.00  0.00    +0.000 A 
ATOM     15  N   UNL     1       2.411   4.014  17.438  0.00  0.00    +0.000 NA
ENDBRANCH   8  10
TORSDOF 1
ENDMDL
MODEL 5
REMARK VINA RESULT:      -6.1      1.710      1.779
REMARK  Name = 
REMARK  1 active torsions:
REMARK  status: ('A' for Active; 'I' for Inactive)
REMARK    1  A    between atoms: C_8  and  C_9
REMARK                            x       y       z     vdW  Elec       q    Type
REMARK                         _______ _______ _______ _____ _____    ______ ____
ROOT
ATOM      1  O   UNL     1       7.720   6.041  17.460  0.00  0.00    +0.000 OA
ATOM      2  C   UNL     1       7.127   5.505  16.539  0.00  0.00    +0.000 C 
ATOM      3  N   UNL     1       7.584   5.438  15.252  0.00  0.00    +0.000 N 
ATOM      4  C   UNL     1       6.831   4.768  14.338  0.00  0.00    +0.000 C 
ATOM      5  S   UNL     1       7.259   4.590  12.749  0.00  0.00    +0.000 S 
ATOM      6  S   UNL     1       5.393   4.137  15.105  0.00  0.00    +0.000 S 
ATOM      7  C   UNL     1       5.824   4.800  16.641  0.00  0.00    +0.000 C 
ATOM      8  C   UNL     1       5.144   4.729  17.792  0.00  0.00    +0.000 C 
ATOM      9  H   UNL     1       8.466   5.861  15.006  0.00  0.00    +0.000 HD
ENDROOT
BRANCH   8  10
ATOM     10  C   UNL     1       3.868   4.044  17.948  0.00  0.00    +0.000 A 
ATOM     11  C   UNL     1       2.668   4.733  17.825  0.00  0.00    +0.000 A 
ATOM     12  C   UNL     1       1.479   4.037  18.022  0.00  0.00    +0.000 A 
ATOM     13  C   UNL     1       1.529   2.683  18.332  0.00  0.00    +0.000 A 
ATOM     14  C   UNL     1       2.771   2.076  18.421  0.00  0.00    +0.000 A 
ATOM     15  N   UNL     1       3.942   2.724  18.230  0.00  0.00    +0.000 NA
ENDBRANCH   8  10
TORSDOF 1
ENDMDL
MODEL 6
REMARK VINA RESULT:      -6.0      2.576      5.929
REMARK  Name = 
REMARK  1 active torsions:
REMARK  status: ('A' for Active; 'I' for Inactive)
REMARK    1  A    between atoms: C_8  and  C_9
REMARK                            x       y       z     vdW  Elec       q    Type
REMARK                         _______ _______ _______ _____ _____    ______ ____
ROOT
ATOM      1  O   UNL     1       7.642   5.039  19.224  0.00  0.00    +0.000 OA
ATOM      2  C   UNL     1       6.566   5.181  18.668  0.00  0.00    +0.000 C 
ATOM      3  N   UNL     1       5.397   5.501  19.302  0.00  0.00    +0.000 N 
ATOM      4  C   UNL     1       4.280   5.667  18.542  0.00  0.00    +0.000 C 
ATOM      5  S   UNL     1       2.799   6.068  19.163  0.00  0.00    +0.000 S 
ATOM      6  S   UNL     1       4.667   5.410  16.858  0.00  0.00    +0.000 S 
ATOM      7  C   UNL     1       6.323   5.067  17.207  0.00  0.00    +0.000 C 
ATOM      8  C   UNL     1       7.300   4.744  16.349  0.00  0.00    +0.000 C 
ATOM      9  H   UNL     1       5.383   5.625  20.302  0.00  0.00    +0.000 HD
ENDROOT
BRANCH   8  10
ATOM     10  C   UNL     1       7.118   4.627  14.909  0.00  0.00    +0.000 A 
ATOM     11  C   UNL     1       6.187   3.744  14.376  0.00  0.00    +0.000 A 
ATOM     12  C   UNL     1       6.081   3.645  12.992  0.00  0.00    +0.000 A 
ATOM     13  C   UNL     1       6.904   4.428  12.192  0.00  0.00    +0.000 A 
ATOM     14  C   UNL     1       7.795   5.290  12.811  0.00  0.00    +0.000 A 
ATOM     15  N   UNL     1       7.915   5.413  14.151  0.00  0.00    +0.000 NA
ENDBRANCH   8  10
TORSDOF 1
ENDMDL
MODEL 7
REMARK VINA RESULT:      -5.9      2.912      5.692
REMARK  Name = 
REMARK  1 active torsions:
REMARK  status: ('A' for Active; 'I' for Inactive)
REMARK    1  A    between atoms: C_8  and  C_9
REMARK                            x       y       z     vdW  Elec       q    Type
REMARK                         _______ _______ _______ _____ _____    ______ ____
ROOT
ATOM      1  O   UNL     1       2.233   7.563  19.794  0.00  0.00    +0.000 OA
ATOM      2  C   UNL     1       2.531   6.381  19.853  0.00  0.00    +0.000 C 
ATOM      3  N   UNL     1       1.962   5.475  20.704  0.00  0.00    +0.000 N 
ATOM      4  C   UNL     1       2.368   4.178  20.626  0.00  0.00    +0.000 C 
ATOM      5  S   UNL     1       1.762   2.968  21.578  0.00  0.00    +0.000 S 
ATOM      6  S   UNL     1       3.584   4.014  19.382  0.00  0.00    +0.000 S 
ATOM      7  C   UNL     1       3.535   5.697  18.999  0.00  0.00    +0.000 C 
ATOM      8  C   UNL     1       4.257   6.359  18.085  0.00  0.00    +0.000 C 
ATOM      9  H   UNL     1       1.248   5.770  21.352  0.00  0.00    +0.000 HD
ENDROOT
BRANCH   8  10
ATOM     10  C   UNL     1       5.247   5.735  17.217  0.00  0.00    +0.000 A 
ATOM     11  C   UNL     1       4.997   5.557  15.862  0.00  0.00    +0.000 A 
ATOM     12  C   UNL     1       5.962   4.921  15.086  0.00  0.00    +0.000 A 
ATOM     13  C   UNL     1       7.137   4.488  15.687  0.00  0.00    +0.000 A 
ATOM     14  C   UNL     1       7.305   4.720  17.043  0.00  0.00    +0.000 A 
ATOM     15  N   UNL     1       6.391   5.340  17.820  0.00  0.00    +0.000 NA
ENDBRANCH   8  10
TORSDOF 1
ENDMDL
MODEL 8
REMARK VINA RESULT:      -5.8      2.979      5.618
REMARK  Name = 
REMARK  1 active torsions:
REMARK  status: ('A' for Active; 'I' for Inactive)
REMARK    1  A    between atoms: C_8  and  C_9
REMARK                            x       y       z     vdW  Elec       q    Type
REMARK                         _______ _______ _______ _____ _____    ______ ____
ROOT
ATOM      1  O   UNL     1       2.415   3.342  21.228  0.00  0.00    +0.000 OA
ATOM      2  C   UNL     1       2.525   4.425  20.679  0.00  0.00    +0.000 C 
ATOM      3  N   UNL     1       1.814   5.544  21.013  0.00  0.00    +0.000 N 
ATOM      4  C   UNL     1       2.075   6.696  20.336  0.00  0.00    +0.000 C 
ATOM      5  S   UNL     1       1.307   8.131  20.637  0.00  0.00    +0.000 S 
ATOM      6  S   UNL     1       3.326   6.414  19.150  0.00  0.00    +0.000 S 
ATOM      7  C   UNL     1       3.465   4.746  19.574  0.00  0.00    +0.000 C 
ATOM      8  C   UNL     1       4.273   3.821  19.040  0.00  0.00    +0.000 C 
ATOM      9  H   UNL     1       1.131   5.506  21.754  0.00  0.00    +0.000 HD
ENDROOT
BRANCH   8  10
ATOM     10  C   UNL     1       5.218   4.084  17.963  0.00  0.00    +0.000 A 
ATOM     11  C   UNL     1       4.838   3.956  16.633  0.00  0.00    +0.000 A 
ATOM     12  C   UNL     1       5.792   4.182  15.645  0.00  0.00    +0.000 A 
ATOM     13  C   UNL     1       7.086   4.527  16.018  0.00  0.00    +0.000 A 
ATOM     14  C   UNL     1       7.370   4.643  17.369  0.00  0.00    +0.000 A 
ATOM     15  N   UNL     1       6.465   4.436  18.350  0.00  0.00    +0.000 NA
ENDBRANCH   8  10
TORSDOF 1
ENDMDL
MODEL 9
REMARK VINA RESULT:      -5.8      1.637      1.711
REMARK  Name = 
REMARK  1 active torsions:
REMARK  status: ('A' for Active; 'I' for Inactive)
REMARK    1  A    between atoms: C_8  and  C_9
REMARK                            x       y       z     vdW  Elec       q    Type
REMARK                         _______ _______ _______ _____ _____    ______ ____
ROOT
ATOM      1  O   UNL     1       5.606   7.525  17.213  0.00  0.00    +0.000 OA
ATOM      2  C   UNL     1       5.386   6.412  16.767  0.00  0.00    +0.000 C 
ATOM      3  N   UNL     1       5.894   5.928  15.593  0.00  0.00    +0.000 N 
ATOM      4  C   UNL     1       5.595   4.647  15.243  0.00  0.00    +0.000 C 
ATOM      5  S   UNL     1       6.146   3.920  13.862  0.00  0.00    +0.000 S 
ATOM      6  S   UNL     1       4.578   3.923  16.465  0.00  0.00    +0.000 S 
ATOM      7  C   UNL     1       4.561   5.363  17.419  0.00  0.00    +0.000 C 
ATOM      8  C   UNL     1       3.928   5.579  18.579  0.00  0.00    +0.000 C 
ATOM      9  H   UNL     1       6.488   6.510  15.022  0.00  0.00    +0.000 HD
ENDROOT
BRANCH   8  10
ATOM     10  C   UNL     1       3.114   4.584  19.265  0.00  0.00    +0.000 A 
ATOM     11  C   UNL     1       1.727   4.646  19.224  0.00  0.00    +0.000 A 
ATOM     12  C   UNL     1       0.998   3.692  19.929  0.00  0.00    +0.000 A 
ATOM     13  C   UNL     1       1.676   2.714  20.645  0.00  0.00    +0.000 A 
ATOM     14  C   UNL     1       3.062   2.723  20.618  0.00  0.00    +0.000 A 
ATOM     15  N   UNL     1       3.796   3.631  19.939  0.00  0.00    +0.000 NA
ENDBRANCH   8  10
TORSDOF 1
ENDMDL
