MODEL 1
REMARK VINA RESULT:      -8.3      0.000      0.000
REMARK  Name = 
REMARK  12 active torsions:
REMARK  status: ('A' for Active; 'I' for Inactive)
REMARK    1  A    between atoms: C_1  and  O_2
REMARK    2  A    between atoms: O_2  and  C_3
REMARK    3  A    between atoms: C_6  and  C_7
REMARK    4  A    between atoms: C_10  and  O_11
REMARK    5  A    between atoms: O_11  and  C_12
REMARK    6  A    between atoms: C_13  and  O_14
REMARK    7  A    between atoms: O_14  and  C_15
REMARK    8  A    between atoms: C_17  and  O_18
REMARK    9  A    between atoms: O_18  and  C_19
REMARK   10  A    between atoms: C_19  and  C_20
REMARK   11  A    between atoms: C_20  and  N_21
REMARK   12  A    between atoms: C_30  and  O_31
REMARK                            x       y       z     vdW  Elec       q    Type
REMARK                         _______ _______ _______ _____ _____    ______ ____
ROOT
ATOM      1  C   UNL     1       1.743   7.949  19.503  0.00  0.00    +0.000 A 
ATOM      2  O   UNL     1       1.949   6.667  19.987  0.00  0.00    +0.000 OA
ATOM      3  C   UNL     1       2.371   5.686  19.112  0.00  0.00    +0.000 A 
ATOM      4  C   UNL     1       2.095   4.354  19.460  0.00  0.00    +0.000 A 
ATOM      5  C   UNL     1       2.621   3.335  18.666  0.00  0.00    +0.000 A 
ATOM      6  C   UNL     1       3.446   3.657  17.586  0.00  0.00    +0.000 A 
ATOM      7  C   UNL     1       3.719   4.984  17.205  0.00  0.00    +0.000 A 
ATOM      8  C   UNL     1       3.114   6.006  17.959  0.00  0.00    +0.000 A 
ATOM      9  C   UNL     1       3.143   7.434  17.585  0.00  0.00    +0.000 A 
ATOM     10  O   UNL     1       3.850   7.917  16.708  0.00  0.00    +0.000 OA
ATOM     11  C   UNL     1       2.191   8.337  18.298  0.00  0.00    +0.000 A 
ENDROOT
BRANCH   1  15
ATOM     12  C   UNL     1      -0.326  10.461  22.340  0.00  0.00    +0.000 A 
ATOM     13  C   UNL     1       0.597   9.510  22.793  0.00  0.00    +0.000 A 
ATOM     14  C   UNL     1       1.339   8.746  21.887  0.00  0.00    +0.000 A 
ATOM     15  C   UNL     1       1.146   8.872  20.507  0.00  0.00    +0.000 A 
ATOM     16  C   UNL     1       0.245   9.861  20.066  0.00  0.00    +0.000 A 
ATOM     17  C   UNL     1      -0.492  10.637  20.968  0.00  0.00    +0.000 A 
BRANCH  12  19
ATOM     18  C   UNL     1      -1.522  12.385  23.026  0.00  0.00    +0.000 C 
ATOM     19  O   UNL     1      -1.061  11.068  23.315  0.00  0.00    +0.000 OA
ENDBRANCH  12  19
ENDBRANCH   1  15
BRANCH   4  20
ATOM     20  O   UNL     1       1.410   4.002  20.591  0.00  0.00    +0.000 OA
ATOM     21  C   UNL     1       2.231   3.551  21.668  0.00  0.00    +0.000 C 
ENDBRANCH   4  20
BRANCH   5  22
ATOM     22  O   UNL     1       2.462   1.985  18.840  0.00  0.00    +0.000 OA
ATOM     23  C   UNL     1       3.626   1.191  18.641  0.00  0.00    +0.000 C 
ENDBRANCH   5  22
BRANCH  11  24
ATOM     24  O   UNL     1       1.939   9.567  17.720  0.00  0.00    +0.000 OA
ATOM     25  H   UNL     1       0.983   9.725  17.873  0.00  0.00    +0.000 HD
ENDBRANCH  11  24
BRANCH   7  26
ATOM     26  O   UNL     1       4.546   5.286  16.128  0.00  0.00    +0.000 OA
BRANCH  26  27
ATOM     27  C   UNL     1       5.467   4.234  15.794  0.00  0.00    +0.000 C 
BRANCH  27  28
ATOM     28  C   UNL     1       6.901   4.643  15.400  0.00  0.00    +0.000 C 
BRANCH  28  29
ATOM     29  N   UNL     1       7.608   5.288  16.548  0.00  0.00    +0.000 NA
ATOM     30  C   UNL     1       7.174   6.681  16.768  0.00  0.00    +0.000 C 
ATOM     31  C   UNL     1       7.939   7.359  17.907  0.00  0.00    +0.000 C 
ATOM     32  C   UNL     1       7.820   6.568  19.199  0.00  0.00    +0.000 C 
ATOM     33  C   UNL     1       8.227   5.120  18.957  0.00  0.00    +0.000 C 
ATOM     34  C   UNL     1       7.456   4.500  17.783  0.00  0.00    +0.000 C 
ENDBRANCH  28  29
ENDBRANCH  27  28
ENDBRANCH  26  27
ENDBRANCH   7  26
TORSDOF 9
ENDMDL
MODEL 2
REMARK VINA RESULT:      -8.2      1.450      2.657
REMARK  Name = 
REMARK  12 active torsions:
REMARK  status: ('A' for Active; 'I' for Inactive)
REMARK    1  A    between atoms: C_1  and  O_2
REMARK    2  A    between atoms: O_2  and  C_3
REMARK    3  A    between atoms: C_6  and  C_7
REMARK    4  A    between atoms: C_10  and  O_11
REMARK    5  A    between atoms: O_11  and  C_12
REMARK    6  A    between atoms: C_13  and  O_14
REMARK    7  A    between atoms: O_14  and  C_15
REMARK    8  A    between atoms: C_17  and  O_18
REMARK    9  A    between atoms: O_18  and  C_19
REMARK   10  A    between atoms: C_19  and  C_20
REMARK   11  A    between atoms: C_20  and  N_21
REMARK   12  A    between atoms: C_30  and  O_31
REMARK                            x       y       z     vdW  Elec       q    Type
REMARK                         _______ _______ _______ _____ _____    ______ ____
ROOT
ATOM      1  C   UNL     1       1.443   8.230  19.737  0.00  0.00    +0.000 A 
ATOM      2  O   UNL     1       2.058   7.114  20.281  0.00  0.00    +0.000 OA
ATOM      3  C   UNL     1       2.728   6.248  19.439  0.00  0.00    +0.000 A 
ATOM      4  C   UNL     1       2.895   4.926  19.879  0.00  0.00    +0.000 A 
ATOM      5  C   UNL     1       3.679   4.063  19.113  0.00  0.00    +0.000 A 
ATOM      6  C   UNL     1       4.318   4.542  17.968  0.00  0.00    +0.000 A 
ATOM      7  C   UNL     1       4.148   5.857  17.495  0.00  0.00    +0.000 A 
ATOM      8  C   UNL     1       3.286   6.696  18.226  0.00  0.00    +0.000 A 
ATOM      9  C   UNL     1       2.854   8.031  17.769  0.00  0.00    +0.000 A 
ATOM     10  O   UNL     1       3.339   8.643  16.823  0.00  0.00    +0.000 OA
ATOM     11  C   UNL     1       1.697   8.647  18.486  0.00  0.00    +0.000 A 
ENDROOT
BRANCH   1  15
ATOM     12  C   UNL     1      -0.589  10.624  22.699  0.00  0.00    +0.000 A 
ATOM     13  C   UNL     1      -0.841  10.837  21.339  0.00  0.00    +0.000 A 
ATOM     14  C   UNL     1      -0.258  10.017  20.367  0.00  0.00    +0.000 A 
ATOM     15  C   UNL     1       0.630   8.996  20.721  0.00  0.00    +0.000 A 
ATOM     16  C   UNL     1       0.842   8.769  22.096  0.00  0.00    +0.000 A 
ATOM     17  C   UNL     1       0.251   9.578  23.073  0.00  0.00    +0.000 A 
BRANCH  12  19
ATOM     18  C   UNL     1      -2.283  12.237  23.065  0.00  0.00    +0.000 C 
ATOM     19  O   UNL     1      -1.130  11.551  23.543  0.00  0.00    +0.000 OA
ENDBRANCH  12  19
ENDBRANCH   1  15
BRANCH   4  20
ATOM     20  O   UNL     1       2.401   4.465  21.069  0.00  0.00    +0.000 OA
ATOM     21  C   UNL     1       1.233   3.652  20.954  0.00  0.00    +0.000 C 
ENDBRANCH   4  20
BRANCH   5  22
ATOM     22  O   UNL     1       3.956   2.746  19.374  0.00  0.00    +0.000 OA
ATOM     23  C   UNL     1       3.364   1.799  18.491  0.00  0.00    +0.000 C 
ENDBRANCH   5  22
BRANCH  11  24
ATOM     24  O   UNL     1       1.052   9.693  17.855  0.00  0.00    +0.000 OA
ATOM     25  H   UNL     1       0.486  10.094  18.549  0.00  0.00    +0.000 HD
ENDBRANCH  11  24
BRANCH   7  26
ATOM     26  O   UNL     1       4.794   6.319  16.353  0.00  0.00    +0.000 OA
BRANCH  26  27
ATOM     27  C   UNL     1       6.225   6.381  16.484  0.00  0.00    +0.000 C 
BRANCH  27  28
ATOM     28  C   UNL     1       7.045   5.218  15.890  0.00  0.00    +0.000 C 
BRANCH  28  29
ATOM     29  N   UNL     1       6.730   5.025  14.442  0.00  0.00    +0.000 NA
ATOM     30  C   UNL     1       7.900   5.253  13.574  0.00  0.00    +0.000 C 
ATOM     31  C   UNL     1       7.563   5.110  12.088  0.00  0.00    +0.000 C 
ATOM     32  C   UNL     1       6.952   3.752  11.789  0.00  0.00    +0.000 C 
ATOM     33  C   UNL     1       5.770   3.501  12.718  0.00  0.00    +0.000 C 
ATOM     34  C   UNL     1       6.154   3.692  14.192  0.00  0.00    +0.000 C 
ENDBRANCH  28  29
ENDBRANCH  27  28
ENDBRANCH  26  27
ENDBRANCH   7  26
TORSDOF 9
ENDMDL
MODEL 3
REMARK VINA RESULT:      -7.7      1.394      2.439
REMARK  Name = 
REMARK  12 active torsions:
REMARK  status: ('A' for Active; 'I' for Inactive)
REMARK    1  A    between atoms: C_1  and  O_2
REMARK    2  A    between atoms: O_2  and  C_3
REMARK    3  A    between atoms: C_6  and  C_7
REMARK    4  A    between atoms: C_10  and  O_11
REMARK    5  A    between atoms: O_11  and  C_12
REMARK    6  A    between atoms: C_13  and  O_14
REMARK    7  A    between atoms: O_14  and  C_15
REMARK    8  A    between atoms: C_17  and  O_18
REMARK    9  A    between atoms: O_18  and  C_19
REMARK   10  A    between atoms: C_19  and  C_20
REMARK   11  A    between atoms: C_20  and  N_21
REMARK   12  A    between atoms: C_30  and  O_31
REMARK                            x       y       z     vdW  Elec       q    Type
REMARK                         _______ _______ _______ _____ _____    ______ ____
ROOT
ATOM      1  C   UNL     1       1.559   8.185  19.709  0.00  0.00    +0.000 A 
ATOM      2  O   UNL     1       1.794   6.911  20.199  0.00  0.00    +0.000 OA
ATOM      3  C   UNL     1       2.269   5.944  19.334  0.00  0.00    +0.000 A 
ATOM      4  C   UNL     1       2.027   4.604  19.676  0.00  0.00    +0.000 A 
ATOM      5  C   UNL     1       2.605   3.603  18.894  0.00  0.00    +0.000 A 
ATOM      6  C   UNL     1       3.445   3.952  17.834  0.00  0.00    +0.000 A 
ATOM      7  C   UNL     1       3.685   5.288  17.460  0.00  0.00    +0.000 A 
ATOM      8  C   UNL     1       3.028   6.289  18.200  0.00  0.00    +0.000 A 
ATOM      9  C   UNL     1       3.021   7.717  17.826  0.00  0.00    +0.000 A 
ATOM     10  O   UNL     1       3.733   8.224  16.966  0.00  0.00    +0.000 OA
ATOM     11  C   UNL     1       2.023   8.589  18.515  0.00  0.00    +0.000 A 
ENDROOT
BRANCH   1  15
ATOM     12  C   UNL     1      -0.664  10.671  22.451  0.00  0.00    +0.000 A 
ATOM     13  C   UNL     1       0.122   9.622  22.942  0.00  0.00    +0.000 A 
ATOM     14  C   UNL     1       0.915   8.859  22.079  0.00  0.00    +0.000 A 
ATOM     15  C   UNL     1       0.909   9.088  20.699  0.00  0.00    +0.000 A 
ATOM     16  C   UNL     1       0.145  10.173  20.226  0.00  0.00    +0.000 A 
ATOM     17  C   UNL     1      -0.642  10.948  21.087  0.00  0.00    +0.000 A 
BRANCH  12  19
ATOM     18  C   UNL     1      -1.859  12.613  23.086  0.00  0.00    +0.000 C 
ATOM     19  O   UNL     1      -1.471  11.273  23.372  0.00  0.00    +0.000 OA
ENDBRANCH  12  19
ENDBRANCH   1  15
BRANCH   4  20
ATOM     20  O   UNL     1       1.328   4.229  20.790  0.00  0.00    +0.000 OA
ATOM     21  C   UNL     1       2.083   3.485  21.746  0.00  0.00    +0.000 C 
ENDBRANCH   4  20
BRANCH   5  22
ATOM     22  O   UNL     1       2.486   2.248  19.064  0.00  0.00    +0.000 OA
ATOM     23  C   UNL     1       3.560   1.462  18.563  0.00  0.00    +0.000 C 
ENDBRANCH   5  22
BRANCH  11  24
ATOM     24  O   UNL     1       1.745   9.810  17.931  0.00  0.00    +0.000 OA
ATOM     25  H   UNL     1       1.781   9.640  16.966  0.00  0.00    +0.000 HD
ENDBRANCH  11  24
BRANCH   7  26
ATOM     26  O   UNL     1       4.526   5.617  16.403  0.00  0.00    +0.000 OA
BRANCH  26  27
ATOM     27  C   UNL     1       5.773   4.899  16.412  0.00  0.00    +0.000 C 
BRANCH  27  28
ATOM     28  C   UNL     1       5.856   3.609  15.571  0.00  0.00    +0.000 C 
BRANCH  28  29
ATOM     29  N   UNL     1       6.685   3.820  14.346  0.00  0.00    +0.000 NA
ATOM     30  C   UNL     1       5.954   3.500  13.106  0.00  0.00    +0.000 C 
ATOM     31  C   UNL     1       6.821   3.662  11.856  0.00  0.00    +0.000 C 
ATOM     32  C   UNL     1       7.405   5.061  11.767  0.00  0.00    +0.000 C 
ATOM     33  C   UNL     1       8.123   5.405  13.067  0.00  0.00    +0.000 C 
ATOM     34  C   UNL     1       7.219   5.191  14.290  0.00  0.00    +0.000 C 
ENDBRANCH  28  29
ENDBRANCH  27  28
ENDBRANCH  26  27
ENDBRANCH   7  26
TORSDOF 9
ENDMDL
MODEL 4
REMARK VINA RESULT:      -7.5      2.680      8.491
REMARK  Name = 
REMARK  12 active torsions:
REMARK  status: ('A' for Active; 'I' for Inactive)
REMARK    1  A    between atoms: C_1  and  O_2
REMARK    2  A    between atoms: O_2  and  C_3
REMARK    3  A    between atoms: C_6  and  C_7
REMARK    4  A    between atoms: C_10  and  O_11
REMARK    5  A    between atoms: O_11  and  C_12
REMARK    6  A    between atoms: C_13  and  O_14
REMARK    7  A    between atoms: O_14  and  C_15
REMARK    8  A    between atoms: C_17  and  O_18
REMARK    9  A    between atoms: O_18  and  C_19
REMARK   10  A    between atoms: C_19  and  C_20
REMARK   11  A    between atoms: C_20  and  N_21
REMARK   12  A    between atoms: C_30  and  O_31
REMARK                            x       y       z     vdW  Elec       q    Type
REMARK                         _______ _______ _______ _____ _____    ______ ____
ROOT
ATOM      1  C   UNL     1       4.982   5.210  16.321  0.00  0.00    +0.000 A 
ATOM      2  O   UNL     1       4.330   4.253  17.082  0.00  0.00    +0.000 OA
ATOM      3  C   UNL     1       3.785   4.627  18.295  0.00  0.00    +0.000 A 
ATOM      4  C   UNL     1       3.595   3.617  19.251  0.00  0.00    +0.000 A 
ATOM      5  C   UNL     1       2.928   3.937  20.434  0.00  0.00    +0.000 A 
ATOM      6  C   UNL     1       2.422   5.225  20.615  0.00  0.00    +0.000 A 
ATOM      7  C   UNL     1       2.619   6.260  19.681  0.00  0.00    +0.000 A 
ATOM      8  C   UNL     1       3.369   5.951  18.531  0.00  0.00    +0.000 A 
ATOM      9  C   UNL     1       3.824   6.957  17.550  0.00  0.00    +0.000 A 
ATOM     10  O   UNL     1       3.444   8.121  17.509  0.00  0.00    +0.000 OA
ATOM     11  C   UNL     1       4.872   6.523  16.578  0.00  0.00    +0.000 A 
ENDROOT
BRANCH   1  15
ATOM     12  C   UNL     1       6.727   3.838  12.618  0.00  0.00    +0.000 A 
ATOM     13  C   UNL     1       7.525   4.494  13.563  0.00  0.00    +0.000 A 
ATOM     14  C   UNL     1       6.999   4.871  14.804  0.00  0.00    +0.000 A 
ATOM     15  C   UNL     1       5.653   4.650  15.116  0.00  0.00    +0.000 A 
ATOM     16  C   UNL     1       4.875   3.952  14.170  0.00  0.00    +0.000 A 
ATOM     17  C   UNL     1       5.399   3.562  12.933  0.00  0.00    +0.000 A 
BRANCH  12  19
ATOM     18  C   UNL     1       7.464   2.252  11.023  0.00  0.00    +0.000 C 
ATOM     19  O   UNL     1       7.322   3.615  11.410  0.00  0.00    +0.000 OA
ENDBRANCH  12  19
ENDBRANCH   1  15
BRANCH   4  20
ATOM     20  O   UNL     1       3.951   2.312  19.043  0.00  0.00    +0.000 OA
ATOM     21  C   UNL     1       2.942   1.510  18.428  0.00  0.00    +0.000 C 
ENDBRANCH   4  20
BRANCH   5  22
ATOM     22  O   UNL     1       2.650   3.096  21.479  0.00  0.00    +0.000 OA
ATOM     23  C   UNL     1       1.273   2.802  21.692  0.00  0.00    +0.000 C 
ENDBRANCH   5  22
BRANCH  11  24
ATOM     24  O   UNL     1       5.567   7.519  15.918  0.00  0.00    +0.000 OA
ATOM     25  H   UNL     1       6.491   7.431  16.234  0.00  0.00    +0.000 HD
ENDBRANCH  11  24
BRANCH   7  26
ATOM     26  O   UNL     1       2.107   7.537  19.877  0.00  0.00    +0.000 OA
BRANCH  26  27
ATOM     27  C   UNL     1       1.155   7.620  20.953  0.00  0.00    +0.000 C 
BRANCH  27  28
ATOM     28  C   UNL     1       1.331   8.764  21.971  0.00  0.00    +0.000 C 
BRANCH  28  29
ATOM     29  N   UNL     1       0.215   9.753  21.864  0.00  0.00    +0.000 NA
ATOM     30  C   UNL     1      -0.328  10.136  23.181  0.00  0.00    +0.000 C 
ATOM     31  C   UNL     1      -1.507  11.105  23.067  0.00  0.00    +0.000 C 
ATOM     32  C   UNL     1      -1.127  12.348  22.281  0.00  0.00    +0.000 C 
ATOM     33  C   UNL     1      -0.525  11.946  20.940  0.00  0.00    +0.000 C 
ATOM     34  C   UNL     1       0.629  10.948  21.109  0.00  0.00    +0.000 C 
ENDBRANCH  28  29
ENDBRANCH  27  28
ENDBRANCH  26  27
ENDBRANCH   7  26
TORSDOF 9
ENDMDL
MODEL 5
REMARK VINA RESULT:      -7.4      2.645      8.556
REMARK  Name = 
REMARK  12 active torsions:
REMARK  status: ('A' for Active; 'I' for Inactive)
REMARK    1  A    between atoms: C_1  and  O_2
REMARK    2  A    between atoms: O_2  and  C_3
REMARK    3  A    between atoms: C_6  and  C_7
REMARK    4  A    between atoms: C_10  and  O_11
REMARK    5  A    between atoms: O_11  and  C_12
REMARK    6  A    between atoms: C_13  and  O_14
REMARK    7  A    between atoms: O_14  and  C_15
REMARK    8  A    between atoms: C_17  and  O_18
REMARK    9  A    between atoms: O_18  and  C_19
REMARK   10  A    between atoms: C_19  and  C_20
REMARK   11  A    between atoms: C_20  and  N_21
REMARK   12  A    between atoms: C_30  and  O_31
REMARK                            x       y       z     vdW  Elec       q    Type
REMARK                         _______ _______ _______ _____ _____    ______ ____
ROOT
ATOM      1  C   UNL     1       4.894   5.103  15.981  0.00  0.00    +0.000 A 
ATOM      2  O   UNL     1       3.895   4.258  16.439  0.00  0.00    +0.000 OA
ATOM      3  C   UNL     1       3.342   4.496  17.682  0.00  0.00    +0.000 A 
ATOM      4  C   UNL     1       2.740   3.408  18.335  0.00  0.00    +0.000 A 
ATOM      5  C   UNL     1       2.059   3.643  19.530  0.00  0.00    +0.000 A 
ATOM      6  C   UNL     1       1.947   4.946  20.017  0.00  0.00    +0.000 A 
ATOM      7  C   UNL     1       2.560   6.049  19.392  0.00  0.00    +0.000 A 
ATOM      8  C   UNL     1       3.318   5.791  18.235  0.00  0.00    +0.000 A 
ATOM      9  C   UNL     1       4.173   6.794  17.570  0.00  0.00    +0.000 A 
ATOM     10  O   UNL     1       4.169   7.995  17.815  0.00  0.00    +0.000 OA
ATOM     11  C   UNL     1       5.153   6.284  16.565  0.00  0.00    +0.000 A 
ENDROOT
BRANCH   1  15
ATOM     12  C   UNL     1       6.896   3.560  12.482  0.00  0.00    +0.000 A 
ATOM     13  C   UNL     1       5.539   3.284  12.687  0.00  0.00    +0.000 A 
ATOM     14  C   UNL     1       4.852   3.844  13.769  0.00  0.00    +0.000 A 
ATOM     15  C   UNL     1       5.508   4.652  14.703  0.00  0.00    +0.000 A 
ATOM     16  C   UNL     1       6.863   4.953  14.460  0.00  0.00    +0.000 A 
ATOM     17  C   UNL     1       7.554   4.406  13.372  0.00  0.00    +0.000 A 
BRANCH  12  19
ATOM     18  C   UNL     1       6.839   1.666  11.063  0.00  0.00    +0.000 C 
ATOM     19  O   UNL     1       7.480   2.876  11.456  0.00  0.00    +0.000 OA
ENDBRANCH  12  19
ENDBRANCH   1  15
BRANCH   4  20
ATOM     20  O   UNL     1       2.710   2.145  17.812  0.00  0.00    +0.000 OA
ATOM     21  C   UNL     1       3.734   1.275  18.295  0.00  0.00    +0.000 C 
ENDBRANCH   4  20
BRANCH   5  22
ATOM     22  O   UNL     1       1.414   2.718  20.309  0.00  0.00    +0.000 OA
ATOM     23  C   UNL     1       1.803   2.678  21.677  0.00  0.00    +0.000 C 
ENDBRANCH   5  22
BRANCH  11  24
ATOM     24  O   UNL     1       6.191   7.127  16.216  0.00  0.00    +0.000 OA
ATOM     25  H   UNL     1       6.488   6.808  15.337  0.00  0.00    +0.000 HD
ENDBRANCH  11  24
BRANCH   7  26
ATOM     26  O   UNL     1       2.435   7.341  19.890  0.00  0.00    +0.000 OA
BRANCH  26  27
ATOM     27  C   UNL     1       1.209   7.569  20.606  0.00  0.00    +0.000 C 
BRANCH  27  28
ATOM     28  C   UNL     1       1.272   8.472  21.854  0.00  0.00    +0.000 C 
BRANCH  28  29
ATOM     29  N   UNL     1       0.179   9.491  21.834  0.00  0.00    +0.000 NA
ATOM     30  C   UNL     1      -0.228   9.910  23.189  0.00  0.00    +0.000 C 
ATOM     31  C   UNL     1      -1.384  10.912  23.169  0.00  0.00    +0.000 C 
ATOM     32  C   UNL     1      -1.044  12.131  22.329  0.00  0.00    +0.000 C 
ATOM     33  C   UNL     1      -0.582  11.692  20.945  0.00  0.00    +0.000 C 
ATOM     34  C   UNL     1       0.554  10.662  21.024  0.00  0.00    +0.000 C 
ENDBRANCH  28  29
ENDBRANCH  27  28
ENDBRANCH  26  27
ENDBRANCH   7  26
TORSDOF 9
ENDMDL
MODEL 6
REMARK VINA RESULT:      -7.4      1.549      2.739
REMARK  Name = 
REMARK  12 active torsions:
REMARK  status: ('A' for Active; 'I' for Inactive)
REMARK    1  A    between atoms: C_1  and  O_2
REMARK    2  A    between atoms: O_2  and  C_3
REMARK    3  A    between atoms: C_6  and  C_7
REMARK    4  A    between atoms: C_10  and  O_11
REMARK    5  A    between atoms: O_11  and  C_12
REMARK    6  A    between atoms: C_13  and  O_14
REMARK    7  A    between atoms: O_14  and  C_15
REMARK    8  A    between atoms: C_17  and  O_18
REMARK    9  A    between atoms: O_18  and  C_19
REMARK   10  A    between atoms: C_19  and  C_20
REMARK   11  A    between atoms: C_20  and  N_21
REMARK   12  A    between atoms: C_30  and  O_31
REMARK                            x       y       z     vdW  Elec       q    Type
REMARK                         _______ _______ _______ _____ _____    ______ ____
ROOT
ATOM      1  C   UNL     1       1.708   8.005  19.622  0.00  0.00    +0.000 A 
ATOM      2  O   UNL     1       2.187   6.896  20.300  0.00  0.00    +0.000 OA
ATOM      3  C   UNL     1       2.883   5.934  19.595  0.00  0.00    +0.000 A 
ATOM      4  C   UNL     1       2.913   4.638  20.135  0.00  0.00    +0.000 A 
ATOM      5  C   UNL     1       3.714   3.678  19.516  0.00  0.00    +0.000 A 
ATOM      6  C   UNL     1       4.500   4.035  18.419  0.00  0.00    +0.000 A 
ATOM      7  C   UNL     1       4.469   5.322  17.847  0.00  0.00    +0.000 A 
ATOM      8  C   UNL     1       3.593   6.260  18.423  0.00  0.00    +0.000 A 
ATOM      9  C   UNL     1       3.302   7.583  17.836  0.00  0.00    +0.000 A 
ATOM     10  O   UNL     1       3.923   8.095  16.912  0.00  0.00    +0.000 OA
ATOM     11  C   UNL     1       2.120   8.316  18.382  0.00  0.00    +0.000 A 
ENDROOT
BRANCH   1  15
ATOM     12  C   UNL     1      -0.458  10.711  22.194  0.00  0.00    +0.000 A 
ATOM     13  C   UNL     1      -0.519  10.872  20.805  0.00  0.00    +0.000 A 
ATOM     14  C   UNL     1       0.106   9.956  19.952  0.00  0.00    +0.000 A 
ATOM     15  C   UNL     1       0.850   8.886  20.461  0.00  0.00    +0.000 A 
ATOM     16  C   UNL     1       0.867   8.715  21.859  0.00  0.00    +0.000 A 
ATOM     17  C   UNL     1       0.233   9.621  22.717  0.00  0.00    +0.000 A 
BRANCH  12  19
ATOM     18  C   UNL     1      -0.748  13.045  22.467  0.00  0.00    +0.000 C 
ATOM     19  O   UNL     1      -1.017  11.722  22.921  0.00  0.00    +0.000 OA
ENDBRANCH  12  19
ENDBRANCH   1  15
BRANCH   4  20
ATOM     20  O   UNL     1       2.267   4.294  21.290  0.00  0.00    +0.000 OA
ATOM     21  C   UNL     1       1.137   3.441  21.110  0.00  0.00    +0.000 C 
ENDBRANCH   4  20
BRANCH   5  22
ATOM     22  O   UNL     1       3.873   2.369  19.890  0.00  0.00    +0.000 OA
ATOM     23  C   UNL     1       3.651   1.400  18.871  0.00  0.00    +0.000 C 
ENDBRANCH   5  22
BRANCH  11  24
ATOM     24  O   UNL     1       1.616   9.351  17.618  0.00  0.00    +0.000 OA
ATOM     25  H   UNL     1       2.181   9.370  16.817  0.00  0.00    +0.000 HD
ENDBRANCH  11  24
BRANCH   7  26
ATOM     26  O   UNL     1       5.261   5.661  16.755  0.00  0.00    +0.000 OA
BRANCH  26  27
ATOM     27  C   UNL     1       6.234   4.659  16.413  0.00  0.00    +0.000 C 
BRANCH  27  28
ATOM     28  C   UNL     1       5.857   3.648  15.312  0.00  0.00    +0.000 C 
BRANCH  28  29
ATOM     29  N   UNL     1       6.700   3.843  14.093  0.00  0.00    +0.000 NA
ATOM     30  C   UNL     1       5.971   3.535  12.848  0.00  0.00    +0.000 C 
ATOM     31  C   UNL     1       6.851   3.681  11.605  0.00  0.00    +0.000 C 
ATOM     32  C   UNL     1       7.460   5.070  11.519  0.00  0.00    +0.000 C 
ATOM     33  C   UNL     1       8.174   5.402  12.824  0.00  0.00    +0.000 C 
ATOM     34  C   UNL     1       7.258   5.205  14.040  0.00  0.00    +0.000 C 
ENDBRANCH  28  29
ENDBRANCH  27  28
ENDBRANCH  26  27
ENDBRANCH   7  26
TORSDOF 9
ENDMDL
MODEL 7
REMARK VINA RESULT:      -7.4      2.607      8.270
REMARK  Name = 
REMARK  12 active torsions:
REMARK  status: ('A' for Active; 'I' for Inactive)
REMARK    1  A    between atoms: C_1  and  O_2
REMARK    2  A    between atoms: O_2  and  C_3
REMARK    3  A    between atoms: C_6  and  C_7
REMARK    4  A    between atoms: C_10  and  O_11
REMARK    5  A    between atoms: O_11  and  C_12
REMARK    6  A    between atoms: C_13  and  O_14
REMARK    7  A    between atoms: O_14  and  C_15
REMARK    8  A    between atoms: C_17  and  O_18
REMARK    9  A    between atoms: O_18  and  C_19
REMARK   10  A    between atoms: C_19  and  C_20
REMARK   11  A    between atoms: C_20  and  N_21
REMARK   12  A    between atoms: C_30  and  O_31
REMARK                            x       y       z     vdW  Elec       q    Type
REMARK                         _______ _______ _______ _____ _____    ______ ____
ROOT
ATOM      1  C   UNL     1       4.854   5.105  16.291  0.00  0.00    +0.000 A 
ATOM      2  O   UNL     1       3.818   4.304  16.743  0.00  0.00    +0.000 OA
ATOM      3  C   UNL     1       3.182   4.643  17.922  0.00  0.00    +0.000 A 
ATOM      4  C   UNL     1       2.526   3.614  18.615  0.00  0.00    +0.000 A 
ATOM      5  C   UNL     1       1.767   3.946  19.738  0.00  0.00    +0.000 A 
ATOM      6  C   UNL     1       1.634   5.285  20.111  0.00  0.00    +0.000 A 
ATOM      7  C   UNL     1       2.300   6.332  19.445  0.00  0.00    +0.000 A 
ATOM      8  C   UNL     1       3.133   5.978  18.368  0.00  0.00    +0.000 A 
ATOM      9  C   UNL     1       4.042   6.921  17.686  0.00  0.00    +0.000 A 
ATOM     10  O   UNL     1       4.034   8.138  17.834  0.00  0.00    +0.000 OA
ATOM     11  C   UNL     1       5.084   6.328  16.795  0.00  0.00    +0.000 A 
ENDROOT
BRANCH   1  15
ATOM     12  C   UNL     1       6.670   3.742  12.619  0.00  0.00    +0.000 A 
ATOM     13  C   UNL     1       7.440   4.429  13.564  0.00  0.00    +0.000 A 
ATOM     14  C   UNL     1       6.893   4.804  14.796  0.00  0.00    +0.000 A 
ATOM     15  C   UNL     1       5.551   4.551  15.098  0.00  0.00    +0.000 A 
ATOM     16  C   UNL     1       4.801   3.823  14.153  0.00  0.00    +0.000 A 
ATOM     17  C   UNL     1       5.346   3.434  12.924  0.00  0.00    +0.000 A 
BRANCH  12  19
ATOM     18  C   UNL     1       7.378   2.164  11.003  0.00  0.00    +0.000 C 
ATOM     19  O   UNL     1       7.282   3.523  11.419  0.00  0.00    +0.000 OA
ENDBRANCH  12  19
ENDBRANCH   1  15
BRANCH   4  20
ATOM     20  O   UNL     1       2.519   2.313  18.193  0.00  0.00    +0.000 OA
ATOM     21  C   UNL     1       3.622   1.532  18.651  0.00  0.00    +0.000 C 
ENDBRANCH   4  20
BRANCH   5  22
ATOM     22  O   UNL     1       1.060   3.090  20.541  0.00  0.00    +0.000 OA
ATOM     23  C   UNL     1       1.734   2.634  21.709  0.00  0.00    +0.000 C 
ENDBRANCH   5  22
BRANCH  11  24
ATOM     24  O   UNL     1       6.153   7.135  16.454  0.00  0.00    +0.000 OA
ATOM     25  H   UNL     1       6.937   6.548  16.507  0.00  0.00    +0.000 HD
ENDBRANCH  11  24
BRANCH   7  26
ATOM     26  O   UNL     1       2.155   7.660  19.829  0.00  0.00    +0.000 OA
BRANCH  26  27
ATOM     27  C   UNL     1       1.251   7.847  20.932  0.00  0.00    +0.000 C 
BRANCH  27  28
ATOM     28  C   UNL     1       0.912   9.296  21.335  0.00  0.00    +0.000 C 
BRANCH  28  29
ATOM     29  N   UNL     1       0.665  10.144  20.129  0.00  0.00    +0.000 NA
ATOM     30  C   UNL     1      -0.734  10.074  19.666  0.00  0.00    +0.000 C 
ATOM     31  C   UNL     1      -0.973  10.897  18.399  0.00  0.00    +0.000 C 
ATOM     32  C   UNL     1      -0.564  12.347  18.598  0.00  0.00    +0.000 C 
ATOM     33  C   UNL     1       0.866  12.414  19.118  0.00  0.00    +0.000 C 
ATOM     34  C   UNL     1       1.059  11.543  20.368  0.00  0.00    +0.000 C 
ENDBRANCH  28  29
ENDBRANCH  27  28
ENDBRANCH  26  27
ENDBRANCH   7  26
TORSDOF 9
ENDMDL
MODEL 8
REMARK VINA RESULT:      -7.2      2.743      8.228
REMARK  Name = 
REMARK  12 active torsions:
REMARK  status: ('A' for Active; 'I' for Inactive)
REMARK    1  A    between atoms: C_1  and  O_2
REMARK    2  A    between atoms: O_2  and  C_3
REMARK    3  A    between atoms: C_6  and  C_7
REMARK    4  A    between atoms: C_10  and  O_11
REMARK    5  A    between atoms: O_11  and  C_12
REMARK    6  A    between atoms: C_13  and  O_14
REMARK    7  A    between atoms: O_14  and  C_15
REMARK    8  A    between atoms: C_17  and  O_18
REMARK    9  A    between atoms: O_18  and  C_19
REMARK   10  A    between atoms: C_19  and  C_20
REMARK   11  A    between atoms: C_20  and  N_21
REMARK   12  A    between atoms: C_30  and  O_31
REMARK                            x       y       z     vdW  Elec       q    Type
REMARK                         _______ _______ _______ _____ _____    ______ ____
ROOT
ATOM      1  C   UNL     1       4.869   5.328  16.468  0.00  0.00    +0.000 A 
ATOM      2  O   UNL     1       4.226   4.386  17.256  0.00  0.00    +0.000 OA
ATOM      3  C   UNL     1       3.641   4.797  18.438  0.00  0.00    +0.000 A 
ATOM      4  C   UNL     1       3.457   3.825  19.433  0.00  0.00    +0.000 A 
ATOM      5  C   UNL     1       2.753   4.177  20.585  0.00  0.00    +0.000 A 
ATOM      6  C   UNL     1       2.207   5.457  20.698  0.00  0.00    +0.000 A 
ATOM      7  C   UNL     1       2.398   6.455  19.722  0.00  0.00    +0.000 A 
ATOM      8  C   UNL     1       3.183   6.118  18.605  0.00  0.00    +0.000 A 
ATOM      9  C   UNL     1       3.634   7.092  17.591  0.00  0.00    +0.000 A 
ATOM     10  O   UNL     1       3.222   8.243  17.489  0.00  0.00    +0.000 OA
ATOM     11  C   UNL     1       4.716   6.647  16.663  0.00  0.00    +0.000 A 
ENDROOT
BRANCH   1  15
ATOM     12  C   UNL     1       6.738   3.843  12.871  0.00  0.00    +0.000 A 
ATOM     13  C   UNL     1       7.492   4.573  13.797  0.00  0.00    +0.000 A 
ATOM     14  C   UNL     1       6.927   4.990  15.007  0.00  0.00    +0.000 A 
ATOM     15  C   UNL     1       5.584   4.735  15.304  0.00  0.00    +0.000 A 
ATOM     16  C   UNL     1       4.851   3.964  14.380  0.00  0.00    +0.000 A 
ATOM     17  C   UNL     1       5.414   3.533  13.173  0.00  0.00    +0.000 A 
BRANCH  12  19
ATOM     18  C   UNL     1       7.256   2.250  11.197  0.00  0.00    +0.000 C 
ATOM     19  O   UNL     1       7.365   3.583  11.687  0.00  0.00    +0.000 OA
ENDBRANCH  12  19
ENDBRANCH   1  15
BRANCH   4  20
ATOM     20  O   UNL     1       3.854   2.524  19.292  0.00  0.00    +0.000 OA
ATOM     21  C   UNL     1       2.960   1.707  18.536  0.00  0.00    +0.000 C 
ENDBRANCH   4  20
BRANCH   5  22
ATOM     22  O   UNL     1       2.473   3.376  21.661  0.00  0.00    +0.000 OA
ATOM     23  C   UNL     1       1.236   2.673  21.608  0.00  0.00    +0.000 C 
ENDBRANCH   5  22
BRANCH  11  24
ATOM     24  O   UNL     1       5.398   7.632  15.975  0.00  0.00    +0.000 OA
ATOM     25  H   UNL     1       5.586   7.240  15.096  0.00  0.00    +0.000 HD
ENDBRANCH  11  24
BRANCH   7  26
ATOM     26  O   UNL     1       1.845   7.725  19.850  0.00  0.00    +0.000 OA
BRANCH  26  27
ATOM     27  C   UNL     1       1.372   8.019  21.176  0.00  0.00    +0.000 C 
BRANCH  27  28
ATOM     28  C   UNL     1      -0.100   8.450  21.326  0.00  0.00    +0.000 C 
BRANCH  28  29
ATOM     29  N   UNL     1      -0.276   9.891  20.971  0.00  0.00    +0.000 NA
ATOM     30  C   UNL     1       0.939  10.688  21.223  0.00  0.00    +0.000 C 
ATOM     31  C   UNL     1       0.741  12.173  20.912  0.00  0.00    +0.000 C 
ATOM     32  C   UNL     1       0.272  12.380  19.482  0.00  0.00    +0.000 C 
ATOM     33  C   UNL     1      -0.959  11.521  19.213  0.00  0.00    +0.000 C 
ATOM     34  C   UNL     1      -0.716  10.049  19.574  0.00  0.00    +0.000 C 
ENDBRANCH  28  29
ENDBRANCH  27  28
ENDBRANCH  26  27
ENDBRANCH   7  26
TORSDOF 9
ENDMDL
MODEL 9
REMARK VINA RESULT:      -7.2      4.149     10.880
REMARK  Name = 
REMARK  12 active torsions:
REMARK  status: ('A' for Active; 'I' for Inactive)
REMARK    1  A    between atoms: C_1  and  O_2
REMARK    2  A    between atoms: O_2  and  C_3
REMARK    3  A    between atoms: C_6  and  C_7
REMARK    4  A    between atoms: C_10  and  O_11
REMARK    5  A    between atoms: O_11  and  C_12
REMARK    6  A    between atoms: C_13  and  O_14
REMARK    7  A    between atoms: O_14  and  C_15
REMARK    8  A    between atoms: C_17  and  O_18
REMARK    9  A    between atoms: O_18  and  C_19
REMARK   10  A    between atoms: C_19  and  C_20
REMARK   11  A    between atoms: C_20  and  N_21
REMARK   12  A    between atoms: C_30  and  O_31
REMARK                            x       y       z     vdW  Elec       q    Type
REMARK                         _______ _______ _______ _____ _____    ______ ____
ROOT
ATOM      1  C   UNL     1       0.703   9.632  20.387  0.00  0.00    +0.000 A 
ATOM      2  O   UNL     1       1.087  10.892  19.956  0.00  0.00    +0.000 OA
ATOM      3  C   UNL     1       0.382  11.991  20.405  0.00  0.00    +0.000 A 
ATOM      4  C   UNL     1       0.428  13.150  19.613  0.00  0.00    +0.000 A 
ATOM      5  C   UNL     1      -0.165  14.314  20.103  0.00  0.00    +0.000 A 
ATOM      6  C   UNL     1      -0.737  14.317  21.377  0.00  0.00    +0.000 A 
ATOM      7  C   UNL     1      -0.814  13.162  22.179  0.00  0.00    +0.000 A 
ATOM      8  C   UNL     1      -0.292  11.971  21.642  0.00  0.00    +0.000 A 
ATOM      9  C   UNL     1      -0.458  10.643  22.266  0.00  0.00    +0.000 A 
ATOM     10  O   UNL     1      -0.882  10.447  23.399  0.00  0.00    +0.000 OA
ATOM     11  C   UNL     1      -0.137   9.456  21.419  0.00  0.00    +0.000 A 
ENDROOT
BRANCH   1  15
ATOM     12  C   UNL     1       3.154   6.658  18.442  0.00  0.00    +0.000 A 
ATOM     13  C   UNL     1       2.691   6.436  19.744  0.00  0.00    +0.000 A 
ATOM     14  C   UNL     1       1.828   7.348  20.360  0.00  0.00    +0.000 A 
ATOM     15  C   UNL     1       1.442   8.528  19.715  0.00  0.00    +0.000 A 
ATOM     16  C   UNL     1       1.883   8.716  18.390  0.00  0.00    +0.000 A 
ATOM     17  C   UNL     1       2.738   7.801  17.764  0.00  0.00    +0.000 A 
BRANCH  12  19
ATOM     18  C   UNL     1       4.135   4.518  18.694  0.00  0.00    +0.000 C 
ATOM     19  O   UNL     1       4.070   5.754  17.988  0.00  0.00    +0.000 OA
ENDBRANCH  12  19
ENDBRANCH   1  15
BRANCH   4  20
ATOM     20  O   UNL     1       1.103  13.219  18.426  0.00  0.00    +0.000 OA
ATOM     21  C   UNL     1       2.482  13.569  18.544  0.00  0.00    +0.000 C 
ENDBRANCH   4  20
BRANCH   5  22
ATOM     22  O   UNL     1      -0.225  15.535  19.482  0.00  0.00    +0.000 OA
ATOM     23  C   UNL     1       0.664  16.529  19.978  0.00  0.00    +0.000 C 
ENDBRANCH   5  22
BRANCH  11  24
ATOM     24  O   UNL     1      -0.630   8.234  21.837  0.00  0.00    +0.000 OA
ATOM     25  H   UNL     1      -0.578   7.659  21.044  0.00  0.00    +0.000 HD
ENDBRANCH  11  24
BRANCH   7  26
ATOM     26  O   UNL     1      -1.384  13.183  23.447  0.00  0.00    +0.000 OA
BRANCH  26  27
ATOM     27  C   UNL     1      -2.761  13.599  23.454  0.00  0.00    +0.000 C 
BRANCH  27  28
ATOM     28  C   UNL     1      -3.756  12.751  24.272  0.00  0.00    +0.000 C 
BRANCH  28  29
ATOM     29  N   UNL     1      -4.937  12.362  23.443  0.00  0.00    +0.000 NA
ATOM     30  C   UNL     1      -6.212  12.817  24.027  0.00  0.00    +0.000 C 
ATOM     31  C   UNL     1      -7.424  12.369  23.207  0.00  0.00    +0.000 C 
ATOM     32  C   UNL     1      -7.318  12.836  21.765  0.00  0.00    +0.000 C 
ATOM     33  C   UNL     1      -5.979  12.402  21.179  0.00  0.00    +0.000 C 
ATOM     34  C   UNL     1      -4.802  12.846  22.058  0.00  0.00    +0.000 C 
ENDBRANCH  28  29
ENDBRANCH  27  28
ENDBRANCH  26  27
ENDBRANCH   7  26
TORSDOF 9
ENDMDL
