MODEL 1
REMARK VINA RESULT:      -8.7      0.000      0.000
REMARK  Name = 
REMARK  5 active torsions:
REMARK  status: ('A' for Active; 'I' for Inactive)
REMARK    1  A    between atoms: C_1  and  C_2
REMARK    2  A    between atoms: N_4  and  C_5
REMARK    3  A    between atoms: C_5  and  C_6
REMARK    4  A    between atoms: C_14  and  N_15
REMARK    5  A    between atoms: C_16  and  C_18
REMARK                            x       y       z     vdW  Elec       q    Type
REMARK                         _______ _______ _______ _____ _____    ______ ____
ROOT
ATOM      1  C   UNL     1       6.927   5.425  19.313  0.00  0.00    +0.000 C 
ATOM      2  C   UNL     1       6.245   4.798  18.085  0.00  0.00    +0.000 C 
ATOM      3  C   UNL     1       4.721   4.744  18.276  0.00  0.00    +0.000 C 
ATOM      4  N   UNL     1       4.111   6.088  18.309  0.00  0.00    +0.000 NA
ATOM      5  C   UNL     1       4.416   6.860  17.097  0.00  0.00    +0.000 C 
ATOM      6  C   UNL     1       5.917   6.942  16.797  0.00  0.00    +0.000 C 
ATOM      7  C   UNL     1       6.581   5.563  16.793  0.00  0.00    +0.000 C 
ENDROOT
BRANCH   7   8
ATOM      8  N   UNL     1       6.170   4.817  15.598  0.00  0.00    +0.000 N 
ATOM      9  C   UNL     1       6.857   4.885  14.402  0.00  0.00    +0.000 C 
ATOM     10  O   UNL     1       7.844   5.586  14.227  0.00  0.00    +0.000 OA
ATOM     11  H   UNL     1       5.554   4.028  15.734  0.00  0.00    +0.000 HD
BRANCH   9  12
ATOM     12  C   UNL     1       6.334   4.025  13.306  0.00  0.00    +0.000 A 
ATOM     13  C   UNL     1       4.966   3.966  12.989  0.00  0.00    +0.000 A 
ATOM     14  C   UNL     1       4.518   3.156  11.942  0.00  0.00    +0.000 A 
ATOM     15  C   UNL     1       5.432   2.414  11.197  0.00  0.00    +0.000 A 
ATOM     16  C   UNL     1       6.788   2.486  11.505  0.00  0.00    +0.000 A 
ATOM     17  F   UNL     1       7.663   1.779  10.780  0.00  0.00    +0.000 F 
ATOM     18  C   UNL     1       7.249   3.287  12.545  0.00  0.00    +0.000 A 
ENDBRANCH   9  12
ENDBRANCH   7   8
BRANCH   4  19
ATOM     19  C   UNL     1       2.640   5.986  18.484  0.00  0.00    +0.000 C 
BRANCH  19  20
ATOM     20  C   UNL     1       2.208   4.817  19.353  0.00  0.00    +0.000 A 
ATOM     21  C   UNL     1       1.406   3.809  18.818  0.00  0.00    +0.000 A 
ATOM     22  C   UNL     1       0.907   2.827  19.665  0.00  0.00    +0.000 A 
ATOM     23  C   UNL     1       1.229   2.867  21.015  0.00  0.00    +0.000 A 
ATOM     24  C   UNL     1       2.054   3.886  21.464  0.00  0.00    +0.000 A 
ATOM     25  N   UNL     1       2.547   4.859  20.668  0.00  0.00    +0.000 NA
ENDBRANCH  19  20
ENDBRANCH   4  19
TORSDOF 4
ENDMDL
MODEL 2
REMARK VINA RESULT:      -8.5      0.984      1.392
REMARK  Name = 
REMARK  5 active torsions:
REMARK  status: ('A' for Active; 'I' for Inactive)
REMARK    1  A    between atoms: C_1  and  C_2
REMARK    2  A    between atoms: N_4  and  C_5
REMARK    3  A    between atoms: C_5  and  C_6
REMARK    4  A    between atoms: C_14  and  N_15
REMARK    5  A    between atoms: C_16  and  C_18
REMARK                            x       y       z     vdW  Elec       q    Type
REMARK                         _______ _______ _______ _____ _____    ______ ____
ROOT
ATOM      1  C   UNL     1       6.968   5.335  19.063  0.00  0.00    +0.000 C 
ATOM      2  C   UNL     1       6.306   4.689  17.834  0.00  0.00    +0.000 C 
ATOM      3  C   UNL     1       4.782   4.623  18.007  0.00  0.00    +0.000 C 
ATOM      4  N   UNL     1       4.159   5.961  18.018  0.00  0.00    +0.000 NA
ATOM      5  C   UNL     1       4.472   6.722  16.801  0.00  0.00    +0.000 C 
ATOM      6  C   UNL     1       5.975   6.816  16.519  0.00  0.00    +0.000 C 
ATOM      7  C   UNL     1       6.651   5.442  16.538  0.00  0.00    +0.000 C 
ENDROOT
BRANCH   7   8
ATOM      8  N   UNL     1       6.262   4.680  15.347  0.00  0.00    +0.000 N 
ATOM      9  C   UNL     1       6.931   4.781  14.142  0.00  0.00    +0.000 C 
ATOM     10  O   UNL     1       7.881   5.528  13.957  0.00  0.00    +0.000 OA
ATOM     11  H   UNL     1       5.686   3.861  15.488  0.00  0.00    +0.000 HD
BRANCH   9  12
ATOM     12  C   UNL     1       6.435   3.900  13.051  0.00  0.00    +0.000 A 
ATOM     13  C   UNL     1       7.293   3.069  12.311  0.00  0.00    +0.000 A 
ATOM     14  C   UNL     1       6.784   2.245  11.303  0.00  0.00    +0.000 A 
ATOM     15  C   UNL     1       5.417   2.235  11.040  0.00  0.00    +0.000 A 
ATOM     16  C   UNL     1       4.567   3.048  11.785  0.00  0.00    +0.000 A 
ATOM     17  F   UNL     1       3.252   3.028  11.534  0.00  0.00    +0.000 F 
ATOM     18  C   UNL     1       5.059   3.875  12.790  0.00  0.00    +0.000 A 
ENDBRANCH   9  12
ENDBRANCH   7   8
BRANCH   4  19
ATOM     19  C   UNL     1       2.686   5.848  18.176  0.00  0.00    +0.000 C 
BRANCH  19  20
ATOM     20  C   UNL     1       2.258   4.755  19.140  0.00  0.00    +0.000 A 
ATOM     21  C   UNL     1       1.440   3.715  18.697  0.00  0.00    +0.000 A 
ATOM     22  C   UNL     1       0.947   2.808  19.626  0.00  0.00    +0.000 A 
ATOM     23  C   UNL     1       1.290   2.950  20.964  0.00  0.00    +0.000 A 
ATOM     24  C   UNL     1       2.130   3.992  21.320  0.00  0.00    +0.000 A 
ATOM     25  N   UNL     1       2.618   4.896  20.443  0.00  0.00    +0.000 NA
ENDBRANCH  19  20
ENDBRANCH   4  19
TORSDOF 4
ENDMDL
MODEL 3
REMARK VINA RESULT:      -8.4      1.365      1.894
REMARK  Name = 
REMARK  5 active torsions:
REMARK  status: ('A' for Active; 'I' for Inactive)
REMARK    1  A    between atoms: C_1  and  C_2
REMARK    2  A    between atoms: N_4  and  C_5
REMARK    3  A    between atoms: C_5  and  C_6
REMARK    4  A    between atoms: C_14  and  N_15
REMARK    5  A    between atoms: C_16  and  C_18
REMARK                            x       y       z     vdW  Elec       q    Type
REMARK                         _______ _______ _______ _____ _____    ______ ____
ROOT
ATOM      1  C   UNL     1       7.518   6.699  17.919  0.00  0.00    +0.000 C 
ATOM      2  C   UNL     1       7.071   5.602  16.939  0.00  0.00    +0.000 C 
ATOM      3  C   UNL     1       6.534   4.379  17.698  0.00  0.00    +0.000 C 
ATOM      4  N   UNL     1       5.280   4.671  18.420  0.00  0.00    +0.000 NA
ATOM      5  C   UNL     1       4.233   5.176  17.521  0.00  0.00    +0.000 C 
ATOM      6  C   UNL     1       4.684   6.381  16.689  0.00  0.00    +0.000 C 
ATOM      7  C   UNL     1       6.003   6.115  15.957  0.00  0.00    +0.000 C 
ENDROOT
BRANCH   7   8
ATOM      8  N   UNL     1       5.780   5.172  14.856  0.00  0.00    +0.000 N 
ATOM      9  C   UNL     1       6.720   4.937  13.872  0.00  0.00    +0.000 C 
ATOM     10  O   UNL     1       7.800   5.508  13.816  0.00  0.00    +0.000 OA
ATOM     11  H   UNL     1       5.056   4.477  14.981  0.00  0.00    +0.000 HD
BRANCH   9  12
ATOM     12  C   UNL     1       6.351   3.911  12.858  0.00  0.00    +0.000 A 
ATOM     13  C   UNL     1       7.298   3.037  12.298  0.00  0.00    +0.000 A 
ATOM     14  C   UNL     1       6.907   2.078  11.359  0.00  0.00    +0.000 A 
ATOM     15  C   UNL     1       5.569   1.978  10.986  0.00  0.00    +0.000 A 
ATOM     16  C   UNL     1       4.631   2.836  11.553  0.00  0.00    +0.000 A 
ATOM     17  F   UNL     1       3.345   2.729  11.198  0.00  0.00    +0.000 F 
ATOM     18  C   UNL     1       5.005   3.796  12.488  0.00  0.00    +0.000 A 
ENDBRANCH   9  12
ENDBRANCH   7   8
BRANCH   4  19
ATOM     19  C   UNL     1       4.794   3.460  19.128  0.00  0.00    +0.000 C 
BRANCH  19  20
ATOM     20  C   UNL     1       3.361   3.574  19.621  0.00  0.00    +0.000 A 
ATOM     21  C   UNL     1       2.398   2.665  19.182  0.00  0.00    +0.000 A 
ATOM     22  C   UNL     1       1.070   2.874  19.533  0.00  0.00    +0.000 A 
ATOM     23  C   UNL     1       0.738   3.969  20.319  0.00  0.00    +0.000 A 
ATOM     24  C   UNL     1       1.757   4.810  20.738  0.00  0.00    +0.000 A 
ATOM     25  N   UNL     1       3.055   4.640  20.406  0.00  0.00    +0.000 NA
ENDBRANCH  19  20
ENDBRANCH   4  19
TORSDOF 4
ENDMDL
MODEL 4
REMARK VINA RESULT:      -8.4      1.080      1.587
REMARK  Name = 
REMARK  5 active torsions:
REMARK  status: ('A' for Active; 'I' for Inactive)
REMARK    1  A    between atoms: C_1  and  C_2
REMARK    2  A    between atoms: N_4  and  C_5
REMARK    3  A    between atoms: C_5  and  C_6
REMARK    4  A    between atoms: C_14  and  N_15
REMARK    5  A    between atoms: C_16  and  C_18
REMARK                            x       y       z     vdW  Elec       q    Type
REMARK                         _______ _______ _______ _____ _____    ______ ____
ROOT
ATOM      1  C   UNL     1       7.641   6.933  18.163  0.00  0.00    +0.000 C 
ATOM      2  C   UNL     1       7.136   5.860  17.183  0.00  0.00    +0.000 C 
ATOM      3  C   UNL     1       6.579   4.647  17.941  0.00  0.00    +0.000 C 
ATOM      4  N   UNL     1       5.351   4.970  18.694  0.00  0.00    +0.000 NA
ATOM      5  C   UNL     1       4.301   5.517  17.825  0.00  0.00    +0.000 C 
ATOM      6  C   UNL     1       4.771   6.716  16.995  0.00  0.00    +0.000 C 
ATOM      7  C   UNL     1       6.064   6.417  16.231  0.00  0.00    +0.000 C 
ENDROOT
BRANCH   7   8
ATOM      8  N   UNL     1       5.786   5.493  15.126  0.00  0.00    +0.000 N 
ATOM      9  C   UNL     1       6.755   5.091  14.227  0.00  0.00    +0.000 C 
ATOM     10  O   UNL     1       7.912   5.485  14.256  0.00  0.00    +0.000 OA
ATOM     11  H   UNL     1       4.955   4.923  15.196  0.00  0.00    +0.000 HD
BRANCH   9  12
ATOM     12  C   UNL     1       6.314   4.110  13.197  0.00  0.00    +0.000 A 
ATOM     13  C   UNL     1       4.957   3.862  12.932  0.00  0.00    +0.000 A 
ATOM     14  C   UNL     1       4.586   2.943  11.946  0.00  0.00    +0.000 A 
ATOM     15  C   UNL     1       5.566   2.280  11.211  0.00  0.00    +0.000 A 
ATOM     16  C   UNL     1       6.910   2.539  11.467  0.00  0.00    +0.000 A 
ATOM     17  F   UNL     1       7.848   1.906  10.752  0.00  0.00    +0.000 F 
ATOM     18  C   UNL     1       7.295   3.449  12.446  0.00  0.00    +0.000 A 
ENDBRANCH   9  12
ENDBRANCH   7   8
BRANCH   4  19
ATOM     19  C   UNL     1       4.843   3.767  19.402  0.00  0.00    +0.000 C 
BRANCH  19  20
ATOM     20  C   UNL     1       3.327   3.686  19.458  0.00  0.00    +0.000 A 
ATOM     21  C   UNL     1       2.636   4.273  20.517  0.00  0.00    +0.000 A 
ATOM     22  C   UNL     1       1.266   4.065  20.622  0.00  0.00    +0.000 A 
ATOM     23  C   UNL     1       0.621   3.292  19.665  0.00  0.00    +0.000 A 
ATOM     24  C   UNL     1       1.374   2.765  18.629  0.00  0.00    +0.000 A 
ATOM     25  N   UNL     1       2.707   2.942  18.504  0.00  0.00    +0.000 NA
ENDBRANCH  19  20
ENDBRANCH   4  19
TORSDOF 4
ENDMDL
MODEL 5
REMARK VINA RESULT:      -7.8      1.704      2.531
REMARK  Name = 
REMARK  5 active torsions:
REMARK  status: ('A' for Active; 'I' for Inactive)
REMARK    1  A    between atoms: C_1  and  C_2
REMARK    2  A    between atoms: N_4  and  C_5
REMARK    3  A    between atoms: C_5  and  C_6
REMARK    4  A    between atoms: C_14  and  N_15
REMARK    5  A    between atoms: C_16  and  C_18
REMARK                            x       y       z     vdW  Elec       q    Type
REMARK                         _______ _______ _______ _____ _____    ______ ____
ROOT
ATOM      1  C   UNL     1       6.898   5.416  19.332  0.00  0.00    +0.000 C 
ATOM      2  C   UNL     1       6.217   4.809  18.093  0.00  0.00    +0.000 C 
ATOM      3  C   UNL     1       4.688   4.849  18.237  0.00  0.00    +0.000 C 
ATOM      4  N   UNL     1       4.159   6.227  18.231  0.00  0.00    +0.000 NA
ATOM      5  C   UNL     1       4.545   6.959  17.017  0.00  0.00    +0.000 C 
ATOM      6  C   UNL     1       6.056   6.947  16.763  0.00  0.00    +0.000 C 
ATOM      7  C   UNL     1       6.637   5.530  16.801  0.00  0.00    +0.000 C 
ENDROOT
BRANCH   7   8
ATOM      8  N   UNL     1       6.218   4.790  15.606  0.00  0.00    +0.000 N 
ATOM      9  C   UNL     1       6.905   4.853  14.409  0.00  0.00    +0.000 C 
ATOM     10  O   UNL     1       7.898   5.545  14.234  0.00  0.00    +0.000 OA
ATOM     11  H   UNL     1       5.595   4.006  15.741  0.00  0.00    +0.000 HD
BRANCH   9  12
ATOM     12  C   UNL     1       6.372   3.999  13.312  0.00  0.00    +0.000 A 
ATOM     13  C   UNL     1       4.999   3.913  13.030  0.00  0.00    +0.000 A 
ATOM     14  C   UNL     1       4.541   3.110  11.981  0.00  0.00    +0.000 A 
ATOM     15  C   UNL     1       5.452   2.403  11.200  0.00  0.00    +0.000 A 
ATOM     16  C   UNL     1       6.814   2.502  11.473  0.00  0.00    +0.000 A 
ATOM     17  F   UNL     1       7.686   1.828  10.714  0.00  0.00    +0.000 F 
ATOM     18  C   UNL     1       7.284   3.296  12.515  0.00  0.00    +0.000 A 
ENDBRANCH   9  12
ENDBRANCH   7   8
BRANCH   4  19
ATOM     19  C   UNL     1       2.679   6.216  18.362  0.00  0.00    +0.000 C 
BRANCH  19  20
ATOM     20  C   UNL     1       2.128   7.387  19.158  0.00  0.00    +0.000 A 
ATOM     21  C   UNL     1       1.859   7.241  20.518  0.00  0.00    +0.000 A 
ATOM     22  C   UNL     1       1.224   8.277  21.192  0.00  0.00    +0.000 A 
ATOM     23  C   UNL     1       0.887   9.433  20.499  0.00  0.00    +0.000 A 
ATOM     24  C   UNL     1       1.213   9.511  19.155  0.00  0.00    +0.000 A 
ATOM     25  N   UNL     1       1.821   8.519  18.470  0.00  0.00    +0.000 NA
ENDBRANCH  19  20
ENDBRANCH   4  19
TORSDOF 4
ENDMDL
MODEL 6
REMARK VINA RESULT:      -7.7      2.400      3.380
REMARK  Name = 
REMARK  5 active torsions:
REMARK  status: ('A' for Active; 'I' for Inactive)
REMARK    1  A    between atoms: C_1  and  C_2
REMARK    2  A    between atoms: N_4  and  C_5
REMARK    3  A    between atoms: C_5  and  C_6
REMARK    4  A    between atoms: C_14  and  N_15
REMARK    5  A    between atoms: C_16  and  C_18
REMARK                            x       y       z     vdW  Elec       q    Type
REMARK                         _______ _______ _______ _____ _____    ______ ____
ROOT
ATOM      1  C   UNL     1       3.637   3.790  19.776  0.00  0.00    +0.000 C 
ATOM      2  C   UNL     1       3.826   4.097  18.281  0.00  0.00    +0.000 C 
ATOM      3  C   UNL     1       2.931   5.268  17.847  0.00  0.00    +0.000 C 
ATOM      4  N   UNL     1       3.333   6.543  18.473  0.00  0.00    +0.000 NA
ATOM      5  C   UNL     1       4.734   6.879  18.187  0.00  0.00    +0.000 C 
ATOM      6  C   UNL     1       5.709   5.754  18.553  0.00  0.00    +0.000 C 
ATOM      7  C   UNL     1       5.294   4.411  17.945  0.00  0.00    +0.000 C 
ENDROOT
BRANCH   7   8
ATOM      8  N   UNL     1       5.528   4.428  16.497  0.00  0.00    +0.000 N 
ATOM      9  C   UNL     1       6.794   4.434  15.944  0.00  0.00    +0.000 C 
ATOM     10  O   UNL     1       7.822   4.454  16.607  0.00  0.00    +0.000 OA
ATOM     11  H   UNL     1       4.764   4.139  15.901  0.00  0.00    +0.000 HD
BRANCH   9  12
ATOM     12  C   UNL     1       6.851   4.400  14.458  0.00  0.00    +0.000 A 
ATOM     13  C   UNL     1       7.707   5.235  13.721  0.00  0.00    +0.000 A 
ATOM     14  C   UNL     1       7.740   5.160  12.325  0.00  0.00    +0.000 A 
ATOM     15  C   UNL     1       6.930   4.243  11.661  0.00  0.00    +0.000 A 
ATOM     16  C   UNL     1       6.093   3.407  12.394  0.00  0.00    +0.000 A 
ATOM     17  F   UNL     1       5.324   2.520  11.751  0.00  0.00    +0.000 F 
ATOM     18  C   UNL     1       6.048   3.470  13.783  0.00  0.00    +0.000 A 
ENDBRANCH   9  12
ENDBRANCH   7   8
BRANCH   4  19
ATOM     19  C   UNL     1       2.448   7.646  18.017  0.00  0.00    +0.000 C 
BRANCH  19  20
ATOM     20  C   UNL     1       1.735   8.365  19.150  0.00  0.00    +0.000 A 
ATOM     21  C   UNL     1       1.144   9.608  18.925  0.00  0.00    +0.000 A 
ATOM     22  C   UNL     1       0.624  10.309  20.005  0.00  0.00    +0.000 A 
ATOM     23  C   UNL     1       0.692   9.750  21.275  0.00  0.00    +0.000 A 
ATOM     24  C   UNL     1       1.270   8.499  21.412  0.00  0.00    +0.000 A 
ATOM     25  N   UNL     1       1.794   7.797  20.383  0.00  0.00    +0.000 NA
ENDBRANCH  19  20
ENDBRANCH   4  19
TORSDOF 4
ENDMDL
MODEL 7
REMARK VINA RESULT:      -7.6      3.959      6.255
REMARK  Name = 
REMARK  5 active torsions:
REMARK  status: ('A' for Active; 'I' for Inactive)
REMARK    1  A    between atoms: C_1  and  C_2
REMARK    2  A    between atoms: N_4  and  C_5
REMARK    3  A    between atoms: C_5  and  C_6
REMARK    4  A    between atoms: C_14  and  N_15
REMARK    5  A    between atoms: C_16  and  C_18
REMARK                            x       y       z     vdW  Elec       q    Type
REMARK                         _______ _______ _______ _____ _____    ______ ____
ROOT
ATOM      1  C   UNL     1       6.028   4.541  15.224  0.00  0.00    +0.000 C 
ATOM      2  C   UNL     1       6.143   5.982  15.748  0.00  0.00    +0.000 C 
ATOM      3  C   UNL     1       4.792   6.478  16.284  0.00  0.00    +0.000 C 
ATOM      4  N   UNL     1       4.366   5.748  17.495  0.00  0.00    +0.000 NA
ATOM      5  C   UNL     1       5.367   5.831  18.567  0.00  0.00    +0.000 C 
ATOM      6  C   UNL     1       6.765   5.390  18.120  0.00  0.00    +0.000 C 
ATOM      7  C   UNL     1       7.215   6.107  16.844  0.00  0.00    +0.000 C 
ENDROOT
BRANCH   7   8
ATOM      8  N   UNL     1       7.524   7.509  17.144  0.00  0.00    +0.000 N 
ATOM      9  C   UNL     1       8.235   7.894  18.264  0.00  0.00    +0.000 C 
ATOM     10  O   UNL     1       8.643   7.111  19.110  0.00  0.00    +0.000 OA
ATOM     11  H   UNL     1       7.470   8.169  16.381  0.00  0.00    +0.000 HD
BRANCH   9  12
ATOM     12  C   UNL     1       8.504   9.353  18.390  0.00  0.00    +0.000 A 
ATOM     13  C   UNL     1       9.399   9.871  19.340  0.00  0.00    +0.000 A 
ATOM     14  C   UNL     1       9.633  11.247  19.415  0.00  0.00    +0.000 A 
ATOM     15  C   UNL     1       8.988  12.109  18.533  0.00  0.00    +0.000 A 
ATOM     16  C   UNL     1       8.112  11.592  17.582  0.00  0.00    +0.000 A 
ATOM     17  F   UNL     1       7.502  12.424  16.730  0.00  0.00    +0.000 F 
ATOM     18  C   UNL     1       7.868  10.225  17.496  0.00  0.00    +0.000 A 
ENDBRANCH   9  12
ENDBRANCH   7   8
BRANCH   4  19
ATOM     19  C   UNL     1       3.062   6.267  17.983  0.00  0.00    +0.000 C 
BRANCH  19  20
ATOM     20  C   UNL     1       2.249   5.243  18.757  0.00  0.00    +0.000 A 
ATOM     21  C   UNL     1       2.112   5.364  20.140  0.00  0.00    +0.000 A 
ATOM     22  C   UNL     1       1.486   4.342  20.844  0.00  0.00    +0.000 A 
ATOM     23  C   UNL     1       1.002   3.239  20.153  0.00  0.00    +0.000 A 
ATOM     24  C   UNL     1       1.153   3.207  18.777  0.00  0.00    +0.000 A 
ATOM     25  N   UNL     1       1.765   4.179  18.065  0.00  0.00    +0.000 NA
ENDBRANCH  19  20
ENDBRANCH   4  19
TORSDOF 4
ENDMDL
MODEL 8
REMARK VINA RESULT:      -7.5      2.668      3.708
REMARK  Name = 
REMARK  5 active torsions:
REMARK  status: ('A' for Active; 'I' for Inactive)
REMARK    1  A    between atoms: C_1  and  C_2
REMARK    2  A    between atoms: N_4  and  C_5
REMARK    3  A    between atoms: C_5  and  C_6
REMARK    4  A    between atoms: C_14  and  N_15
REMARK    5  A    between atoms: C_16  and  C_18
REMARK                            x       y       z     vdW  Elec       q    Type
REMARK                         _______ _______ _______ _____ _____    ______ ____
ROOT
ATOM      1  C   UNL     1       2.403   3.515  19.557  0.00  0.00    +0.000 C 
ATOM      2  C   UNL     1       2.878   3.921  18.152  0.00  0.00    +0.000 C 
ATOM      3  C   UNL     1       2.345   5.312  17.776  0.00  0.00    +0.000 C 
ATOM      4  N   UNL     1       2.926   6.380  18.613  0.00  0.00    +0.000 NA
ATOM      5  C   UNL     1       4.393   6.394  18.547  0.00  0.00    +0.000 C 
ATOM      6  C   UNL     1       5.023   5.036  18.871  0.00  0.00    +0.000 C 
ATOM      7  C   UNL     1       4.412   3.903  18.041  0.00  0.00    +0.000 C 
ENDROOT
BRANCH   7   8
ATOM      8  N   UNL     1       4.857   4.013  16.648  0.00  0.00    +0.000 N 
ATOM      9  C   UNL     1       6.187   4.145  16.296  0.00  0.00    +0.000 C 
ATOM     10  O   UNL     1       7.099   4.209  17.108  0.00  0.00    +0.000 OA
ATOM     11  H   UNL     1       4.218   3.698  15.931  0.00  0.00    +0.000 HD
BRANCH   9  12
ATOM     12  C   UNL     1       6.467   4.192  14.835  0.00  0.00    +0.000 A 
ATOM     13  C   UNL     1       5.737   3.431  13.907  0.00  0.00    +0.000 A 
ATOM     14  C   UNL     1       6.023   3.516  12.542  0.00  0.00    +0.000 A 
ATOM     15  C   UNL     1       7.028   4.370  12.095  0.00  0.00    +0.000 A 
ATOM     16  C   UNL     1       7.740   5.134  13.016  0.00  0.00    +0.000 A 
ATOM     17  F   UNL     1       8.699   5.961  12.580  0.00  0.00    +0.000 F 
ATOM     18  C   UNL     1       7.468   5.060  14.378  0.00  0.00    +0.000 A 
ENDBRANCH   9  12
ENDBRANCH   7   8
BRANCH   4  19
ATOM     19  C   UNL     1       2.391   7.705  18.208  0.00  0.00    +0.000 C 
BRANCH  19  20
ATOM     20  C   UNL     1       1.720   8.465  19.341  0.00  0.00    +0.000 A 
ATOM     21  C   UNL     1       1.634   7.892  20.610  0.00  0.00    +0.000 A 
ATOM     22  C   UNL     1       0.894   8.542  21.590  0.00  0.00    +0.000 A 
ATOM     23  C   UNL     1       0.274   9.747  21.287  0.00  0.00    +0.000 A 
ATOM     24  C   UNL     1       0.430  10.264  20.011  0.00  0.00    +0.000 A 
ATOM     25  N   UNL     1       1.135   9.652  19.034  0.00  0.00    +0.000 NA
ENDBRANCH  19  20
ENDBRANCH   4  19
TORSDOF 4
ENDMDL
MODEL 9
REMARK VINA RESULT:      -7.5      2.034      2.990
REMARK  Name = 
REMARK  5 active torsions:
REMARK  status: ('A' for Active; 'I' for Inactive)
REMARK    1  A    between atoms: C_1  and  C_2
REMARK    2  A    between atoms: N_4  and  C_5
REMARK    3  A    between atoms: C_5  and  C_6
REMARK    4  A    between atoms: C_14  and  N_15
REMARK    5  A    between atoms: C_16  and  C_18
REMARK                            x       y       z     vdW  Elec       q    Type
REMARK                         _______ _______ _______ _____ _____    ______ ____
ROOT
ATOM      1  C   UNL     1       6.861   5.193  19.250  0.00  0.00    +0.000 C 
ATOM      2  C   UNL     1       6.214   4.621  17.977  0.00  0.00    +0.000 C 
ATOM      3  C   UNL     1       4.683   4.724  18.050  0.00  0.00    +0.000 C 
ATOM      4  N   UNL     1       4.212   6.122  18.029  0.00  0.00    +0.000 NA
ATOM      5  C   UNL     1       4.684   6.843  16.839  0.00  0.00    +0.000 C 
ATOM      6  C   UNL     1       6.204   6.770  16.656  0.00  0.00    +0.000 C 
ATOM      7  C   UNL     1       6.723   5.331  16.710  0.00  0.00    +0.000 C 
ENDROOT
BRANCH   7   8
ATOM      8  N   UNL     1       6.330   4.614  15.492  0.00  0.00    +0.000 N 
ATOM      9  C   UNL     1       6.973   4.790  14.282  0.00  0.00    +0.000 C 
ATOM     10  O   UNL     1       7.900   5.569  14.114  0.00  0.00    +0.000 OA
ATOM     11  H   UNL     1       5.778   3.775  15.605  0.00  0.00    +0.000 HD
BRANCH   9  12
ATOM     12  C   UNL     1       6.479   3.947  13.159  0.00  0.00    +0.000 A 
ATOM     13  C   UNL     1       7.344   3.177  12.363  0.00  0.00    +0.000 A 
ATOM     14  C   UNL     1       6.837   2.388  11.327  0.00  0.00    +0.000 A 
ATOM     15  C   UNL     1       5.465   2.350  11.091  0.00  0.00    +0.000 A 
ATOM     16  C   UNL     1       4.609   3.103  11.891  0.00  0.00    +0.000 A 
ATOM     17  F   UNL     1       3.290   3.056  11.665  0.00  0.00    +0.000 F 
ATOM     18  C   UNL     1       5.099   3.894  12.924  0.00  0.00    +0.000 A 
ENDBRANCH   9  12
ENDBRANCH   7   8
BRANCH   4  19
ATOM     19  C   UNL     1       2.729   6.172  18.091  0.00  0.00    +0.000 C 
BRANCH  19  20
ATOM     20  C   UNL     1       2.186   7.447  18.716  0.00  0.00    +0.000 A 
ATOM     21  C   UNL     1       1.944   7.502  20.088  0.00  0.00    +0.000 A 
ATOM     22  C   UNL     1       1.317   8.625  20.614  0.00  0.00    +0.000 A 
ATOM     23  C   UNL     1       0.960   9.664  19.765  0.00  0.00    +0.000 A 
ATOM     24  C   UNL     1       1.259   9.544  18.417  0.00  0.00    +0.000 A 
ATOM     25  N   UNL     1       1.859   8.463  17.875  0.00  0.00    +0.000 NA
ENDBRANCH  19  20
ENDBRANCH   4  19
TORSDOF 4
ENDMDL
