MODEL 1
REMARK VINA RESULT:      -7.4      0.000      0.000
REMARK  Name = 
REMARK  2 active torsions:
REMARK  status: ('A' for Active; 'I' for Inactive)
REMARK    1  A    between atoms: N_10  and  C_11
REMARK    2  A    between atoms: C_11  and  C_12
REMARK                            x       y       z     vdW  Elec       q    Type
REMARK                         _______ _______ _______ _____ _____    ______ ____
ROOT
ATOM      1  N   UNL     1       6.605   7.323  17.042  0.00  0.00    +0.000 N 
ATOM      2  C   UNL     1       5.551   6.508  17.208  0.00  0.00    +0.000 A 
ATOM      3  N   UNL     1       4.366   6.876  17.618  0.00  0.00    +0.000 NA
ATOM      4  C   UNL     1       3.608   5.733  17.633  0.00  0.00    +0.000 A 
ATOM      5  C   UNL     1       2.254   5.569  17.958  0.00  0.00    +0.000 A 
ATOM      6  C   UNL     1       1.691   4.289  17.885  0.00  0.00    +0.000 A 
ATOM      7  C   UNL     1       2.465   3.191  17.507  0.00  0.00    +0.000 A 
ATOM      8  C   UNL     1       3.820   3.335  17.184  0.00  0.00    +0.000 A 
ATOM      9  C   UNL     1       4.361   4.627  17.248  0.00  0.00    +0.000 A 
ATOM     10  N   UNL     1       5.604   5.152  16.966  0.00  0.00    +0.000 N 
ATOM     11  H   UNL     1       6.482   8.253  17.437  0.00  0.00    +0.000 HD
ATOM     12  H   UNL     1       7.553   6.979  17.141  0.00  0.00    +0.000 HD
ENDROOT
BRANCH  10  13
ATOM     13  C   UNL     1       6.708   4.438  16.345  0.00  0.00    +0.000 C 
BRANCH  13  14
ATOM     14  C   UNL     1       6.700   4.422  14.831  0.00  0.00    +0.000 A 
ATOM     15  C   UNL     1       5.960   3.510  14.061  0.00  0.00    +0.000 A 
ATOM     16  C   UNL     1       6.090   3.470  12.667  0.00  0.00    +0.000 A 
ATOM     17  C   UNL     1       6.960   4.344  12.022  0.00  0.00    +0.000 A 
ATOM     18  C   UNL     1       7.684   5.258  12.772  0.00  0.00    +0.000 A 
ATOM     19  F   UNL     1       8.525   6.100  12.157  0.00  0.00    +0.000 F 
ATOM     20  C   UNL     1       7.565   5.302  14.158  0.00  0.00    +0.000 A 
ENDBRANCH  13  14
ENDBRANCH  10  13
TORSDOF 2
ENDMDL
MODEL 2
REMARK VINA RESULT:      -7.4      3.417      4.587
REMARK  Name = 
REMARK  2 active torsions:
REMARK  status: ('A' for Active; 'I' for Inactive)
REMARK    1  A    between atoms: N_10  and  C_11
REMARK    2  A    between atoms: C_11  and  C_12
REMARK                            x       y       z     vdW  Elec       q    Type
REMARK                         _______ _______ _______ _____ _____    ______ ____
ROOT
ATOM      1  N   UNL     1       4.049   1.001  18.032  0.00  0.00    +0.000 N 
ATOM      2  C   UNL     1       3.512   2.107  18.574  0.00  0.00    +0.000 A 
ATOM      3  N   UNL     1       2.730   2.133  19.622  0.00  0.00    +0.000 NA
ATOM      4  C   UNL     1       2.428   3.456  19.824  0.00  0.00    +0.000 A 
ATOM      5  C   UNL     1       1.656   4.046  20.834  0.00  0.00    +0.000 A 
ATOM      6  C   UNL     1       1.499   5.437  20.840  0.00  0.00    +0.000 A 
ATOM      7  C   UNL     1       2.091   6.225  19.852  0.00  0.00    +0.000 A 
ATOM      8  C   UNL     1       2.861   5.653  18.832  0.00  0.00    +0.000 A 
ATOM      9  C   UNL     1       3.019   4.260  18.853  0.00  0.00    +0.000 A 
ATOM     10  N   UNL     1       3.723   3.371  18.067  0.00  0.00    +0.000 N 
ATOM     11  H   UNL     1       3.660   0.130  18.384  0.00  0.00    +0.000 HD
ATOM     12  H   UNL     1       4.272   0.959  17.044  0.00  0.00    +0.000 HD
ENDROOT
BRANCH  10  13
ATOM     13  C   UNL     1       4.666   3.724  17.018  0.00  0.00    +0.000 C 
BRANCH  13  14
ATOM     14  C   UNL     1       5.605   4.865  17.348  0.00  0.00    +0.000 A 
ATOM     15  C   UNL     1       5.653   6.073  16.631  0.00  0.00    +0.000 A 
ATOM     16  C   UNL     1       6.627   7.039  16.911  0.00  0.00    +0.000 A 
ATOM     17  C   UNL     1       7.566   6.815  17.914  0.00  0.00    +0.000 A 
ATOM     18  C   UNL     1       7.517   5.633  18.638  0.00  0.00    +0.000 A 
ATOM     19  F   UNL     1       8.419   5.410  19.603  0.00  0.00    +0.000 F 
ATOM     20  C   UNL     1       6.555   4.664  18.364  0.00  0.00    +0.000 A 
ENDBRANCH  13  14
ENDBRANCH  10  13
TORSDOF 2
ENDMDL
MODEL 3
REMARK VINA RESULT:      -7.3      3.144      4.424
REMARK  Name = 
REMARK  2 active torsions:
REMARK  status: ('A' for Active; 'I' for Inactive)
REMARK    1  A    between atoms: N_10  and  C_11
REMARK    2  A    between atoms: C_11  and  C_12
REMARK                            x       y       z     vdW  Elec       q    Type
REMARK                         _______ _______ _______ _____ _____    ______ ____
ROOT
ATOM      1  N   UNL     1       4.063   1.795  17.842  0.00  0.00    +0.000 N 
ATOM      2  C   UNL     1       3.546   2.909  18.385  0.00  0.00    +0.000 A 
ATOM      3  N   UNL     1       2.694   2.942  19.376  0.00  0.00    +0.000 NA
ATOM      4  C   UNL     1       2.446   4.272  19.605  0.00  0.00    +0.000 A 
ATOM      5  C   UNL     1       1.634   4.869  20.580  0.00  0.00    +0.000 A 
ATOM      6  C   UNL     1       1.548   6.266  20.627  0.00  0.00    +0.000 A 
ATOM      7  C   UNL     1       2.249   7.053  19.712  0.00  0.00    +0.000 A 
ATOM      8  C   UNL     1       3.061   6.474  18.728  0.00  0.00    +0.000 A 
ATOM      9  C   UNL     1       3.146   5.075  18.708  0.00  0.00    +0.000 A 
ATOM     10  N   UNL     1       3.857   4.176  17.941  0.00  0.00    +0.000 N 
ATOM     11  H   UNL     1       3.606   0.935  18.133  0.00  0.00    +0.000 HD
ATOM     12  H   UNL     1       4.354   1.774  16.871  0.00  0.00    +0.000 HD
ENDROOT
BRANCH  10  13
ATOM     13  C   UNL     1       4.890   4.513  16.975  0.00  0.00    +0.000 C 
BRANCH  13  14
ATOM     14  C   UNL     1       6.070   5.284  17.529  0.00  0.00    +0.000 A 
ATOM     15  C   UNL     1       6.873   4.831  18.589  0.00  0.00    +0.000 A 
ATOM     16  C   UNL     1       7.874   5.645  19.133  0.00  0.00    +0.000 A 
ATOM     17  C   UNL     1       8.089   6.923  18.625  0.00  0.00    +0.000 A 
ATOM     18  C   UNL     1       7.311   7.373  17.568  0.00  0.00    +0.000 A 
ATOM     19  F   UNL     1       7.512   8.603  17.077  0.00  0.00    +0.000 F 
ATOM     20  C   UNL     1       6.311   6.573  17.023  0.00  0.00    +0.000 A 
ENDBRANCH  13  14
ENDBRANCH  10  13
TORSDOF 2
ENDMDL
MODEL 4
REMARK VINA RESULT:      -7.3      2.780      3.974
REMARK  Name = 
REMARK  2 active torsions:
REMARK  status: ('A' for Active; 'I' for Inactive)
REMARK    1  A    between atoms: N_10  and  C_11
REMARK    2  A    between atoms: C_11  and  C_12
REMARK                            x       y       z     vdW  Elec       q    Type
REMARK                         _______ _______ _______ _____ _____    ______ ____
ROOT
ATOM      1  N   UNL     1       2.292   7.477  20.486  0.00  0.00    +0.000 N 
ATOM      2  C   UNL     1       2.191   6.229  20.001  0.00  0.00    +0.000 A 
ATOM      3  N   UNL     1       1.527   5.251  20.560  0.00  0.00    +0.000 NA
ATOM      4  C   UNL     1       1.689   4.171  19.729  0.00  0.00    +0.000 A 
ATOM      5  C   UNL     1       1.157   2.879  19.837  0.00  0.00    +0.000 A 
ATOM      6  C   UNL     1       1.457   1.938  18.844  0.00  0.00    +0.000 A 
ATOM      7  C   UNL     1       2.281   2.276  17.769  0.00  0.00    +0.000 A 
ATOM      8  C   UNL     1       2.826   3.560  17.647  0.00  0.00    +0.000 A 
ATOM      9  C   UNL     1       2.501   4.492  18.644  0.00  0.00    +0.000 A 
ATOM     10  N   UNL     1       2.801   5.824  18.833  0.00  0.00    +0.000 N 
ATOM     11  H   UNL     1       1.958   7.584  21.441  0.00  0.00    +0.000 HD
ATOM     12  H   UNL     1       3.103   8.051  20.288  0.00  0.00    +0.000 HD
ENDROOT
BRANCH  10  13
ATOM     13  C   UNL     1       3.474   6.689  17.877  0.00  0.00    +0.000 C 
BRANCH  13  14
ATOM     14  C   UNL     1       4.799   6.174  17.357  0.00  0.00    +0.000 A 
ATOM     15  C   UNL     1       5.044   5.862  16.009  0.00  0.00    +0.000 A 
ATOM     16  C   UNL     1       6.252   5.276  15.613  0.00  0.00    +0.000 A 
ATOM     17  C   UNL     1       7.235   4.995  16.556  0.00  0.00    +0.000 A 
ATOM     18  C   UNL     1       7.009   5.313  17.887  0.00  0.00    +0.000 A 
ATOM     19  F   UNL     1       7.950   5.043  18.801  0.00  0.00    +0.000 F 
ATOM     20  C   UNL     1       5.809   5.892  18.292  0.00  0.00    +0.000 A 
ENDBRANCH  13  14
ENDBRANCH  10  13
TORSDOF 2
ENDMDL
MODEL 5
REMARK VINA RESULT:      -7.3      1.776      2.379
REMARK  Name = 
REMARK  2 active torsions:
REMARK  status: ('A' for Active; 'I' for Inactive)
REMARK    1  A    between atoms: N_10  and  C_11
REMARK    2  A    between atoms: C_11  and  C_12
REMARK                            x       y       z     vdW  Elec       q    Type
REMARK                         _______ _______ _______ _____ _____    ______ ____
ROOT
ATOM      1  N   UNL     1       7.598   5.675  17.608  0.00  0.00    +0.000 N 
ATOM      2  C   UNL     1       6.494   4.946  17.837  0.00  0.00    +0.000 A 
ATOM      3  N   UNL     1       6.245   4.272  18.930  0.00  0.00    +0.000 NA
ATOM      4  C   UNL     1       5.018   3.691  18.734  0.00  0.00    +0.000 A 
ATOM      5  C   UNL     1       4.265   2.893  19.606  0.00  0.00    +0.000 A 
ATOM      6  C   UNL     1       3.017   2.419  19.181  0.00  0.00    +0.000 A 
ATOM      7  C   UNL     1       2.534   2.726  17.908  0.00  0.00    +0.000 A 
ATOM      8  C   UNL     1       3.275   3.518  17.022  0.00  0.00    +0.000 A 
ATOM      9  C   UNL     1       4.515   3.995  17.472  0.00  0.00    +0.000 A 
ATOM     10  N   UNL     1       5.476   4.815  16.918  0.00  0.00    +0.000 N 
ATOM     11  H   UNL     1       8.345   5.530  18.284  0.00  0.00    +0.000 HD
ATOM     12  H   UNL     1       7.945   5.817  16.667  0.00  0.00    +0.000 HD
ENDROOT
BRANCH  10  13
ATOM     13  C   UNL     1       5.347   5.557  15.675  0.00  0.00    +0.000 C 
BRANCH  13  14
ATOM     14  C   UNL     1       6.028   4.935  14.474  0.00  0.00    +0.000 A 
ATOM     15  C   UNL     1       7.282   5.339  13.988  0.00  0.00    +0.000 A 
ATOM     16  C   UNL     1       7.802   4.806  12.802  0.00  0.00    +0.000 A 
ATOM     17  C   UNL     1       7.077   3.858  12.085  0.00  0.00    +0.000 A 
ATOM     18  C   UNL     1       5.844   3.442  12.565  0.00  0.00    +0.000 A 
ATOM     19  F   UNL     1       5.141   2.532  11.879  0.00  0.00    +0.000 F 
ATOM     20  C   UNL     1       5.317   3.969  13.741  0.00  0.00    +0.000 A 
ENDBRANCH  13  14
ENDBRANCH  10  13
TORSDOF 2
ENDMDL
MODEL 6
REMARK VINA RESULT:      -7.3      3.339      4.421
REMARK  Name = 
REMARK  2 active torsions:
REMARK  status: ('A' for Active; 'I' for Inactive)
REMARK    1  A    between atoms: N_10  and  C_11
REMARK    2  A    between atoms: C_11  and  C_12
REMARK                            x       y       z     vdW  Elec       q    Type
REMARK                         _______ _______ _______ _____ _____    ______ ____
ROOT
ATOM      1  N   UNL     1       4.627   3.685  15.978  0.00  0.00    +0.000 N 
ATOM      2  C   UNL     1       3.801   3.633  17.035  0.00  0.00    +0.000 A 
ATOM      3  N   UNL     1       3.228   2.552  17.496  0.00  0.00    +0.000 NA
ATOM      4  C   UNL     1       2.486   2.959  18.576  0.00  0.00    +0.000 A 
ATOM      5  C   UNL     1       1.705   2.195  19.455  0.00  0.00    +0.000 A 
ATOM      6  C   UNL     1       1.041   2.842  20.505  0.00  0.00    +0.000 A 
ATOM      7  C   UNL     1       1.144   4.224  20.669  0.00  0.00    +0.000 A 
ATOM      8  C   UNL     1       1.915   5.003  19.798  0.00  0.00    +0.000 A 
ATOM      9  C   UNL     1       2.584   4.335  18.762  0.00  0.00    +0.000 A 
ATOM     10  N   UNL     1       3.446   4.746  17.767  0.00  0.00    +0.000 N 
ATOM     11  H   UNL     1       4.648   2.834  15.420  0.00  0.00    +0.000 HD
ATOM     12  H   UNL     1       4.703   4.524  15.414  0.00  0.00    +0.000 HD
ENDROOT
BRANCH  10  13
ATOM     13  C   UNL     1       4.024   6.074  17.637  0.00  0.00    +0.000 C 
BRANCH  13  14
ATOM     14  C   UNL     1       5.491   6.181  17.998  0.00  0.00    +0.000 A 
ATOM     15  C   UNL     1       6.107   5.422  19.007  0.00  0.00    +0.000 A 
ATOM     16  C   UNL     1       7.438   5.655  19.373  0.00  0.00    +0.000 A 
ATOM     17  C   UNL     1       8.175   6.647  18.734  0.00  0.00    +0.000 A 
ATOM     18  C   UNL     1       7.581   7.392  17.727  0.00  0.00    +0.000 A 
ATOM     19  F   UNL     1       8.284   8.351  17.110  0.00  0.00    +0.000 F 
ATOM     20  C   UNL     1       6.256   7.171  17.358  0.00  0.00    +0.000 A 
ENDBRANCH  13  14
ENDBRANCH  10  13
TORSDOF 2
ENDMDL
MODEL 7
REMARK VINA RESULT:      -7.2      3.664      4.436
REMARK  Name = 
REMARK  2 active torsions:
REMARK  status: ('A' for Active; 'I' for Inactive)
REMARK    1  A    between atoms: N_10  and  C_11
REMARK    2  A    between atoms: C_11  and  C_12
REMARK                            x       y       z     vdW  Elec       q    Type
REMARK                         _______ _______ _______ _____ _____    ______ ____
ROOT
ATOM      1  N   UNL     1       2.249   7.419  20.440  0.00  0.00    +0.000 N 
ATOM      2  C   UNL     1       2.112   6.164  19.983  0.00  0.00    +0.000 A 
ATOM      3  N   UNL     1       1.325   5.254  20.496  0.00  0.00    +0.000 NA
ATOM      4  C   UNL     1       1.496   4.137  19.718  0.00  0.00    +0.000 A 
ATOM      5  C   UNL     1       0.864   2.889  19.806  0.00  0.00    +0.000 A 
ATOM      6  C   UNL     1       1.198   1.895  18.878  0.00  0.00    +0.000 A 
ATOM      7  C   UNL     1       2.152   2.136  17.888  0.00  0.00    +0.000 A 
ATOM      8  C   UNL     1       2.796   3.375  17.788  0.00  0.00    +0.000 A 
ATOM      9  C   UNL     1       2.437   4.362  18.717  0.00  0.00    +0.000 A 
ATOM     10  N   UNL     1       2.809   5.677  18.899  0.00  0.00    +0.000 N 
ATOM     11  H   UNL     1       1.827   7.583  21.351  0.00  0.00    +0.000 HD
ATOM     12  H   UNL     1       3.116   7.929  20.314  0.00  0.00    +0.000 HD
ENDROOT
BRANCH  10  13
ATOM     13  C   UNL     1       3.638   6.459  17.996  0.00  0.00    +0.000 C 
BRANCH  13  14
ATOM     14  C   UNL     1       5.132   6.310  18.193  0.00  0.00    +0.000 A 
ATOM     15  C   UNL     1       5.715   5.454  19.142  0.00  0.00    +0.000 A 
ATOM     16  C   UNL     1       7.099   5.452  19.356  0.00  0.00    +0.000 A 
ATOM     17  C   UNL     1       7.921   6.304  18.624  0.00  0.00    +0.000 A 
ATOM     18  C   UNL     1       7.356   7.142  17.674  0.00  0.00    +0.000 A 
ATOM     19  F   UNL     1       8.141   7.966  16.968  0.00  0.00    +0.000 F 
ATOM     20  C   UNL     1       5.981   7.154  17.457  0.00  0.00    +0.000 A 
ENDBRANCH  13  14
ENDBRANCH  10  13
TORSDOF 2
ENDMDL
MODEL 8
REMARK VINA RESULT:      -7.2      3.653      4.728
REMARK  Name = 
REMARK  2 active torsions:
REMARK  status: ('A' for Active; 'I' for Inactive)
REMARK    1  A    between atoms: N_10  and  C_11
REMARK    2  A    between atoms: C_11  and  C_12
REMARK                            x       y       z     vdW  Elec       q    Type
REMARK                         _______ _______ _______ _____ _____    ______ ____
ROOT
ATOM      1  N   UNL     1       5.079   2.921  16.519  0.00  0.00    +0.000 N 
ATOM      2  C   UNL     1       4.217   3.159  17.520  0.00  0.00    +0.000 A 
ATOM      3  N   UNL     1       3.727   2.254  18.327  0.00  0.00    +0.000 NA
ATOM      4  C   UNL     1       2.904   2.934  19.189  0.00  0.00    +0.000 A 
ATOM      5  C   UNL     1       2.160   2.451  20.274  0.00  0.00    +0.000 A 
ATOM      6  C   UNL     1       1.394   3.352  21.025  0.00  0.00    +0.000 A 
ATOM      7  C   UNL     1       1.363   4.708  20.693  0.00  0.00    +0.000 A 
ATOM      8  C   UNL     1       2.096   5.208  19.610  0.00  0.00    +0.000 A 
ATOM      9  C   UNL     1       2.868   4.292  18.881  0.00  0.00    +0.000 A 
ATOM     10  N   UNL     1       3.730   4.415  17.812  0.00  0.00    +0.000 N 
ATOM     11  H   UNL     1       5.203   1.936  16.296  0.00  0.00    +0.000 HD
ATOM     12  H   UNL     1       5.102   3.514  15.697  0.00  0.00    +0.000 HD
ENDROOT
BRANCH  10  13
ATOM     13  C   UNL     1       4.189   5.665  17.228  0.00  0.00    +0.000 C 
BRANCH  13  14
ATOM     14  C   UNL     1       5.529   6.161  17.729  0.00  0.00    +0.000 A 
ATOM     15  C   UNL     1       6.293   7.144  17.077  0.00  0.00    +0.000 A 
ATOM     16  C   UNL     1       7.578   7.472  17.526  0.00  0.00    +0.000 A 
ATOM     17  C   UNL     1       8.118   6.826  18.634  0.00  0.00    +0.000 A 
ATOM     18  C   UNL     1       7.365   5.865  19.293  0.00  0.00    +0.000 A 
ATOM     19  F   UNL     1       7.880   5.237  20.358  0.00  0.00    +0.000 F 
ATOM     20  C   UNL     1       6.088   5.529  18.852  0.00  0.00    +0.000 A 
ENDBRANCH  13  14
ENDBRANCH  10  13
TORSDOF 2
ENDMDL
MODEL 9
REMARK VINA RESULT:      -7.1      3.140      6.155
REMARK  Name = 
REMARK  2 active torsions:
REMARK  status: ('A' for Active; 'I' for Inactive)
REMARK    1  A    between atoms: N_10  and  C_11
REMARK    2  A    between atoms: C_11  and  C_12
REMARK                            x       y       z     vdW  Elec       q    Type
REMARK                         _______ _______ _______ _____ _____    ______ ____
ROOT
ATOM      1  N   UNL     1       2.748   7.209  18.634  0.00  0.00    +0.000 N 
ATOM      2  C   UNL     1       3.664   6.543  17.912  0.00  0.00    +0.000 A 
ATOM      3  N   UNL     1       4.867   6.973  17.633  0.00  0.00    +0.000 NA
ATOM      4  C   UNL     1       5.451   5.979  16.889  0.00  0.00    +0.000 A 
ATOM      5  C   UNL     1       6.748   5.911  16.363  0.00  0.00    +0.000 A 
ATOM      6  C   UNL     1       7.125   4.773  15.638  0.00  0.00    +0.000 A 
ATOM      7  C   UNL     1       6.222   3.728  15.433  0.00  0.00    +0.000 A 
ATOM      8  C   UNL     1       4.921   3.782  15.947  0.00  0.00    +0.000 A 
ATOM      9  C   UNL     1       4.568   4.922  16.683  0.00  0.00    +0.000 A 
ATOM     10  N   UNL     1       3.429   5.301  17.361  0.00  0.00    +0.000 N 
ATOM     11  H   UNL     1       2.982   8.183  18.813  0.00  0.00    +0.000 HD
ATOM     12  H   UNL     1       1.757   7.067  18.480  0.00  0.00    +0.000 HD
ENDROOT
BRANCH  10  13
ATOM     13  C   UNL     1       2.268   4.462  17.611  0.00  0.00    +0.000 C 
BRANCH  13  14
ATOM     14  C   UNL     1       2.248   3.767  18.956  0.00  0.00    +0.000 A 
ATOM     15  C   UNL     1       1.166   3.824  19.851  0.00  0.00    +0.000 A 
ATOM     16  C   UNL     1       1.258   3.260  21.129  0.00  0.00    +0.000 A 
ATOM     17  C   UNL     1       2.430   2.627  21.531  0.00  0.00    +0.000 A 
ATOM     18  C   UNL     1       3.498   2.552  20.650  0.00  0.00    +0.000 A 
ATOM     19  F   UNL     1       4.630   1.947  21.032  0.00  0.00    +0.000 F 
ATOM     20  C   UNL     1       3.419   3.114  19.378  0.00  0.00    +0.000 A 
ENDBRANCH  13  14
ENDBRANCH  10  13
TORSDOF 2
ENDMDL
