MODEL 1
REMARK VINA RESULT:      -8.9      0.000      0.000
REMARK  Name = 
REMARK  6 active torsions:
REMARK  status: ('A' for Active; 'I' for Inactive)
REMARK    1  A    between atoms: C_4  and  N_5
REMARK    2  A    between atoms: N_5  and  C_6
REMARK    3  A    between atoms: C_6  and  C_7
REMARK    4  A    between atoms: C_7  and  C_8
REMARK    5  A    between atoms: C_8  and  N_9
REMARK    6  A    between atoms: N_12  and  C_13
REMARK                            x       y       z     vdW  Elec       q    Type
REMARK                         _______ _______ _______ _____ _____    ______ ____
ROOT
ATOM      1  C   UNL     1       2.969   5.940  18.397  0.00  0.00    +0.000 C 
ENDROOT
BRANCH   1   2
ATOM      2  N   UNL     1       2.685   7.333  18.727  0.00  0.00    +0.000 NA
ATOM      3  C   UNL     1       1.656   7.390  19.798  0.00  0.00    +0.000 C 
ATOM      4  C   UNL     1       1.438   8.834  20.280  0.00  0.00    +0.000 C 
ATOM      5  N   UNL     1       0.980   9.605  19.120  0.00  0.00    +0.000 N 
ATOM      6  C   UNL     1       1.964   9.643  18.034  0.00  0.00    +0.000 C 
ATOM      7  C   UNL     1       2.249   8.176  17.587  0.00  0.00    +0.000 C 
BRANCH   5   8
ATOM      8  C   UNL     1       0.002  10.552  19.339  0.00  0.00    +0.000 A 
ATOM      9  N   UNL     1       0.126  11.295  20.463  0.00  0.00    +0.000 NA
ATOM     10  C   UNL     1      -0.884  12.106  20.819  0.00  0.00    +0.000 A 
ATOM     11  C   UNL     1      -2.044  12.237  20.091  0.00  0.00    +0.000 A 
ATOM     12  C   UNL     1      -2.195  11.510  18.933  0.00  0.00    +0.000 A 
ATOM     13  N   UNL     1      -3.356  11.643  18.263  0.00  0.00    +0.000 NA
ATOM     14  C   UNL     1      -3.549  10.889  17.164  0.00  0.00    +0.000 A 
ATOM     15  C   UNL     1      -2.635   9.978  16.690  0.00  0.00    +0.000 A 
ATOM     16  C   UNL     1      -1.448   9.837  17.394  0.00  0.00    +0.000 A 
ATOM     17  C   UNL     1      -1.171  10.623  18.535  0.00  0.00    +0.000 A 
ENDBRANCH   5   8
ENDBRANCH   1   2
BRANCH   1  18
ATOM     18  C   UNL     1       3.428   5.100  19.591  0.00  0.00    +0.000 C 
BRANCH  18  19
ATOM     19  C   UNL     1       4.026   3.792  19.081  0.00  0.00    +0.000 C 
BRANCH  19  20
ATOM     20  N   UNL     1       5.479   3.861  19.079  0.00  0.00    +0.000 N 
ATOM     21  H   UNL     1       5.905   3.547  19.943  0.00  0.00    +0.000 HD
BRANCH  20  25
ATOM     22  O   UNL     1       8.374   7.598  18.608  0.00  0.00    +0.000 OA
ATOM     23  C   UNL     1       7.724   6.718  18.053  0.00  0.00    +0.000 A 
ATOM     24  C   UNL     1       6.958   5.754  18.842  0.00  0.00    +0.000 A 
ATOM     25  C   UNL     1       6.251   4.736  18.326  0.00  0.00    +0.000 A 
ATOM     26  C   UNL     1       6.290   4.579  16.852  0.00  0.00    +0.000 A 
ATOM     27  C   UNL     1       5.670   3.533  16.150  0.00  0.00    +0.000 A 
ATOM     28  C   UNL     1       5.726   3.468  14.750  0.00  0.00    +0.000 A 
ATOM     29  C   UNL     1       6.390   4.452  14.024  0.00  0.00    +0.000 A 
ATOM     30  C   UNL     1       7.015   5.495  14.696  0.00  0.00    +0.000 A 
ATOM     31  C   UNL     1       6.967   5.537  16.090  0.00  0.00    +0.000 A 
ATOM     32  O   UNL     1       7.660   6.606  16.682  0.00  0.00    +0.000 OA
ENDBRANCH  20  25
ENDBRANCH  19  20
ENDBRANCH  18  19
ENDBRANCH   1  18
TORSDOF 6
ENDMDL
MODEL 2
REMARK VINA RESULT:      -8.8      0.993      1.298
REMARK  Name = 
REMARK  6 active torsions:
REMARK  status: ('A' for Active; 'I' for Inactive)
REMARK    1  A    between atoms: C_4  and  N_5
REMARK    2  A    between atoms: N_5  and  C_6
REMARK    3  A    between atoms: C_6  and  C_7
REMARK    4  A    between atoms: C_7  and  C_8
REMARK    5  A    between atoms: C_8  and  N_9
REMARK    6  A    between atoms: N_12  and  C_13
REMARK                            x       y       z     vdW  Elec       q    Type
REMARK                         _______ _______ _______ _____ _____    ______ ____
ROOT
ATOM      1  C   UNL     1       2.721   5.924  19.249  0.00  0.00    +0.000 C 
ENDROOT
BRANCH   1   2
ATOM      2  N   UNL     1       2.463   7.360  19.305  0.00  0.00    +0.000 NA
ATOM      3  C   UNL     1       1.441   7.641  20.347  0.00  0.00    +0.000 C 
ATOM      4  C   UNL     1       1.251   9.154  20.542  0.00  0.00    +0.000 C 
ATOM      5  N   UNL     1       0.799   9.695  19.256  0.00  0.00    +0.000 N 
ATOM      6  C   UNL     1       1.777   9.505  18.181  0.00  0.00    +0.000 C 
ATOM      7  C   UNL     1       2.034   7.974  18.024  0.00  0.00    +0.000 C 
BRANCH   5   8
ATOM      8  C   UNL     1      -0.161  10.684  19.290  0.00  0.00    +0.000 A 
ATOM      9  N   UNL     1      -0.080  11.564  20.315  0.00  0.00    +0.000 NA
ATOM     10  C   UNL     1      -1.084  12.437  20.500  0.00  0.00    +0.000 A 
ATOM     11  C   UNL     1      -2.196  12.497  19.692  0.00  0.00    +0.000 A 
ATOM     12  C   UNL     1      -2.302  11.629  18.632  0.00  0.00    +0.000 A 
ATOM     13  N   UNL     1      -3.417  11.699  17.881  0.00  0.00    +0.000 NA
ATOM     14  C   UNL     1      -3.570  10.812  16.878  0.00  0.00    +0.000 A 
ATOM     15  C   UNL     1      -2.658   9.826  16.583  0.00  0.00    +0.000 A 
ATOM     16  C   UNL     1      -1.518   9.752  17.370  0.00  0.00    +0.000 A 
ATOM     17  C   UNL     1      -1.283  10.675  18.414  0.00  0.00    +0.000 A 
ENDBRANCH   5   8
ENDBRANCH   1   2
BRANCH   1  18
ATOM     18  C   UNL     1       2.565   5.319  17.852  0.00  0.00    +0.000 C 
BRANCH  18  19
ATOM     19  C   UNL     1       3.262   3.963  17.815  0.00  0.00    +0.000 C 
BRANCH  19  20
ATOM     20  N   UNL     1       4.055   3.829  16.603  0.00  0.00    +0.000 N 
ATOM     21  H   UNL     1       3.931   2.942  16.128  0.00  0.00    +0.000 HD
BRANCH  20  25
ATOM     22  O   UNL     1       7.712   6.598  17.835  0.00  0.00    +0.000 OA
ATOM     23  C   UNL     1       7.152   5.961  16.950  0.00  0.00    +0.000 A 
ATOM     24  C   UNL     1       5.917   5.228  17.233  0.00  0.00    +0.000 A 
ATOM     25  C   UNL     1       5.256   4.473  16.342  0.00  0.00    +0.000 A 
ATOM     26  C   UNL     1       5.855   4.364  14.990  0.00  0.00    +0.000 A 
ATOM     27  C   UNL     1       5.340   3.563  13.958  0.00  0.00    +0.000 A 
ATOM     28  C   UNL     1       5.947   3.534  12.693  0.00  0.00    +0.000 A 
ATOM     29  C   UNL     1       7.070   4.314  12.431  0.00  0.00    +0.000 A 
ATOM     30  C   UNL     1       7.601   5.110  13.437  0.00  0.00    +0.000 A 
ATOM     31  C   UNL     1       6.998   5.115  14.696  0.00  0.00    +0.000 A 
ATOM     32  O   UNL     1       7.629   5.920  15.659  0.00  0.00    +0.000 OA
ENDBRANCH  20  25
ENDBRANCH  19  20
ENDBRANCH  18  19
ENDBRANCH   1  18
TORSDOF 6
ENDMDL
MODEL 3
REMARK VINA RESULT:      -8.4      1.131      1.208
REMARK  Name = 
REMARK  6 active torsions:
REMARK  status: ('A' for Active; 'I' for Inactive)
REMARK    1  A    between atoms: C_4  and  N_5
REMARK    2  A    between atoms: N_5  and  C_6
REMARK    3  A    between atoms: C_6  and  C_7
REMARK    4  A    between atoms: C_7  and  C_8
REMARK    5  A    between atoms: C_8  and  N_9
REMARK    6  A    between atoms: N_12  and  C_13
REMARK                            x       y       z     vdW  Elec       q    Type
REMARK                         _______ _______ _______ _____ _____    ______ ____
ROOT
ATOM      1  C   UNL     1       2.648   6.887  18.895  0.00  0.00    +0.000 C 
ENDROOT
BRANCH   1   2
ATOM      2  N   UNL     1       2.241   8.262  19.164  0.00  0.00    +0.000 NA
ATOM      3  C   UNL     1       1.182   8.271  20.207  0.00  0.00    +0.000 C 
ATOM      4  C   UNL     1       0.832   9.708  20.629  0.00  0.00    +0.000 C 
ATOM      5  N   UNL     1       0.343  10.396  19.429  0.00  0.00    +0.000 N 
ATOM      6  C   UNL     1       1.349  10.477  18.366  0.00  0.00    +0.000 C 
ATOM      7  C   UNL     1       1.766   9.023  17.983  0.00  0.00    +0.000 C 
BRANCH   5   8
ATOM      8  C   UNL     1      -0.716  11.264  19.588  0.00  0.00    +0.000 A 
ATOM      9  N   UNL     1      -0.609  12.163  20.593  0.00  0.00    +0.000 NA
ATOM     10  C   UNL     1      -1.678  12.914  20.908  0.00  0.00    +0.000 A 
ATOM     11  C   UNL     1      -2.884  12.830  20.251  0.00  0.00    +0.000 A 
ATOM     12  C   UNL     1      -3.021  11.939  19.213  0.00  0.00    +0.000 A 
ATOM     13  N   UNL     1      -4.224  11.866  18.613  0.00  0.00    +0.000 NA
ATOM     14  C   UNL     1      -4.398  10.951  17.638  0.00  0.00    +0.000 A 
ATOM     15  C   UNL     1      -3.420  10.076  17.227  0.00  0.00    +0.000 A 
ATOM     16  C   UNL     1      -2.188  10.150  17.860  0.00  0.00    +0.000 A 
ATOM     17  C   UNL     1      -1.932  11.109  18.865  0.00  0.00    +0.000 A 
ENDBRANCH   5   8
ENDBRANCH   1   2
BRANCH   1  18
ATOM     18  C   UNL     1       2.253   5.896  19.992  0.00  0.00    +0.000 C 
BRANCH  18  19
ATOM     19  C   UNL     1       3.211   4.709  19.961  0.00  0.00    +0.000 C 
BRANCH  19  20
ATOM     20  N   UNL     1       3.807   4.568  18.642  0.00  0.00    +0.000 N 
ATOM     21  H   UNL     1       3.301   3.940  18.028  0.00  0.00    +0.000 HD
BRANCH  20  25
ATOM     22  O   UNL     1       8.322   5.475  19.811  0.00  0.00    +0.000 OA
ATOM     23  C   UNL     1       7.510   5.257  18.919  0.00  0.00    +0.000 A 
ATOM     24  C   UNL     1       6.102   5.020  19.239  0.00  0.00    +0.000 A 
ATOM     25  C   UNL     1       5.151   4.733  18.335  0.00  0.00    +0.000 A 
ATOM     26  C   UNL     1       5.588   4.625  16.923  0.00  0.00    +0.000 A 
ATOM     27  C   UNL     1       4.746   4.264  15.859  0.00  0.00    +0.000 A 
ATOM     28  C   UNL     1       5.226   4.212  14.541  0.00  0.00    +0.000 A 
ATOM     29  C   UNL     1       6.552   4.530  14.261  0.00  0.00    +0.000 A 
ATOM     30  C   UNL     1       7.406   4.885  15.296  0.00  0.00    +0.000 A 
ATOM     31  C   UNL     1       6.919   4.916  16.605  0.00  0.00    +0.000 A 
ATOM     32  O   UNL     1       7.866   5.247  17.589  0.00  0.00    +0.000 OA
ENDBRANCH  20  25
ENDBRANCH  19  20
ENDBRANCH  18  19
ENDBRANCH   1  18
TORSDOF 6
ENDMDL
MODEL 4
REMARK VINA RESULT:      -8.4      1.316      2.515
REMARK  Name = 
REMARK  6 active torsions:
REMARK  status: ('A' for Active; 'I' for Inactive)
REMARK    1  A    between atoms: C_4  and  N_5
REMARK    2  A    between atoms: N_5  and  C_6
REMARK    3  A    between atoms: C_6  and  C_7
REMARK    4  A    between atoms: C_7  and  C_8
REMARK    5  A    between atoms: C_8  and  N_9
REMARK    6  A    between atoms: N_12  and  C_13
REMARK                            x       y       z     vdW  Elec       q    Type
REMARK                         _______ _______ _______ _____ _____    ______ ____
ROOT
ATOM      1  C   UNL     1       2.419   4.818  19.123  0.00  0.00    +0.000 C 
ENDROOT
BRANCH   1   2
ATOM      2  N   UNL     1       2.467   6.256  19.368  0.00  0.00    +0.000 NA
ATOM      3  C   UNL     1       1.502   6.610  20.443  0.00  0.00    +0.000 C 
ATOM      4  C   UNL     1       1.630   8.091  20.835  0.00  0.00    +0.000 C 
ATOM      5  N   UNL     1       1.332   8.876  19.633  0.00  0.00    +0.000 N 
ATOM      6  C   UNL     1       2.273   8.624  18.538  0.00  0.00    +0.000 C 
ATOM      7  C   UNL     1       2.206   7.107  18.181  0.00  0.00    +0.000 C 
BRANCH   5   8
ATOM      8  C   UNL     1       0.600  10.032  19.801  0.00  0.00    +0.000 A 
ATOM      9  N   UNL     1       0.837  10.734  20.934  0.00  0.00    +0.000 NA
ATOM     10  C   UNL     1       0.034  11.767  21.236  0.00  0.00    +0.000 A 
ATOM     11  C   UNL     1      -1.019  12.167  20.446  0.00  0.00    +0.000 A 
ATOM     12  C   UNL     1      -1.276  11.488  19.278  0.00  0.00    +0.000 A 
ATOM     13  N   UNL     1      -2.331  11.890  18.545  0.00  0.00    +0.000 NA
ATOM     14  C   UNL     1      -2.640  11.195  17.433  0.00  0.00    +0.000 A 
ATOM     15  C   UNL     1      -1.947  10.086  17.007  0.00  0.00    +0.000 A 
ATOM     16  C   UNL     1      -0.870   9.670  17.776  0.00  0.00    +0.000 A 
ATOM     17  C   UNL     1      -0.475  10.376  18.933  0.00  0.00    +0.000 A 
ENDBRANCH   5   8
ENDBRANCH   1   2
BRANCH   1  18
ATOM     18  C   UNL     1       2.422   4.439  17.641  0.00  0.00    +0.000 C 
BRANCH  18  19
ATOM     19  C   UNL     1       2.868   2.988  17.497  0.00  0.00    +0.000 C 
BRANCH  19  20
ATOM     20  N   UNL     1       4.320   2.900  17.467  0.00  0.00    +0.000 N 
ATOM     21  H   UNL     1       4.723   2.476  18.295  0.00  0.00    +0.000 HD
BRANCH  20  25
ATOM     22  O   UNL     1       6.246   4.567  13.457  0.00  0.00    +0.000 OA
ATOM     23  C   UNL     1       6.228   4.593  14.682  0.00  0.00    +0.000 A 
ATOM     24  C   UNL     1       5.291   3.753  15.428  0.00  0.00    +0.000 A 
ATOM     25  C   UNL     1       5.171   3.744  16.765  0.00  0.00    +0.000 A 
ATOM     26  C   UNL     1       6.039   4.682  17.516  0.00  0.00    +0.000 A 
ATOM     27  C   UNL     1       5.997   4.857  18.909  0.00  0.00    +0.000 A 
ATOM     28  C   UNL     1       6.873   5.744  19.553  0.00  0.00    +0.000 A 
ATOM     29  C   UNL     1       7.813   6.463  18.822  0.00  0.00    +0.000 A 
ATOM     30  C   UNL     1       7.871   6.311  17.443  0.00  0.00    +0.000 A 
ATOM     31  C   UNL     1       6.982   5.438  16.812  0.00  0.00    +0.000 A 
ATOM     32  O   UNL     1       7.090   5.381  15.413  0.00  0.00    +0.000 OA
ENDBRANCH  20  25
ENDBRANCH  19  20
ENDBRANCH  18  19
ENDBRANCH   1  18
TORSDOF 6
ENDMDL
MODEL 5
REMARK VINA RESULT:      -8.3      5.097      8.667
REMARK  Name = 
REMARK  6 active torsions:
REMARK  status: ('A' for Active; 'I' for Inactive)
REMARK    1  A    between atoms: C_4  and  N_5
REMARK    2  A    between atoms: N_5  and  C_6
REMARK    3  A    between atoms: C_6  and  C_7
REMARK    4  A    between atoms: C_7  and  C_8
REMARK    5  A    between atoms: C_8  and  N_9
REMARK    6  A    between atoms: N_12  and  C_13
REMARK                            x       y       z     vdW  Elec       q    Type
REMARK                         _______ _______ _______ _____ _____    ______ ____
ROOT
ATOM      1  C   UNL     1       7.642   8.246  17.290  0.00  0.00    +0.000 C 
ENDROOT
BRANCH   1   2
ATOM      2  N   UNL     1       7.156   6.870  17.244  0.00  0.00    +0.000 NA
ATOM      3  C   UNL     1       5.742   6.859  16.785  0.00  0.00    +0.000 C 
ATOM      4  C   UNL     1       5.238   5.421  16.578  0.00  0.00    +0.000 C 
ATOM      5  N   UNL     1       5.337   4.745  17.875  0.00  0.00    +0.000 N 
ATOM      6  C   UNL     1       6.713   4.666  18.376  0.00  0.00    +0.000 C 
ATOM      7  C   UNL     1       7.259   6.120  18.519  0.00  0.00    +0.000 C 
BRANCH   5   8
ATOM      8  C   UNL     1       4.318   3.880  18.214  0.00  0.00    +0.000 A 
ATOM      9  N   UNL     1       4.298   2.692  17.567  0.00  0.00    +0.000 NA
ATOM     10  C   UNL     1       3.235   1.886  17.725  0.00  0.00    +0.000 A 
ATOM     11  C   UNL     1       2.160   2.196  18.526  0.00  0.00    +0.000 A 
ATOM     12  C   UNL     1       2.157   3.387  19.213  0.00  0.00    +0.000 A 
ATOM     13  N   UNL     1       1.076   3.667  19.965  0.00  0.00    +0.000 NA
ATOM     14  C   UNL     1       1.024   4.859  20.591  0.00  0.00    +0.000 A 
ATOM     15  C   UNL     1       2.008   5.816  20.498  0.00  0.00    +0.000 A 
ATOM     16  C   UNL     1       3.112   5.524  19.710  0.00  0.00    +0.000 A 
ATOM     17  C   UNL     1       3.241   4.279  19.055  0.00  0.00    +0.000 A 
ENDBRANCH   5   8
ENDBRANCH   1   2
BRANCH   1  18
ATOM     18  C   UNL     1       8.450   8.576  18.547  0.00  0.00    +0.000 C 
BRANCH  18  19
ATOM     19  C   UNL     1       8.910  10.029  18.477  0.00  0.00    +0.000 C 
BRANCH  19  20
ATOM     20  N   UNL     1       9.587  10.410  19.708  0.00  0.00    +0.000 N 
ATOM     21  H   UNL     1       9.455   9.754  20.469  0.00  0.00    +0.000 HD
BRANCH  20  25
ATOM     22  O   UNL     1      11.911  14.523  19.205  0.00  0.00    +0.000 OA
ATOM     23  C   UNL     1      11.143  13.846  19.881  0.00  0.00    +0.000 A 
ATOM     24  C   UNL     1      10.761  12.503  19.446  0.00  0.00    +0.000 A 
ATOM     25  C   UNL     1       9.898  11.706  20.097  0.00  0.00    +0.000 A 
ATOM     26  C   UNL     1       9.278  12.260  21.324  0.00  0.00    +0.000 A 
ATOM     27  C   UNL     1       8.304  11.597  22.088  0.00  0.00    +0.000 A 
ATOM     28  C   UNL     1       7.785  12.175  23.256  0.00  0.00    +0.000 A 
ATOM     29  C   UNL     1       8.236  13.418  23.690  0.00  0.00    +0.000 A 
ATOM     30  C   UNL     1       9.195  14.096  22.949  0.00  0.00    +0.000 A 
ATOM     31  C   UNL     1       9.691  13.518  21.778  0.00  0.00    +0.000 A 
ATOM     32  O   UNL     1      10.627  14.294  21.076  0.00  0.00    +0.000 OA
ENDBRANCH  20  25
ENDBRANCH  19  20
ENDBRANCH  18  19
ENDBRANCH   1  18
TORSDOF 6
ENDMDL
MODEL 6
REMARK VINA RESULT:      -8.2      3.141      8.483
REMARK  Name = 
REMARK  6 active torsions:
REMARK  status: ('A' for Active; 'I' for Inactive)
REMARK    1  A    between atoms: C_4  and  N_5
REMARK    2  A    between atoms: N_5  and  C_6
REMARK    3  A    between atoms: C_6  and  C_7
REMARK    4  A    between atoms: C_7  and  C_8
REMARK    5  A    between atoms: C_8  and  N_9
REMARK    6  A    between atoms: N_12  and  C_13
REMARK                            x       y       z     vdW  Elec       q    Type
REMARK                         _______ _______ _______ _____ _____    ______ ____
ROOT
ATOM      1  C   UNL     1       1.668   2.468  20.537  0.00  0.00    +0.000 C 
ENDROOT
BRANCH   1   2
ATOM      2  N   UNL     1       2.302   2.455  19.221  0.00  0.00    +0.000 NA
ATOM      3  C   UNL     1       3.778   2.530  19.380  0.00  0.00    +0.000 C 
ATOM      4  C   UNL     1       4.489   2.368  18.027  0.00  0.00    +0.000 C 
ATOM      5  N   UNL     1       4.033   3.468  17.172  0.00  0.00    +0.000 N 
ATOM      6  C   UNL     1       2.589   3.438  16.922  0.00  0.00    +0.000 C 
ATOM      7  C   UNL     1       1.857   3.527  18.297  0.00  0.00    +0.000 C 
BRANCH   5   8
ATOM      8  C   UNL     1       4.969   4.056  16.349  0.00  0.00    +0.000 A 
ATOM      9  N   UNL     1       5.165   3.469  15.145  0.00  0.00    +0.000 NA
ATOM     10  C   UNL     1       6.183   3.888  14.376  0.00  0.00    +0.000 A 
ATOM     11  C   UNL     1       7.041   4.901  14.739  0.00  0.00    +0.000 A 
ATOM     12  C   UNL     1       6.860   5.532  15.948  0.00  0.00    +0.000 A 
ATOM     13  N   UNL     1       7.736   6.499  16.280  0.00  0.00    +0.000 NA
ATOM     14  C   UNL     1       7.615   7.082  17.489  0.00  0.00    +0.000 A 
ATOM     15  C   UNL     1       6.656   6.739  18.413  0.00  0.00    +0.000 A 
ATOM     16  C   UNL     1       5.766   5.732  18.067  0.00  0.00    +0.000 A 
ATOM     17  C   UNL     1       5.819   5.105  16.802  0.00  0.00    +0.000 A 
ENDBRANCH   5   8
ENDBRANCH   1   2
BRANCH   1  18
ATOM     18  C   UNL     1       2.039   3.681  21.392  0.00  0.00    +0.000 C 
BRANCH  18  19
ATOM     19  C   UNL     1       1.218   4.883  20.936  0.00  0.00    +0.000 C 
BRANCH  19  20
ATOM     20  N   UNL     1       2.008   6.102  21.019  0.00  0.00    +0.000 N 
ATOM     21  H   UNL     1       2.412   6.267  21.934  0.00  0.00    +0.000 HD
BRANCH  20  25
ATOM     22  O   UNL     1       2.673   8.642  17.060  0.00  0.00    +0.000 OA
ATOM     23  C   UNL     1       2.216   8.603  18.197  0.00  0.00    +0.000 A 
ATOM     24  C   UNL     1       2.339   7.388  19.003  0.00  0.00    +0.000 A 
ATOM     25  C   UNL     1       1.836   7.237  20.239  0.00  0.00    +0.000 A 
ATOM     26  C   UNL     1       1.080   8.386  20.793  0.00  0.00    +0.000 A 
ATOM     27  C   UNL     1       0.427   8.379  22.037  0.00  0.00    +0.000 A 
ATOM     28  C   UNL     1      -0.245   9.517  22.507  0.00  0.00    +0.000 A 
ATOM     29  C   UNL     1      -0.267  10.686  21.752  0.00  0.00    +0.000 A 
ATOM     30  C   UNL     1       0.367  10.717  20.518  0.00  0.00    +0.000 A 
ATOM     31  C   UNL     1       1.017   9.572  20.053  0.00  0.00    +0.000 A 
ATOM     32  O   UNL     1       1.594   9.686  18.778  0.00  0.00    +0.000 OA
ENDBRANCH  20  25
ENDBRANCH  19  20
ENDBRANCH  18  19
ENDBRANCH   1  18
TORSDOF 6
ENDMDL
MODEL 7
REMARK VINA RESULT:      -8.1      3.533      5.525
REMARK  Name = 
REMARK  6 active torsions:
REMARK  status: ('A' for Active; 'I' for Inactive)
REMARK    1  A    between atoms: C_4  and  N_5
REMARK    2  A    between atoms: N_5  and  C_6
REMARK    3  A    between atoms: C_6  and  C_7
REMARK    4  A    between atoms: C_7  and  C_8
REMARK    5  A    between atoms: C_8  and  N_9
REMARK    6  A    between atoms: N_12  and  C_13
REMARK                            x       y       z     vdW  Elec       q    Type
REMARK                         _______ _______ _______ _____ _____    ______ ____
ROOT
ATOM      1  C   UNL     1       1.098   9.225  19.503  0.00  0.00    +0.000 C 
ENDROOT
BRANCH   1   2
ATOM      2  N   UNL     1       0.440  10.499  19.777  0.00  0.00    +0.000 NA
ATOM      3  C   UNL     1       0.281  11.258  18.509  0.00  0.00    +0.000 C 
ATOM      4  C   UNL     1      -0.542  12.538  18.731  0.00  0.00    +0.000 C 
ATOM      5  N   UNL     1       0.195  13.355  19.700  0.00  0.00    +0.000 N 
ATOM      6  C   UNL     1       0.351  12.697  21.001  0.00  0.00    +0.000 C 
ATOM      7  C   UNL     1       1.121  11.358  20.777  0.00  0.00    +0.000 C 
BRANCH   5   8
ATOM      8  C   UNL     1       0.211  14.718  19.493  0.00  0.00    +0.000 A 
ATOM      9  N   UNL     1      -0.917  15.389  19.822  0.00  0.00    +0.000 NA
ATOM     10  C   UNL     1      -1.024  16.683  19.480  0.00  0.00    +0.000 A 
ATOM     11  C   UNL     1      -0.037  17.378  18.819  0.00  0.00    +0.000 A 
ATOM     12  C   UNL     1       1.129  16.731  18.486  0.00  0.00    +0.000 A 
ATOM     13  N   UNL     1       2.060  17.436  17.815  0.00  0.00    +0.000 NA
ATOM     14  C   UNL     1       3.182  16.801  17.420  0.00  0.00    +0.000 A 
ATOM     15  C   UNL     1       3.428  15.468  17.651  0.00  0.00    +0.000 A 
ATOM     16  C   UNL     1       2.457  14.746  18.331  0.00  0.00    +0.000 A 
ATOM     17  C   UNL     1       1.276  15.362  18.800  0.00  0.00    +0.000 A 
ENDBRANCH   5   8
ENDBRANCH   1   2
BRANCH   1  18
ATOM     18  C   UNL     1       1.308   8.942  18.014  0.00  0.00    +0.000 C 
BRANCH  18  19
ATOM     19  C   UNL     1       2.725   8.420  17.801  0.00  0.00    +0.000 C 
BRANCH  19  20
ATOM     20  N   UNL     1       2.981   7.272  18.658  0.00  0.00    +0.000 N 
ATOM     21  H   UNL     1       3.367   7.514  19.564  0.00  0.00    +0.000 HD
BRANCH  20  25
ATOM     22  O   UNL     1       5.215   4.139  15.872  0.00  0.00    +0.000 OA
ATOM     23  C   UNL     1       4.377   4.330  16.746  0.00  0.00    +0.000 A 
ATOM     24  C   UNL     1       4.124   5.681  17.248  0.00  0.00    +0.000 A 
ATOM     25  C   UNL     1       3.257   5.981  18.228  0.00  0.00    +0.000 A 
ATOM     26  C   UNL     1       2.538   4.844  18.851  0.00  0.00    +0.000 A 
ATOM     27  C   UNL     1       1.651   4.964  19.933  0.00  0.00    +0.000 A 
ATOM     28  C   UNL     1       0.984   3.843  20.450  0.00  0.00    +0.000 A 
ATOM     29  C   UNL     1       1.181   2.584  19.890  0.00  0.00    +0.000 A 
ATOM     30  C   UNL     1       2.057   2.439  18.823  0.00  0.00    +0.000 A 
ATOM     31  C   UNL     1       2.728   3.559  18.329  0.00  0.00    +0.000 A 
ATOM     32  O   UNL     1       3.622   3.308  17.276  0.00  0.00    +0.000 OA
ENDBRANCH  20  25
ENDBRANCH  19  20
ENDBRANCH  18  19
ENDBRANCH   1  18
TORSDOF 6
ENDMDL
MODEL 8
REMARK VINA RESULT:      -8.1      4.234     10.529
REMARK  Name = 
REMARK  6 active torsions:
REMARK  status: ('A' for Active; 'I' for Inactive)
REMARK    1  A    between atoms: C_4  and  N_5
REMARK    2  A    between atoms: N_5  and  C_6
REMARK    3  A    between atoms: C_6  and  C_7
REMARK    4  A    between atoms: C_7  and  C_8
REMARK    5  A    between atoms: C_8  and  N_9
REMARK    6  A    between atoms: N_12  and  C_13
REMARK                            x       y       z     vdW  Elec       q    Type
REMARK                         _______ _______ _______ _____ _____    ______ ____
ROOT
ATOM      1  C   UNL     1      -0.126  10.308  19.696  0.00  0.00    +0.000 C 
ENDROOT
BRANCH   1   2
ATOM      2  N   UNL     1       1.064   9.469  19.595  0.00  0.00    +0.000 NA
ATOM      3  C   UNL     1       1.294   9.104  18.172  0.00  0.00    +0.000 C 
ATOM      4  C   UNL     1       2.622   8.345  18.003  0.00  0.00    +0.000 C 
ATOM      5  N   UNL     1       2.520   7.126  18.811  0.00  0.00    +0.000 N 
ATOM      6  C   UNL     1       2.343   7.399  20.240  0.00  0.00    +0.000 C 
ATOM      7  C   UNL     1       1.036   8.233  20.416  0.00  0.00    +0.000 C 
BRANCH   5   8
ATOM      8  C   UNL     1       3.065   5.974  18.284  0.00  0.00    +0.000 A 
ATOM      9  N   UNL     1       4.073   6.138  17.396  0.00  0.00    +0.000 NA
ATOM     10  C   UNL     1       4.522   5.068  16.720  0.00  0.00    +0.000 A 
ATOM     11  C   UNL     1       4.020   3.798  16.889  0.00  0.00    +0.000 A 
ATOM     12  C   UNL     1       3.008   3.593  17.797  0.00  0.00    +0.000 A 
ATOM     13  N   UNL     1       2.524   2.342  17.914  0.00  0.00    +0.000 NA
ATOM     14  C   UNL     1       1.486   2.134  18.749  0.00  0.00    +0.000 A 
ATOM     15  C   UNL     1       0.881   3.128  19.481  0.00  0.00    +0.000 A 
ATOM     16  C   UNL     1       1.378   4.417  19.343  0.00  0.00    +0.000 A 
ATOM     17  C   UNL     1       2.485   4.694  18.511  0.00  0.00    +0.000 A 
ENDBRANCH   5   8
ENDBRANCH   1   2
BRANCH   1  18
ATOM     18  C   UNL     1      -0.372  11.187  18.468  0.00  0.00    +0.000 C 
BRANCH  18  19
ATOM     19  C   UNL     1      -1.863  11.185  18.144  0.00  0.00    +0.000 C 
BRANCH  19  20
ATOM     20  N   UNL     1      -2.499  12.389  18.658  0.00  0.00    +0.000 N 
ATOM     21  H   UNL     1      -2.011  13.244  18.419  0.00  0.00    +0.000 HD
BRANCH  20  25
ATOM     22  O   UNL     1      -3.159  12.873  23.337  0.00  0.00    +0.000 OA
ATOM     23  C   UNL     1      -3.663  12.665  22.239  0.00  0.00    +0.000 A 
ATOM     24  C   UNL     1      -2.833  12.644  21.035  0.00  0.00    +0.000 A 
ATOM     25  C   UNL     1      -3.300  12.465  19.789  0.00  0.00    +0.000 A 
ATOM     26  C   UNL     1      -4.768  12.311  19.645  0.00  0.00    +0.000 A 
ATOM     27  C   UNL     1      -5.435  12.186  18.415  0.00  0.00    +0.000 A 
ATOM     28  C   UNL     1      -6.826  12.014  18.361  0.00  0.00    +0.000 A 
ATOM     29  C   UNL     1      -7.575  11.949  19.533  0.00  0.00    +0.000 A 
ATOM     30  C   UNL     1      -6.939  12.074  20.761  0.00  0.00    +0.000 A 
ATOM     31  C   UNL     1      -5.557  12.264  20.800  0.00  0.00    +0.000 A 
ATOM     32  O   UNL     1      -5.009  12.420  22.084  0.00  0.00    +0.000 OA
ENDBRANCH  20  25
ENDBRANCH  19  20
ENDBRANCH  18  19
ENDBRANCH   1  18
TORSDOF 6
ENDMDL
MODEL 9
REMARK VINA RESULT:      -8.0      2.338      4.367
REMARK  Name = 
REMARK  6 active torsions:
REMARK  status: ('A' for Active; 'I' for Inactive)
REMARK    1  A    between atoms: C_4  and  N_5
REMARK    2  A    between atoms: N_5  and  C_6
REMARK    3  A    between atoms: C_6  and  C_7
REMARK    4  A    between atoms: C_7  and  C_8
REMARK    5  A    between atoms: C_8  and  N_9
REMARK    6  A    between atoms: N_12  and  C_13
REMARK                            x       y       z     vdW  Elec       q    Type
REMARK                         _______ _______ _______ _____ _____    ______ ____
ROOT
ATOM      1  C   UNL     1       1.520  10.875  19.005  0.00  0.00    +0.000 C 
ENDROOT
BRANCH   1   2
ATOM      2  N   UNL     1       0.505  11.717  19.633  0.00  0.00    +0.000 NA
ATOM      3  C   UNL     1      -0.369  10.881  20.497  0.00  0.00    +0.000 C 
ATOM      4  C   UNL     1      -1.355  11.751  21.293  0.00  0.00    +0.000 C 
ATOM      5  N   UNL     1      -2.178  12.467  20.313  0.00  0.00    +0.000 N 
ATOM      6  C   UNL     1      -1.395  13.358  19.451  0.00  0.00    +0.000 C 
ATOM      7  C   UNL     1      -0.340  12.494  18.693  0.00  0.00    +0.000 C 
BRANCH   5   8
ATOM      8  C   UNL     1      -3.516  12.619  20.604  0.00  0.00    +0.000 A 
ATOM      9  N   UNL     1      -3.816  13.009  21.865  0.00  0.00    +0.000 NA
ATOM     10  C   UNL     1      -5.101  13.003  22.258  0.00  0.00    +0.000 A 
ATOM     11  C   UNL     1      -6.143  12.632  21.439  0.00  0.00    +0.000 A 
ATOM     12  C   UNL     1      -5.875  12.249  20.146  0.00  0.00    +0.000 A 
ATOM     13  N   UNL     1      -6.917  11.866  19.384  0.00  0.00    +0.000 NA
ATOM     14  C   UNL     1      -6.668  11.422  18.136  0.00  0.00    +0.000 A 
ATOM     15  C   UNL     1      -5.407  11.324  17.596  0.00  0.00    +0.000 A 
ATOM     16  C   UNL     1      -4.338  11.707  18.393  0.00  0.00    +0.000 A 
ATOM     17  C   UNL     1      -4.536  12.212  19.698  0.00  0.00    +0.000 A 
ENDBRANCH   5   8
ENDBRANCH   1   2
BRANCH   1  18
ATOM     18  C   UNL     1       0.980   9.546  18.472  0.00  0.00    +0.000 C 
BRANCH  18  19
ATOM     19  C   UNL     1       2.072   8.852  17.665  0.00  0.00    +0.000 C 
BRANCH  19  20
ATOM     20  N   UNL     1       2.587   7.698  18.387  0.00  0.00    +0.000 N 
ATOM     21  H   UNL     1       2.669   7.844  19.387  0.00  0.00    +0.000 HD
BRANCH  20  25
ATOM     22  O   UNL     1       6.540   6.249  16.187  0.00  0.00    +0.000 OA
ATOM     23  C   UNL     1       5.456   5.943  16.670  0.00  0.00    +0.000 A 
ATOM     24  C   UNL     1       4.600   6.963  17.278  0.00  0.00    +0.000 A 
ATOM     25  C   UNL     1       3.419   6.717  17.866  0.00  0.00    +0.000 A 
ATOM     26  C   UNL     1       2.985   5.300  17.919  0.00  0.00    +0.000 A 
ATOM     27  C   UNL     1       1.816   4.853  18.555  0.00  0.00    +0.000 A 
ATOM     28  C   UNL     1       1.456   3.496  18.538  0.00  0.00    +0.000 A 
ATOM     29  C   UNL     1       2.248   2.565  17.873  0.00  0.00    +0.000 A 
ATOM     30  C   UNL     1       3.412   2.982  17.240  0.00  0.00    +0.000 A 
ATOM     31  C   UNL     1       3.768   4.331  17.281  0.00  0.00    +0.000 A 
ATOM     32  O   UNL     1       4.980   4.651  16.647  0.00  0.00    +0.000 OA
ENDBRANCH  20  25
ENDBRANCH  19  20
ENDBRANCH  18  19
ENDBRANCH   1  18
TORSDOF 6
ENDMDL
