MODEL 1
REMARK VINA RESULT:      -7.7      0.000      0.000
REMARK  Name = 
REMARK  6 active torsions:
REMARK  status: ('A' for Active; 'I' for Inactive)
REMARK    1  A    between atoms: C_1  and  C_2
REMARK    2  A    between atoms: N_8  and  N_9
REMARK    3  A    between atoms: N_9  and  C_10
REMARK    4  A    between atoms: C_13  and  S_14
REMARK    5  A    between atoms: S_14  and  N_15
REMARK    6  A    between atoms: C_19  and  N_20
REMARK                            x       y       z     vdW  Elec       q    Type
REMARK                         _______ _______ _______ _____ _____    ______ ____
ROOT
ATOM      1  C   UNL     1       1.224   8.985  20.264  0.00  0.00    +0.000 A 
ATOM      2  C   UNL     1       1.057   9.319  18.902  0.00  0.00    +0.000 A 
ATOM      3  C   UNL     1       0.395  10.474  18.498  0.00  0.00    +0.000 A 
ATOM      4  C   UNL     1      -0.127  11.330  19.463  0.00  0.00    +0.000 A 
ATOM      5  C   UNL     1       0.028  11.056  20.822  0.00  0.00    +0.000 A 
ATOM      6  C   UNL     1       0.704   9.888  21.222  0.00  0.00    +0.000 A 
ENDROOT
BRANCH   4   7
ATOM      7  S   UNL     1      -0.974  12.779  18.916  0.00  0.00    +0.000 S 
ATOM      8  O   UNL     1      -2.099  13.025  19.767  0.00  0.00    +0.000 OA
ATOM      9  O   UNL     1       0.007  13.804  18.601  0.00  0.00    +0.000 OA
BRANCH   7  10
ATOM     10  N   UNL     1      -1.573  12.249  17.447  0.00  0.00    +0.000 NA
ATOM     11  H   UNL     1      -1.034  11.449  17.113  0.00  0.00    +0.000 HD
ATOM     12  H   UNL     1      -2.578  12.097  17.496  0.00  0.00    +0.000 HD
ENDBRANCH   7  10
ENDBRANCH   4   7
BRANCH   6  13
ATOM     13  N   UNL     1       0.887   9.725  22.669  0.00  0.00    +0.000 N 
ATOM     14  O   UNL     1      -0.048  10.064  23.408  0.00  0.00    +0.000 OA
ATOM     15  O   UNL     1       2.010   9.362  23.073  0.00  0.00    +0.000 OA
ENDBRANCH   6  13
BRANCH   1  16
ATOM     16  N   UNL     1       1.904   7.770  20.565  0.00  0.00    +0.000 N 
ATOM     17  H   UNL     1       1.412   7.247  21.301  0.00  0.00    +0.000 HD
BRANCH  16  25
ATOM     18  C   UNL     1       4.258   4.336  18.755  0.00  0.00    +0.000 C 
ATOM     19  C   UNL     1       2.920   4.962  18.365  0.00  0.00    +0.000 C 
ATOM     20  C   UNL     1       1.908   3.905  17.907  0.00  0.00    +0.000 C 
ATOM     21  C   UNL     1       1.442   3.008  19.054  0.00  0.00    +0.000 C 
ATOM     22  C   UNL     1       0.842   3.843  20.182  0.00  0.00    +0.000 C 
ATOM     23  C   UNL     1       1.809   4.904  20.701  0.00  0.00    +0.000 C 
ATOM     24  C   UNL     1       2.333   5.745  19.544  0.00  0.00    +0.000 C 
ATOM     25  N   UNL     1       2.364   7.046  19.491  0.00  0.00    +0.000 NA
ENDBRANCH  16  25
ENDBRANCH   1  16
TORSDOF 5
ENDMDL
MODEL 2
REMARK VINA RESULT:      -7.7      0.819      1.005
REMARK  Name = 
REMARK  6 active torsions:
REMARK  status: ('A' for Active; 'I' for Inactive)
REMARK    1  A    between atoms: C_1  and  C_2
REMARK    2  A    between atoms: N_8  and  N_9
REMARK    3  A    between atoms: N_9  and  C_10
REMARK    4  A    between atoms: C_13  and  S_14
REMARK    5  A    between atoms: S_14  and  N_15
REMARK    6  A    between atoms: C_19  and  N_20
REMARK                            x       y       z     vdW  Elec       q    Type
REMARK                         _______ _______ _______ _____ _____    ______ ____
ROOT
ATOM      1  C   UNL     1       1.225   8.803  19.947  0.00  0.00    +0.000 A 
ATOM      2  C   UNL     1       1.016   9.127  18.588  0.00  0.00    +0.000 A 
ATOM      3  C   UNL     1       0.089  10.083  18.188  0.00  0.00    +0.000 A 
ATOM      4  C   UNL     1      -0.668  10.741  19.154  0.00  0.00    +0.000 A 
ATOM      5  C   UNL     1      -0.486  10.473  20.510  0.00  0.00    +0.000 A 
ATOM      6  C   UNL     1       0.459   9.508  20.907  0.00  0.00    +0.000 A 
ENDROOT
BRANCH   4   7
ATOM      7  S   UNL     1      -1.846  11.938  18.610  0.00  0.00    +0.000 S 
ATOM      8  O   UNL     1      -2.768  11.322  17.702  0.00  0.00    +0.000 OA
ATOM      9  O   UNL     1      -2.281  12.721  19.754  0.00  0.00    +0.000 OA
BRANCH   7  10
ATOM     10  N   UNL     1      -0.865  12.947  17.707  0.00  0.00    +0.000 NA
ATOM     11  H   UNL     1      -1.277  13.110  16.787  0.00  0.00    +0.000 HD
ATOM     12  H   UNL     1      -0.632  13.790  18.226  0.00  0.00    +0.000 HD
ENDBRANCH   7  10
ENDBRANCH   4   7
BRANCH   6  13
ATOM     13  N   UNL     1       0.635   9.351  22.355  0.00  0.00    +0.000 N 
ATOM     14  O   UNL     1      -0.385   9.251  23.051  0.00  0.00    +0.000 OA
ATOM     15  O   UNL     1       1.794   9.440  22.810  0.00  0.00    +0.000 OA
ENDBRANCH   6  13
BRANCH   1  16
ATOM     16  N   UNL     1       2.189   7.798  20.244  0.00  0.00    +0.000 N 
ATOM     17  H   UNL     1       1.990   7.355  21.150  0.00  0.00    +0.000 HD
BRANCH  16  25
ATOM     18  C   UNL     1       4.205   4.079  18.596  0.00  0.00    +0.000 C 
ATOM     19  C   UNL     1       2.891   4.766  18.226  0.00  0.00    +0.000 C 
ATOM     20  C   UNL     1       1.787   3.751  17.907  0.00  0.00    +0.000 C 
ATOM     21  C   UNL     1       1.328   2.979  19.143  0.00  0.00    +0.000 C 
ATOM     22  C   UNL     1       0.850   3.938  20.231  0.00  0.00    +0.000 C 
ATOM     23  C   UNL     1       1.913   4.965  20.613  0.00  0.00    +0.000 C 
ATOM     24  C   UNL     1       2.425   5.676  19.367  0.00  0.00    +0.000 C 
ATOM     25  N   UNL     1       2.539   6.963  19.209  0.00  0.00    +0.000 NA
ENDBRANCH  16  25
ENDBRANCH   1  16
TORSDOF 5
ENDMDL
MODEL 3
REMARK VINA RESULT:      -7.5      5.062      7.856
REMARK  Name = 
REMARK  6 active torsions:
REMARK  status: ('A' for Active; 'I' for Inactive)
REMARK    1  A    between atoms: C_1  and  C_2
REMARK    2  A    between atoms: N_8  and  N_9
REMARK    3  A    between atoms: N_9  and  C_10
REMARK    4  A    between atoms: C_13  and  S_14
REMARK    5  A    between atoms: S_14  and  N_15
REMARK    6  A    between atoms: C_19  and  N_20
REMARK                            x       y       z     vdW  Elec       q    Type
REMARK                         _______ _______ _______ _____ _____    ______ ____
ROOT
ATOM      1  C   UNL     1       3.325   6.477  18.114  0.00  0.00    +0.000 A 
ATOM      2  C   UNL     1       4.386   7.249  17.593  0.00  0.00    +0.000 A 
ATOM      3  C   UNL     1       5.412   6.688  16.841  0.00  0.00    +0.000 A 
ATOM      4  C   UNL     1       5.401   5.318  16.593  0.00  0.00    +0.000 A 
ATOM      5  C   UNL     1       4.366   4.514  17.068  0.00  0.00    +0.000 A 
ATOM      6  C   UNL     1       3.328   5.091  17.824  0.00  0.00    +0.000 A 
ENDROOT
BRANCH   4   7
ATOM      7  S   UNL     1       6.726   4.636  15.647  0.00  0.00    +0.000 S 
ATOM      8  O   UNL     1       6.272   3.457  14.970  0.00  0.00    +0.000 OA
ATOM      9  O   UNL     1       7.416   5.714  14.961  0.00  0.00    +0.000 OA
BRANCH   7  10
ATOM     10  N   UNL     1       7.752   4.137  16.870  0.00  0.00    +0.000 NA
ATOM     11  H   UNL     1       8.681   3.941  16.494  0.00  0.00    +0.000 HD
ATOM     12  H   UNL     1       7.735   4.789  17.650  0.00  0.00    +0.000 HD
ENDBRANCH   7  10
ENDBRANCH   4   7
BRANCH   6  13
ATOM     13  N   UNL     1       2.244   4.181  18.212  0.00  0.00    +0.000 N 
ATOM     14  O   UNL     1       1.613   3.620  17.306  0.00  0.00    +0.000 OA
ATOM     15  O   UNL     1       1.951   4.114  19.423  0.00  0.00    +0.000 OA
ENDBRANCH   6  13
BRANCH   1  16
ATOM     16  N   UNL     1       2.335   7.151  18.885  0.00  0.00    +0.000 N 
ATOM     17  H   UNL     1       2.511   7.034  19.891  0.00  0.00    +0.000 HD
BRANCH  16  25
ATOM     18  C   UNL     1      -0.683  10.494  18.315  0.00  0.00    +0.000 C 
ATOM     19  C   UNL     1       0.797  10.521  18.694  0.00  0.00    +0.000 C 
ATOM     20  C   UNL     1       1.095  11.591  19.751  0.00  0.00    +0.000 C 
ATOM     21  C   UNL     1       0.492  11.251  21.114  0.00  0.00    +0.000 C 
ATOM     22  C   UNL     1       0.990   9.892  21.600  0.00  0.00    +0.000 C 
ATOM     23  C   UNL     1       0.704   8.774  20.601  0.00  0.00    +0.000 C 
ATOM     24  C   UNL     1       1.237   9.152  19.225  0.00  0.00    +0.000 C 
ATOM     25  N   UNL     1       1.983   8.410  18.458  0.00  0.00    +0.000 NA
ENDBRANCH  16  25
ENDBRANCH   1  16
TORSDOF 5
ENDMDL
MODEL 4
REMARK VINA RESULT:      -7.4      4.718      7.586
REMARK  Name = 
REMARK  6 active torsions:
REMARK  status: ('A' for Active; 'I' for Inactive)
REMARK    1  A    between atoms: C_1  and  C_2
REMARK    2  A    between atoms: N_8  and  N_9
REMARK    3  A    between atoms: N_9  and  C_10
REMARK    4  A    between atoms: C_13  and  S_14
REMARK    5  A    between atoms: S_14  and  N_15
REMARK    6  A    between atoms: C_19  and  N_20
REMARK                            x       y       z     vdW  Elec       q    Type
REMARK                         _______ _______ _______ _____ _____    ______ ____
ROOT
ATOM      1  C   UNL     1       3.215   6.364  18.918  0.00  0.00    +0.000 A 
ATOM      2  C   UNL     1       3.810   7.112  17.878  0.00  0.00    +0.000 A 
ATOM      3  C   UNL     1       4.880   6.625  17.134  0.00  0.00    +0.000 A 
ATOM      4  C   UNL     1       5.389   5.363  17.423  0.00  0.00    +0.000 A 
ATOM      5  C   UNL     1       4.825   4.576  18.427  0.00  0.00    +0.000 A 
ATOM      6  C   UNL     1       3.739   5.074  19.171  0.00  0.00    +0.000 A 
ENDROOT
BRANCH   4   7
ATOM      7  S   UNL     1       6.757   4.782  16.469  0.00  0.00    +0.000 S 
ATOM      8  O   UNL     1       6.337   3.680  15.655  0.00  0.00    +0.000 OA
ATOM      9  O   UNL     1       7.471   5.926  15.929  0.00  0.00    +0.000 OA
BRANCH   7  10
ATOM     10  N   UNL     1       7.731   4.158  17.677  0.00  0.00    +0.000 NA
ATOM     11  H   UNL     1       8.687   4.503  17.574  0.00  0.00    +0.000 HD
ATOM     12  H   UNL     1       7.318   4.310  18.594  0.00  0.00    +0.000 HD
ENDBRANCH   7  10
ENDBRANCH   4   7
BRANCH   6  13
ATOM     13  N   UNL     1       3.163   4.145  20.150  0.00  0.00    +0.000 N 
ATOM     14  O   UNL     1       3.236   2.933  19.906  0.00  0.00    +0.000 OA
ATOM     15  O   UNL     1       2.536   4.634  21.112  0.00  0.00    +0.000 OA
ENDBRANCH   6  13
BRANCH   1  16
ATOM     16  N   UNL     1       2.135   6.965  19.627  0.00  0.00    +0.000 N 
ATOM     17  H   UNL     1       2.167   6.716  20.623  0.00  0.00    +0.000 HD
BRANCH  16  25
ATOM     18  C   UNL     1      -0.738  10.430  19.035  0.00  0.00    +0.000 C 
ATOM     19  C   UNL     1       0.661  10.369  19.647  0.00  0.00    +0.000 C 
ATOM     20  C   UNL     1       0.787  11.281  20.873  0.00  0.00    +0.000 C 
ATOM     21  C   UNL     1      -0.031  10.779  22.063  0.00  0.00    +0.000 C 
ATOM     22  C   UNL     1       0.376   9.355  22.434  0.00  0.00    +0.000 C 
ATOM     23  C   UNL     1       0.252   8.387  21.261  0.00  0.00    +0.000 C 
ATOM     24  C   UNL     1       1.003   8.931  20.052  0.00  0.00    +0.000 C 
ATOM     25  N   UNL     1       1.861   8.278  19.322  0.00  0.00    +0.000 NA
ENDBRANCH  16  25
ENDBRANCH   1  16
TORSDOF 5
ENDMDL
MODEL 5
REMARK VINA RESULT:      -7.4      0.923      1.266
REMARK  Name = 
REMARK  6 active torsions:
REMARK  status: ('A' for Active; 'I' for Inactive)
REMARK    1  A    between atoms: C_1  and  C_2
REMARK    2  A    between atoms: N_8  and  N_9
REMARK    3  A    between atoms: N_9  and  C_10
REMARK    4  A    between atoms: C_13  and  S_14
REMARK    5  A    between atoms: S_14  and  N_15
REMARK    6  A    between atoms: C_19  and  N_20
REMARK                            x       y       z     vdW  Elec       q    Type
REMARK                         _______ _______ _______ _____ _____    ______ ____
ROOT
ATOM      1  C   UNL     1       1.310   8.728  20.031  0.00  0.00    +0.000 A 
ATOM      2  C   UNL     1       1.217   9.008  18.650  0.00  0.00    +0.000 A 
ATOM      3  C   UNL     1       0.430  10.042  18.156  0.00  0.00    +0.000 A 
ATOM      4  C   UNL     1      -0.298  10.827  19.045  0.00  0.00    +0.000 A 
ATOM      5  C   UNL     1      -0.225  10.605  20.420  0.00  0.00    +0.000 A 
ATOM      6  C   UNL     1       0.579   9.560  20.913  0.00  0.00    +0.000 A 
ENDROOT
BRANCH   4   7
ATOM      7  S   UNL     1      -1.298  12.122  18.382  0.00  0.00    +0.000 S 
ATOM      8  O   UNL     1      -0.495  13.292  18.184  0.00  0.00    +0.000 OA
ATOM      9  O   UNL     1      -2.147  11.571  17.340  0.00  0.00    +0.000 OA
BRANCH   7  10
ATOM     10  N   UNL     1      -2.304  12.430  19.682  0.00  0.00    +0.000 NA
ATOM     11  H   UNL     1      -3.219  12.744  19.355  0.00  0.00    +0.000 HD
ATOM     12  H   UNL     1      -2.327  11.639  20.321  0.00  0.00    +0.000 HD
ENDBRANCH   7  10
ENDBRANCH   4   7
BRANCH   6  13
ATOM     13  N   UNL     1       0.654   9.453  22.374  0.00  0.00    +0.000 N 
ATOM     14  O   UNL     1       1.779   9.448  22.893  0.00  0.00    +0.000 OA
ATOM     15  O   UNL     1      -0.410   9.262  22.996  0.00  0.00    +0.000 OA
ENDBRANCH   6  13
BRANCH   1  16
ATOM     16  N   UNL     1       2.133   7.635  20.428  0.00  0.00    +0.000 N 
ATOM     17  H   UNL     1       1.749   7.169  21.260  0.00  0.00    +0.000 HD
BRANCH  16  25
ATOM     18  C   UNL     1       4.318   3.947  18.932  0.00  0.00    +0.000 C 
ATOM     19  C   UNL     1       3.055   4.647  18.432  0.00  0.00    +0.000 C 
ATOM     20  C   UNL     1       1.992   3.644  17.968  0.00  0.00    +0.000 C 
ATOM     21  C   UNL     1       1.396   2.846  19.127  0.00  0.00    +0.000 C 
ATOM     22  C   UNL     1       0.800   3.782  20.176  0.00  0.00    +0.000 C 
ATOM     23  C   UNL     1       1.814   4.796  20.698  0.00  0.00    +0.000 C 
ATOM     24  C   UNL     1       2.464   5.533  19.535  0.00  0.00    +0.000 C 
ATOM     25  N   UNL     1       2.597   6.823  19.420  0.00  0.00    +0.000 NA
ENDBRANCH  16  25
ENDBRANCH   1  16
TORSDOF 5
ENDMDL
MODEL 6
REMARK VINA RESULT:      -7.3      4.790      7.610
REMARK  Name = 
REMARK  6 active torsions:
REMARK  status: ('A' for Active; 'I' for Inactive)
REMARK    1  A    between atoms: C_1  and  C_2
REMARK    2  A    between atoms: N_8  and  N_9
REMARK    3  A    between atoms: N_9  and  C_10
REMARK    4  A    between atoms: C_13  and  S_14
REMARK    5  A    between atoms: S_14  and  N_15
REMARK    6  A    between atoms: C_19  and  N_20
REMARK                            x       y       z     vdW  Elec       q    Type
REMARK                         _______ _______ _______ _____ _____    ______ ____
ROOT
ATOM      1  C   UNL     1       3.356   6.338  18.721  0.00  0.00    +0.000 A 
ATOM      2  C   UNL     1       3.904   7.098  17.664  0.00  0.00    +0.000 A 
ATOM      3  C   UNL     1       4.921   6.610  16.850  0.00  0.00    +0.000 A 
ATOM      4  C   UNL     1       5.423   5.333  17.083  0.00  0.00    +0.000 A 
ATOM      5  C   UNL     1       4.903   4.534  18.101  0.00  0.00    +0.000 A 
ATOM      6  C   UNL     1       3.871   5.034  18.917  0.00  0.00    +0.000 A 
ENDROOT
BRANCH   4   7
ATOM      7  S   UNL     1       6.723   4.750  16.040  0.00  0.00    +0.000 S 
ATOM      8  O   UNL     1       6.768   5.540  14.846  0.00  0.00    +0.000 OA
ATOM      9  O   UNL     1       7.899   4.497  16.855  0.00  0.00    +0.000 OA
BRANCH   7  10
ATOM     10  N   UNL     1       6.125   3.247  15.615  0.00  0.00    +0.000 NA
ATOM     11  H   UNL     1       5.463   2.918  16.319  0.00  0.00    +0.000 HD
ATOM     12  H   UNL     1       5.769   3.252  14.662  0.00  0.00    +0.000 HD
ENDBRANCH   7  10
ENDBRANCH   4   7
BRANCH   6  13
ATOM     13  N   UNL     1       3.334   4.094  19.908  0.00  0.00    +0.000 N 
ATOM     14  O   UNL     1       2.760   4.569  20.897  0.00  0.00    +0.000 OA
ATOM     15  O   UNL     1       3.587   2.882  19.752  0.00  0.00    +0.000 OA
ENDBRANCH   6  13
BRANCH   1  16
ATOM     16  N   UNL     1       2.330   6.942  19.503  0.00  0.00    +0.000 N 
ATOM     17  H   UNL     1       2.462   6.739  20.502  0.00  0.00    +0.000 HD
BRANCH  16  25
ATOM     18  C   UNL     1      -0.705  10.273  18.956  0.00  0.00    +0.000 C 
ATOM     19  C   UNL     1       0.726  10.286  19.491  0.00  0.00    +0.000 C 
ATOM     20  C   UNL     1       0.883  11.246  20.676  0.00  0.00    +0.000 C 
ATOM     21  C   UNL     1       0.151  10.757  21.926  0.00  0.00    +0.000 C 
ATOM     22  C   UNL     1       0.634   9.364  22.322  0.00  0.00    +0.000 C 
ATOM     23  C   UNL     1       0.484   8.350  21.190  0.00  0.00    +0.000 C 
ATOM     24  C   UNL     1       1.146   8.878  19.924  0.00  0.00    +0.000 C 
ATOM     25  N   UNL     1       1.988   8.231  19.170  0.00  0.00    +0.000 NA
ENDBRANCH  16  25
ENDBRANCH   1  16
TORSDOF 5
ENDMDL
MODEL 7
REMARK VINA RESULT:      -7.3      5.796      8.164
REMARK  Name = 
REMARK  6 active torsions:
REMARK  status: ('A' for Active; 'I' for Inactive)
REMARK    1  A    between atoms: C_1  and  C_2
REMARK    2  A    between atoms: N_8  and  N_9
REMARK    3  A    between atoms: N_9  and  C_10
REMARK    4  A    between atoms: C_13  and  S_14
REMARK    5  A    between atoms: S_14  and  N_15
REMARK    6  A    between atoms: C_19  and  N_20
REMARK                            x       y       z     vdW  Elec       q    Type
REMARK                         _______ _______ _______ _____ _____    ______ ____
ROOT
ATOM      1  C   UNL     1       5.528   4.189  17.427  0.00  0.00    +0.000 A 
ATOM      2  C   UNL     1       4.269   3.607  17.161  0.00  0.00    +0.000 A 
ATOM      3  C   UNL     1       3.221   3.659  18.072  0.00  0.00    +0.000 A 
ATOM      4  C   UNL     1       3.413   4.300  19.293  0.00  0.00    +0.000 A 
ATOM      5  C   UNL     1       4.630   4.909  19.597  0.00  0.00    +0.000 A 
ATOM      6  C   UNL     1       5.684   4.856  18.666  0.00  0.00    +0.000 A 
ENDROOT
BRANCH   4   7
ATOM      7  S   UNL     1       2.066   4.335  20.433  0.00  0.00    +0.000 S 
ATOM      8  O   UNL     1       0.846   4.043  19.740  0.00  0.00    +0.000 OA
ATOM      9  O   UNL     1       2.461   3.641  21.647  0.00  0.00    +0.000 OA
BRANCH   7  10
ATOM     10  N   UNL     1       2.034   5.961  20.821  0.00  0.00    +0.000 NA
ATOM     11  H   UNL     1       2.064   6.084  21.835  0.00  0.00    +0.000 HD
ATOM     12  H   UNL     1       2.747   6.473  20.308  0.00  0.00    +0.000 HD
ENDBRANCH   7  10
ENDBRANCH   4   7
BRANCH   6  13
ATOM     13  N   UNL     1       6.898   5.591  19.040  0.00  0.00    +0.000 N 
ATOM     14  O   UNL     1       7.350   5.413  20.180  0.00  0.00    +0.000 OA
ATOM     15  O   UNL     1       7.337   6.434  18.231  0.00  0.00    +0.000 OA
ENDBRANCH   6  13
BRANCH   1  16
ATOM     16  N   UNL     1       6.537   4.063  16.429  0.00  0.00    +0.000 N 
ATOM     17  H   UNL     1       7.442   3.821  16.851  0.00  0.00    +0.000 HD
BRANCH  16  25
ATOM     18  C   UNL     1       4.586   3.847  12.336  0.00  0.00    +0.000 C 
ATOM     19  C   UNL     1       5.869   3.219  12.880  0.00  0.00    +0.000 C 
ATOM     20  C   UNL     1       6.993   3.225  11.837  0.00  0.00    +0.000 C 
ATOM     21  C   UNL     1       7.508   4.633  11.540  0.00  0.00    +0.000 C 
ATOM     22  C   UNL     1       7.987   5.313  12.820  0.00  0.00    +0.000 C 
ATOM     23  C   UNL     1       6.905   5.361  13.896  0.00  0.00    +0.000 C 
ATOM     24  C   UNL     1       6.339   3.967  14.132  0.00  0.00    +0.000 C 
ATOM     25  N   UNL     1       6.183   3.386  15.286  0.00  0.00    +0.000 NA
ENDBRANCH  16  25
ENDBRANCH   1  16
TORSDOF 5
ENDMDL
MODEL 8
REMARK VINA RESULT:      -7.2      4.613      7.514
REMARK  Name = 
REMARK  6 active torsions:
REMARK  status: ('A' for Active; 'I' for Inactive)
REMARK    1  A    between atoms: C_1  and  C_2
REMARK    2  A    between atoms: N_8  and  N_9
REMARK    3  A    between atoms: N_9  and  C_10
REMARK    4  A    between atoms: C_13  and  S_14
REMARK    5  A    between atoms: S_14  and  N_15
REMARK    6  A    between atoms: C_19  and  N_20
REMARK                            x       y       z     vdW  Elec       q    Type
REMARK                         _______ _______ _______ _____ _____    ______ ____
ROOT
ATOM      1  C   UNL     1       3.119   6.352  19.111  0.00  0.00    +0.000 A 
ATOM      2  C   UNL     1       3.767   7.072  18.085  0.00  0.00    +0.000 A 
ATOM      3  C   UNL     1       4.890   6.579  17.429  0.00  0.00    +0.000 A 
ATOM      4  C   UNL     1       5.400   5.337  17.796  0.00  0.00    +0.000 A 
ATOM      5  C   UNL     1       4.785   4.577  18.790  0.00  0.00    +0.000 A 
ATOM      6  C   UNL     1       3.646   5.081  19.445  0.00  0.00    +0.000 A 
ENDROOT
BRANCH   4   7
ATOM      7  S   UNL     1       6.835   4.748  16.953  0.00  0.00    +0.000 S 
ATOM      8  O   UNL     1       7.828   4.363  17.912  0.00  0.00    +0.000 OA
ATOM      9  O   UNL     1       6.417   3.877  15.868  0.00  0.00    +0.000 OA
BRANCH   7  10
ATOM     10  N   UNL     1       7.369   6.159  16.232  0.00  0.00    +0.000 NA
ATOM     11  H   UNL     1       7.726   6.805  16.938  0.00  0.00    +0.000 HD
ATOM     12  H   UNL     1       8.014   5.959  15.471  0.00  0.00    +0.000 HD
ENDBRANCH   7  10
ENDBRANCH   4   7
BRANCH   6  13
ATOM     13  N   UNL     1       3.023   4.177  20.419  0.00  0.00    +0.000 N 
ATOM     14  O   UNL     1       2.341   4.685  21.320  0.00  0.00    +0.000 OA
ATOM     15  O   UNL     1       3.307   2.964  20.348  0.00  0.00    +0.000 OA
ENDBRANCH   6  13
BRANCH   1  16
ATOM     16  N   UNL     1       1.986   6.957  19.727  0.00  0.00    +0.000 N 
ATOM     17  H   UNL     1       1.906   6.671  20.711  0.00  0.00    +0.000 HD
BRANCH  16  25
ATOM     18  C   UNL     1      -0.716  10.551  19.102  0.00  0.00    +0.000 C 
ATOM     19  C   UNL     1       0.648  10.417  19.777  0.00  0.00    +0.000 C 
ATOM     20  C   UNL     1       0.751  11.290  21.033  0.00  0.00    +0.000 C 
ATOM     21  C   UNL     1      -0.142  10.790  22.168  0.00  0.00    +0.000 C 
ATOM     22  C   UNL     1       0.190   9.341  22.517  0.00  0.00    +0.000 C 
ATOM     23  C   UNL     1       0.085   8.411  21.311  0.00  0.00    +0.000 C 
ATOM     24  C   UNL     1       0.913   8.955  20.156  0.00  0.00    +0.000 C 
ATOM     25  N   UNL     1       1.779   8.288  19.448  0.00  0.00    +0.000 NA
ENDBRANCH  16  25
ENDBRANCH   1  16
TORSDOF 5
ENDMDL
MODEL 9
REMARK VINA RESULT:      -7.2      5.936      8.192
REMARK  Name = 
REMARK  6 active torsions:
REMARK  status: ('A' for Active; 'I' for Inactive)
REMARK    1  A    between atoms: C_1  and  C_2
REMARK    2  A    between atoms: N_8  and  N_9
REMARK    3  A    between atoms: N_9  and  C_10
REMARK    4  A    between atoms: C_13  and  S_14
REMARK    5  A    between atoms: S_14  and  N_15
REMARK    6  A    between atoms: C_19  and  N_20
REMARK                            x       y       z     vdW  Elec       q    Type
REMARK                         _______ _______ _______ _____ _____    ______ ____
ROOT
ATOM      1  C   UNL     1       5.253   4.062  17.420  0.00  0.00    +0.000 A 
ATOM      2  C   UNL     1       4.045   3.382  17.150  0.00  0.00    +0.000 A 
ATOM      3  C   UNL     1       2.976   3.387  18.039  0.00  0.00    +0.000 A 
ATOM      4  C   UNL     1       3.096   4.079  19.241  0.00  0.00    +0.000 A 
ATOM      5  C   UNL     1       4.260   4.783  19.548  0.00  0.00    +0.000 A 
ATOM      6  C   UNL     1       5.335   4.777  18.639  0.00  0.00    +0.000 A 
ENDROOT
BRANCH   4   7
ATOM      7  S   UNL     1       1.726   4.052  20.354  0.00  0.00    +0.000 S 
ATOM      8  O   UNL     1       1.426   5.389  20.773  0.00  0.00    +0.000 OA
ATOM      9  O   UNL     1       0.714   3.152  19.830  0.00  0.00    +0.000 OA
BRANCH   7  10
ATOM     10  N   UNL     1       2.409   3.267  21.664  0.00  0.00    +0.000 NA
ATOM     11  H   UNL     1       1.679   2.923  22.289  0.00  0.00    +0.000 HD
ATOM     12  H   UNL     1       3.078   2.564  21.360  0.00  0.00    +0.000 HD
ENDBRANCH   7  10
ENDBRANCH   4   7
BRANCH   6  13
ATOM     13  N   UNL     1       6.485   5.609  19.012  0.00  0.00    +0.000 N 
ATOM     14  O   UNL     1       6.874   6.452  18.192  0.00  0.00    +0.000 OA
ATOM     15  O   UNL     1       7.070   5.342  20.081  0.00  0.00    +0.000 OA
ENDBRANCH   6  13
BRANCH   1  16
ATOM     16  N   UNL     1       6.289   3.977  16.447  0.00  0.00    +0.000 N 
ATOM     17  H   UNL     1       7.187   3.740  16.886  0.00  0.00    +0.000 HD
BRANCH  16  25
ATOM     18  C   UNL     1       4.539   3.856  12.260  0.00  0.00    +0.000 C 
ATOM     19  C   UNL     1       5.778   3.192  12.858  0.00  0.00    +0.000 C 
ATOM     20  C   UNL     1       6.952   3.184  11.872  0.00  0.00    +0.000 C 
ATOM     21  C   UNL     1       7.513   4.582  11.619  0.00  0.00    +0.000 C 
ATOM     22  C   UNL     1       7.944   5.236  12.930  0.00  0.00    +0.000 C 
ATOM     23  C   UNL     1       6.812   5.296  13.952  0.00  0.00    +0.000 C 
ATOM     24  C   UNL     1       6.203   3.914  14.141  0.00  0.00    +0.000 C 
ATOM     25  N   UNL     1       5.977   3.322  15.279  0.00  0.00    +0.000 NA
ENDBRANCH  16  25
ENDBRANCH   1  16
TORSDOF 5
ENDMDL
