MODEL 1
REMARK VINA RESULT:      -6.9      0.000      0.000
REMARK  Name = 
REMARK  5 active torsions:
REMARK  status: ('A' for Active; 'I' for Inactive)
REMARK    1  A    between atoms: C_1  and  O_2
REMARK    2  A    between atoms: O_2  and  C_3
REMARK    3  A    between atoms: C_9  and  C_10
REMARK    4  A    between atoms: C_19  and  C_20
REMARK    5  A    between atoms: C_22  and  C_23
REMARK                            x       y       z     vdW  Elec       q    Type
REMARK                         _______ _______ _______ _____ _____    ______ ____
ROOT
ATOM      1  C   UNL     1      -2.093  12.215  22.661  0.00  0.00    +0.000 C 
ATOM      2  O   UNL     1      -1.849  11.222  23.342  0.00  0.00    +0.000 OA
ATOM      3  N   UNL     1      -3.190  13.052  22.937  0.00  0.00    +0.000 N 
ATOM      4  C   UNL     1      -3.610  14.241  22.225  0.00  0.00    +0.000 C 
ATOM      5  C   UNL     1      -5.018  14.580  22.690  0.00  0.00    +0.000 C 
ATOM      6  C   UNL     1      -6.046  14.371  21.590  0.00  0.00    +0.000 C 
ATOM      7  N   UNL     1      -6.607  13.065  21.849  0.00  0.00    +0.000 N 
ATOM      8  C   UNL     1      -6.547  12.072  20.896  0.00  0.00    +0.000 A 
ATOM      9  N   UNL     1      -5.949  12.324  19.718  0.00  0.00    +0.000 NA
ATOM     10  C   UNL     1      -5.942  11.348  18.788  0.00  0.00    +0.000 A 
ATOM     11  C   UNL     1      -5.228  11.624  17.501  0.00  0.00    +0.000 C 
ATOM     12  C   UNL     1      -6.557  10.134  18.983  0.00  0.00    +0.000 A 
ATOM     13  C   UNL     1      -7.167   9.954  20.217  0.00  0.00    +0.000 A 
ATOM     14  C   UNL     1      -7.916   8.696  20.524  0.00  0.00    +0.000 C 
ATOM     15  N   UNL     1      -7.152  10.905  21.169  0.00  0.00    +0.000 NA
ATOM     16  C   UNL     1      -6.438  12.667  23.237  0.00  0.00    +0.000 C 
ATOM     17  C   UNL     1      -5.345  13.579  23.806  0.00  0.00    +0.000 C 
ATOM     18  C   UNL     1      -4.020  12.873  24.115  0.00  0.00    +0.000 C 
ENDROOT
BRANCH   1  25
ATOM     19  C   UNL     1      -0.040  13.406  21.643  0.00  0.00    +0.000 A 
ATOM     20  C   UNL     1       0.853  13.518  20.556  0.00  0.00    +0.000 A 
ATOM     21  C   UNL     1       0.585  12.888  19.344  0.00  0.00    +0.000 A 
ATOM     22 CL   UNL     1       1.706  13.000  18.047  0.00  0.00    +0.000 Cl
ATOM     23  C   UNL     1      -0.599  12.194  19.171  0.00  0.00    +0.000 A 
ATOM     24  C   UNL     1      -1.490  12.090  20.238  0.00  0.00    +0.000 A 
ATOM     25  C   UNL     1      -1.175  12.579  21.517  0.00  0.00    +0.000 A 
BRANCH  19  27
ATOM     26  C   UNL     1      -0.146  15.470  22.793  0.00  0.00    +0.000 C 
ATOM     27  O   UNL     1       0.199  14.079  22.817  0.00  0.00    +0.000 OA
ENDBRANCH  19  27
ENDBRANCH   1  25
TORSDOF 2
ENDMDL
MODEL 2
REMARK VINA RESULT:      -6.6      1.166      1.960
REMARK  Name = 
REMARK  5 active torsions:
REMARK  status: ('A' for Active; 'I' for Inactive)
REMARK    1  A    between atoms: C_1  and  O_2
REMARK    2  A    between atoms: O_2  and  C_3
REMARK    3  A    between atoms: C_9  and  C_10
REMARK    4  A    between atoms: C_19  and  C_20
REMARK    5  A    between atoms: C_22  and  C_23
REMARK                            x       y       z     vdW  Elec       q    Type
REMARK                         _______ _______ _______ _____ _____    ______ ____
ROOT
ATOM      1  C   UNL     1      -2.425  12.511  22.861  0.00  0.00    +0.000 C 
ATOM      2  O   UNL     1      -2.059  11.485  23.430  0.00  0.00    +0.000 OA
ATOM      3  N   UNL     1      -3.622  13.164  23.209  0.00  0.00    +0.000 N 
ATOM      4  C   UNL     1      -4.188  14.364  22.627  0.00  0.00    +0.000 C 
ATOM      5  C   UNL     1      -5.629  14.466  23.101  0.00  0.00    +0.000 C 
ATOM      6  C   UNL     1      -6.617  14.256  21.965  0.00  0.00    +0.000 C 
ATOM      7  N   UNL     1      -7.008  12.869  22.064  0.00  0.00    +0.000 N 
ATOM      8  C   UNL     1      -6.816  12.007  21.006  0.00  0.00    +0.000 A 
ATOM      9  N   UNL     1      -6.251  12.465  19.876  0.00  0.00    +0.000 NA
ATOM     10  C   UNL     1      -6.114  11.611  18.842  0.00  0.00    +0.000 A 
ATOM     11  C   UNL     1      -5.436  12.121  17.608  0.00  0.00    +0.000 C 
ATOM     12  C   UNL     1      -6.570  10.315  18.887  0.00  0.00    +0.000 A 
ATOM     13  C   UNL     1      -7.157   9.919  20.081  0.00  0.00    +0.000 A 
ATOM     14  C   UNL     1      -7.741   8.549  20.230  0.00  0.00    +0.000 C 
ATOM     15  N   UNL     1      -7.268  10.749  21.134  0.00  0.00    +0.000 NA
ATOM     16  C   UNL     1      -6.795  12.338  23.401  0.00  0.00    +0.000 C 
ATOM     17  C   UNL     1      -5.830  13.311  24.090  0.00  0.00    +0.000 C 
ATOM     18  C   UNL     1      -4.427  12.747  24.343  0.00  0.00    +0.000 C 
ENDROOT
BRANCH   1  25
ATOM     19  C   UNL     1      -1.723  12.881  20.404  0.00  0.00    +0.000 A 
ATOM     20  C   UNL     1      -0.984  13.650  19.480  0.00  0.00    +0.000 A 
ATOM     21  C   UNL     1      -0.041  14.577  19.916  0.00  0.00    +0.000 A 
ATOM     22 CL   UNL     1       0.818  15.535  18.778  0.00  0.00    +0.000 Cl
ATOM     23  C   UNL     1       0.228  14.708  21.267  0.00  0.00    +0.000 A 
ATOM     24  C   UNL     1      -0.492  13.942  22.182  0.00  0.00    +0.000 A 
ATOM     25  C   UNL     1      -1.556  13.116  21.783  0.00  0.00    +0.000 A 
BRANCH  19  27
ATOM     26  C   UNL     1      -2.209  11.236  18.776  0.00  0.00    +0.000 C 
ATOM     27  O   UNL     1      -2.609  11.925  19.967  0.00  0.00    +0.000 OA
ENDBRANCH  19  27
ENDBRANCH   1  25
TORSDOF 2
ENDMDL
MODEL 3
REMARK VINA RESULT:      -6.2      1.149      1.925
REMARK  Name = 
REMARK  5 active torsions:
REMARK  status: ('A' for Active; 'I' for Inactive)
REMARK    1  A    between atoms: C_1  and  O_2
REMARK    2  A    between atoms: O_2  and  C_3
REMARK    3  A    between atoms: C_9  and  C_10
REMARK    4  A    between atoms: C_19  and  C_20
REMARK    5  A    between atoms: C_22  and  C_23
REMARK                            x       y       z     vdW  Elec       q    Type
REMARK                         _______ _______ _______ _____ _____    ______ ____
ROOT
ATOM      1  C   UNL     1      -1.668  11.865  22.692  0.00  0.00    +0.000 C 
ATOM      2  O   UNL     1      -1.590  10.852  23.383  0.00  0.00    +0.000 OA
ATOM      3  N   UNL     1      -2.663  12.835  22.910  0.00  0.00    +0.000 N 
ATOM      4  C   UNL     1      -2.889  14.065  22.179  0.00  0.00    +0.000 C 
ATOM      5  C   UNL     1      -4.266  14.582  22.566  0.00  0.00    +0.000 C 
ATOM      6  C   UNL     1      -5.249  14.500  21.410  0.00  0.00    +0.000 C 
ATOM      7  N   UNL     1      -5.985  13.278  21.633  0.00  0.00    +0.000 N 
ATOM      8  C   UNL     1      -5.999  12.281  20.682  0.00  0.00    +0.000 A 
ATOM      9  N   UNL     1      -5.310  12.450  19.540  0.00  0.00    +0.000 NA
ATOM     10  C   UNL     1      -5.375  11.477  18.609  0.00  0.00    +0.000 A 
ATOM     11  C   UNL     1      -4.562  11.655  17.364  0.00  0.00    +0.000 C 
ATOM     12  C   UNL     1      -6.149  10.352  18.766  0.00  0.00    +0.000 A 
ATOM     13  C   UNL     1      -6.845  10.256  19.963  0.00  0.00    +0.000 A 
ATOM     14  C   UNL     1      -7.764   9.105  20.225  0.00  0.00    +0.000 C 
ATOM     15  N   UNL     1      -6.762  11.202  20.918  0.00  0.00    +0.000 NA
ATOM     16  C   UNL     1      -5.946  12.867  23.028  0.00  0.00    +0.000 C 
ATOM     17  C   UNL     1      -4.778  13.635  23.659  0.00  0.00    +0.000 C 
ATOM     18  C   UNL     1      -3.573  12.767  24.040  0.00  0.00    +0.000 C 
ENDROOT
BRANCH   1  25
ATOM     19  C   UNL     1      -0.311  11.161  20.611  0.00  0.00    +0.000 A 
ATOM     20  C   UNL     1       0.504  11.561  19.530  0.00  0.00    +0.000 A 
ATOM     21  C   UNL     1       1.038  12.845  19.476  0.00  0.00    +0.000 A 
ATOM     22 CL   UNL     1       1.993  13.328  18.132  0.00  0.00    +0.000 Cl
ATOM     23  C   UNL     1       0.827  13.728  20.521  0.00  0.00    +0.000 A 
ATOM     24  C   UNL     1       0.031  13.334  21.595  0.00  0.00    +0.000 A 
ATOM     25  C   UNL     1      -0.649  12.104  21.603  0.00  0.00    +0.000 A 
BRANCH  19  27
ATOM     26  C   UNL     1       0.178   8.903  21.114  0.00  0.00    +0.000 C 
ATOM     27  O   UNL     1      -0.786   9.874  20.689  0.00  0.00    +0.000 OA
ENDBRANCH  19  27
ENDBRANCH   1  25
TORSDOF 2
ENDMDL
MODEL 4
REMARK VINA RESULT:      -6.1      3.782      7.196
REMARK  Name = 
REMARK  5 active torsions:
REMARK  status: ('A' for Active; 'I' for Inactive)
REMARK    1  A    between atoms: C_1  and  O_2
REMARK    2  A    between atoms: O_2  and  C_3
REMARK    3  A    between atoms: C_9  and  C_10
REMARK    4  A    between atoms: C_19  and  C_20
REMARK    5  A    between atoms: C_22  and  C_23
REMARK                            x       y       z     vdW  Elec       q    Type
REMARK                         _______ _______ _______ _____ _____    ______ ____
ROOT
ATOM      1  C   UNL     1      -1.159  11.739  22.635  0.00  0.00    +0.000 C 
ATOM      2  O   UNL     1      -0.417  11.147  23.415  0.00  0.00    +0.000 OA
ATOM      3  N   UNL     1      -1.121  11.496  21.249  0.00  0.00    +0.000 N 
ATOM      4  C   UNL     1      -1.917  12.117  20.211  0.00  0.00    +0.000 C 
ATOM      5  C   UNL     1      -1.274  11.776  18.875  0.00  0.00    +0.000 C 
ATOM      6  C   UNL     1      -0.666  13.000  18.209  0.00  0.00    +0.000 C 
ATOM      7  N   UNL     1       0.737  12.950  18.548  0.00  0.00    +0.000 N 
ATOM      8  C   UNL     1       1.337  13.993  19.220  0.00  0.00    +0.000 A 
ATOM      9  N   UNL     1       0.601  15.062  19.569  0.00  0.00    +0.000 NA
ATOM     10  C   UNL     1       1.222  16.087  20.187  0.00  0.00    +0.000 A 
ATOM     11  C   UNL     1       0.380  17.249  20.615  0.00  0.00    +0.000 C 
ATOM     12  C   UNL     1       2.575  16.095  20.428  0.00  0.00    +0.000 A 
ATOM     13  C   UNL     1       3.271  14.964  20.025  0.00  0.00    +0.000 A 
ATOM     14  C   UNL     1       4.756  14.881  20.184  0.00  0.00    +0.000 C 
ATOM     15  N   UNL     1       2.659  13.917  19.439  0.00  0.00    +0.000 NA
ATOM     16  C   UNL     1       1.165  11.603  18.893  0.00  0.00    +0.000 C 
ATOM     17  C   UNL     1      -0.118  10.820  19.197  0.00  0.00    +0.000 C 
ATOM     18  C   UNL     1      -0.303  10.444  20.672  0.00  0.00    +0.000 C 
ENDROOT
BRANCH   1  25
ATOM     19  C   UNL     1      -1.891  14.084  23.429  0.00  0.00    +0.000 A 
ATOM     20  C   UNL     1      -2.956  14.957  23.737  0.00  0.00    +0.000 A 
ATOM     21  C   UNL     1      -4.257  14.479  23.866  0.00  0.00    +0.000 A 
ATOM     22 CL   UNL     1      -5.547  15.564  24.200  0.00  0.00    +0.000 Cl
ATOM     23  C   UNL     1      -4.511  13.123  23.755  0.00  0.00    +0.000 A 
ATOM     24  C   UNL     1      -3.461  12.256  23.461  0.00  0.00    +0.000 A 
ATOM     25  C   UNL     1      -2.169  12.727  23.170  0.00  0.00    +0.000 A 
BRANCH  19  27
ATOM     26  C   UNL     1      -0.416  15.878  23.871  0.00  0.00    +0.000 C 
ATOM     27  O   UNL     1      -0.601  14.551  23.362  0.00  0.00    +0.000 OA
ENDBRANCH  19  27
ENDBRANCH   1  25
TORSDOF 2
ENDMDL
MODEL 5
REMARK VINA RESULT:      -6.0      1.811      2.485
REMARK  Name = 
REMARK  5 active torsions:
REMARK  status: ('A' for Active; 'I' for Inactive)
REMARK    1  A    between atoms: C_1  and  O_2
REMARK    2  A    between atoms: O_2  and  C_3
REMARK    3  A    between atoms: C_9  and  C_10
REMARK    4  A    between atoms: C_19  and  C_20
REMARK    5  A    between atoms: C_22  and  C_23
REMARK                            x       y       z     vdW  Elec       q    Type
REMARK                         _______ _______ _______ _____ _____    ______ ____
ROOT
ATOM      1  C   UNL     1      -0.806  12.379  22.436  0.00  0.00    +0.000 C 
ATOM      2  O   UNL     1      -0.807  11.684  23.449  0.00  0.00    +0.000 OA
ATOM      3  N   UNL     1      -1.332  13.684  22.433  0.00  0.00    +0.000 N 
ATOM      4  C   UNL     1      -1.411  14.614  21.326  0.00  0.00    +0.000 C 
ATOM      5  C   UNL     1      -2.356  15.734  21.735  0.00  0.00    +0.000 C 
ATOM      6  C   UNL     1      -3.647  15.709  20.933  0.00  0.00    +0.000 C 
ATOM      7  N   UNL     1      -4.595  15.018  21.775  0.00  0.00    +0.000 N 
ATOM      8  C   UNL     1      -5.224  13.874  21.336  0.00  0.00    +0.000 A 
ATOM      9  N   UNL     1      -4.942  13.395  20.112  0.00  0.00    +0.000 NA
ATOM     10  C   UNL     1      -5.603  12.298  19.691  0.00  0.00    +0.000 A 
ATOM     11  C   UNL     1      -5.242  11.746  18.347  0.00  0.00    +0.000 C 
ATOM     12  C   UNL     1      -6.579  11.688  20.443  0.00  0.00    +0.000 A 
ATOM     13  C   UNL     1      -6.827  12.249  21.687  0.00  0.00    +0.000 A 
ATOM     14  C   UNL     1      -7.904  11.706  22.571  0.00  0.00    +0.000 C 
ATOM     15  N   UNL     1      -6.149  13.322  22.137  0.00  0.00    +0.000 NA
ATOM     16  C   UNL     1      -4.215  15.071  23.178  0.00  0.00    +0.000 C 
ATOM     17  C   UNL     1      -2.730  15.456  23.196  0.00  0.00    +0.000 C 
ATOM     18  C   UNL     1      -1.785  14.336  23.649  0.00  0.00    +0.000 C 
ENDROOT
BRANCH   1  25
ATOM     19  C   UNL     1       1.069  12.235  20.667  0.00  0.00    +0.000 A 
ATOM     20  C   UNL     1       1.631  11.528  19.583  0.00  0.00    +0.000 A 
ATOM     21  C   UNL     1       0.924  10.507  18.953  0.00  0.00    +0.000 A 
ATOM     22 CL   UNL     1       1.640   9.629  17.662  0.00  0.00    +0.000 Cl
ATOM     23  C   UNL     1      -0.371  10.218  19.346  0.00  0.00    +0.000 A 
ATOM     24  C   UNL     1      -0.933  10.921  20.410  0.00  0.00    +0.000 A 
ATOM     25  C   UNL     1      -0.190  11.844  21.165  0.00  0.00    +0.000 A 
BRANCH  19  27
ATOM     26  C   UNL     1       2.873  13.755  20.495  0.00  0.00    +0.000 C 
ATOM     27  O   UNL     1       1.748  13.282  21.245  0.00  0.00    +0.000 OA
ENDBRANCH  19  27
ENDBRANCH   1  25
TORSDOF 2
ENDMDL
MODEL 6
REMARK VINA RESULT:      -5.9      3.378      6.771
REMARK  Name = 
REMARK  5 active torsions:
REMARK  status: ('A' for Active; 'I' for Inactive)
REMARK    1  A    between atoms: C_1  and  O_2
REMARK    2  A    between atoms: O_2  and  C_3
REMARK    3  A    between atoms: C_9  and  C_10
REMARK    4  A    between atoms: C_19  and  C_20
REMARK    5  A    between atoms: C_22  and  C_23
REMARK                            x       y       z     vdW  Elec       q    Type
REMARK                         _______ _______ _______ _____ _____    ______ ____
ROOT
ATOM      1  C   UNL     1      -5.565  10.781  18.754  0.00  0.00    +0.000 C 
ATOM      2  O   UNL     1      -6.061   9.739  19.177  0.00  0.00    +0.000 OA
ATOM      3  N   UNL     1      -4.380  10.783  17.996  0.00  0.00    +0.000 N 
ATOM      4  C   UNL     1      -3.674  11.920  17.442  0.00  0.00    +0.000 C 
ATOM      5  C   UNL     1      -2.295  11.440  17.017  0.00  0.00    +0.000 C 
ATOM      6  C   UNL     1      -1.195  12.030  17.884  0.00  0.00    +0.000 C 
ATOM      7  N   UNL     1      -0.908  11.010  18.865  0.00  0.00    +0.000 N 
ATOM      8  C   UNL     1      -1.027  11.276  20.212  0.00  0.00    +0.000 A 
ATOM      9  N   UNL     1      -1.424  12.497  20.610  0.00  0.00    +0.000 NA
ATOM     10  C   UNL     1      -1.491  12.742  21.935  0.00  0.00    +0.000 A 
ATOM     11  C   UNL     1      -1.984  14.089  22.364  0.00  0.00    +0.000 C 
ATOM     12  C   UNL     1      -1.127  11.812  22.879  0.00  0.00    +0.000 A 
ATOM     13  C   UNL     1      -0.712  10.581  22.391  0.00  0.00    +0.000 A 
ATOM     14  C   UNL     1      -0.238   9.509  23.321  0.00  0.00    +0.000 C 
ATOM     15  N   UNL     1      -0.674  10.309  21.074  0.00  0.00    +0.000 NA
ATOM     16  C   UNL     1      -1.310   9.689  18.409  0.00  0.00    +0.000 C 
ATOM     17  C   UNL     1      -2.287   9.924  17.250  0.00  0.00    +0.000 C 
ATOM     18  C   UNL     1      -3.743   9.555  17.556  0.00  0.00    +0.000 C 
ENDROOT
BRANCH   1  25
ATOM     19  C   UNL     1      -6.283  12.748  20.264  0.00  0.00    +0.000 A 
ATOM     20  C   UNL     1      -6.790  14.063  20.346  0.00  0.00    +0.000 A 
ATOM     21  C   UNL     1      -7.337  14.688  19.229  0.00  0.00    +0.000 A 
ATOM     22 CL   UNL     1      -7.910  16.304  19.338  0.00  0.00    +0.000 Cl
ATOM     23  C   UNL     1      -7.448  13.998  18.035  0.00  0.00    +0.000 A 
ATOM     24  C   UNL     1      -6.958  12.696  17.952  0.00  0.00    +0.000 A 
ATOM     25  C   UNL     1      -6.260  12.097  19.015  0.00  0.00    +0.000 A 
BRANCH  19  27
ATOM     26  C   UNL     1      -5.474  12.986  22.473  0.00  0.00    +0.000 C 
ATOM     27  O   UNL     1      -5.800  12.114  21.384  0.00  0.00    +0.000 OA
ENDBRANCH  19  27
ENDBRANCH   1  25
TORSDOF 2
ENDMDL
MODEL 7
REMARK VINA RESULT:      -5.9      0.993      1.046
REMARK  Name = 
REMARK  5 active torsions:
REMARK  status: ('A' for Active; 'I' for Inactive)
REMARK    1  A    between atoms: C_1  and  O_2
REMARK    2  A    between atoms: O_2  and  C_3
REMARK    3  A    between atoms: C_9  and  C_10
REMARK    4  A    between atoms: C_19  and  C_20
REMARK    5  A    between atoms: C_22  and  C_23
REMARK                            x       y       z     vdW  Elec       q    Type
REMARK                         _______ _______ _______ _____ _____    ______ ____
ROOT
ATOM      1  C   UNL     1      -2.853  13.231  22.715  0.00  0.00    +0.000 C 
ATOM      2  O   UNL     1      -2.553  12.395  23.563  0.00  0.00    +0.000 OA
ATOM      3  N   UNL     1      -4.072  13.932  22.763  0.00  0.00    +0.000 N 
ATOM      4  C   UNL     1      -4.567  14.930  21.838  0.00  0.00    +0.000 C 
ATOM      5  C   UNL     1      -6.048  15.127  22.126  0.00  0.00    +0.000 C 
ATOM      6  C   UNL     1      -6.921  14.612  20.993  0.00  0.00    +0.000 C 
ATOM      7  N   UNL     1      -7.331  13.291  21.410  0.00  0.00    +0.000 N 
ATOM      8  C   UNL     1      -7.043  12.188  20.636  0.00  0.00    +0.000 A 
ATOM      9  N   UNL     1      -6.365  12.348  19.486  0.00  0.00    +0.000 NA
ATOM     10  C   UNL     1      -6.135  11.258  18.727  0.00  0.00    +0.000 A 
ATOM     11  C   UNL     1      -5.334  11.442  17.476  0.00  0.00    +0.000 C 
ATOM     12  C   UNL     1      -6.604  10.010  19.063  0.00  0.00    +0.000 A 
ATOM     13  C   UNL     1      -7.309   9.926  20.255  0.00  0.00    +0.000 A 
ATOM     14  C   UNL     1      -7.917   8.632  20.697  0.00  0.00    +0.000 C 
ATOM     15  N   UNL     1      -7.516  10.999  21.041  0.00  0.00    +0.000 NA
ATOM     16  C   UNL     1      -7.256  13.129  22.853  0.00  0.00    +0.000 C 
ATOM     17  C   UNL     1      -6.355  14.264  23.357  0.00  0.00    +0.000 C 
ATOM     18  C   UNL     1      -4.989  13.809  23.883  0.00  0.00    +0.000 C 
ENDROOT
BRANCH   1  25
ATOM     19  C   UNL     1      -0.961  14.623  21.641  0.00  0.00    +0.000 A 
ATOM     20  C   UNL     1       0.034  14.711  20.645  0.00  0.00    +0.000 A 
ATOM     21  C   UNL     1       0.071  13.801  19.592  0.00  0.00    +0.000 A 
ATOM     22 CL   UNL     1       1.316  13.897  18.411  0.00  0.00    +0.000 Cl
ATOM     23  C   UNL     1      -0.913  12.835  19.476  0.00  0.00    +0.000 A 
ATOM     24  C   UNL     1      -1.904  12.752  20.452  0.00  0.00    +0.000 A 
ATOM     25  C   UNL     1      -1.876  13.552  21.607  0.00  0.00    +0.000 A 
BRANCH  19  27
ATOM     26  C   UNL     1       0.215  16.202  22.951  0.00  0.00    +0.000 C 
ATOM     27  O   UNL     1      -1.029  15.560  22.645  0.00  0.00    +0.000 OA
ENDBRANCH  19  27
ENDBRANCH   1  25
TORSDOF 2
ENDMDL
MODEL 8
REMARK VINA RESULT:      -5.9      3.106      6.339
REMARK  Name = 
REMARK  5 active torsions:
REMARK  status: ('A' for Active; 'I' for Inactive)
REMARK    1  A    between atoms: C_1  and  O_2
REMARK    2  A    between atoms: O_2  and  C_3
REMARK    3  A    between atoms: C_9  and  C_10
REMARK    4  A    between atoms: C_19  and  C_20
REMARK    5  A    between atoms: C_22  and  C_23
REMARK                            x       y       z     vdW  Elec       q    Type
REMARK                         _______ _______ _______ _____ _____    ______ ____
ROOT
ATOM      1  C   UNL     1      -5.840  13.959  21.352  0.00  0.00    +0.000 C 
ATOM      2  O   UNL     1      -6.246  15.006  20.852  0.00  0.00    +0.000 OA
ATOM      3  N   UNL     1      -4.872  13.953  22.373  0.00  0.00    +0.000 N 
ATOM      4  C   UNL     1      -4.291  12.811  23.049  0.00  0.00    +0.000 C 
ATOM      5  C   UNL     1      -3.068  13.301  23.809  0.00  0.00    +0.000 C 
ATOM      6  C   UNL     1      -1.777  12.762  23.217  0.00  0.00    +0.000 C 
ATOM      7  N   UNL     1      -1.288  13.820  22.364  0.00  0.00    +0.000 N 
ATOM      8  C   UNL     1      -1.072  13.598  21.021  0.00  0.00    +0.000 A 
ATOM      9  N   UNL     1      -1.329  12.385  20.504  0.00  0.00    +0.000 NA
ATOM     10  C   UNL     1      -1.069  12.183  19.196  0.00  0.00    +0.000 A 
ATOM     11  C   UNL     1      -1.408  10.843  18.621  0.00  0.00    +0.000 C 
ATOM     12  C   UNL     1      -0.512  13.152  18.395  0.00  0.00    +0.000 A 
ATOM     13  C   UNL     1      -0.259  14.372  19.004  0.00  0.00    +0.000 A 
ATOM     14  C   UNL     1       0.397  15.484  18.247  0.00  0.00    +0.000 C 
ATOM     15  N   UNL     1      -0.547  14.601  20.298  0.00  0.00    +0.000 NA
ATOM     16  C   UNL     1      -1.823  15.117  22.747  0.00  0.00    +0.000 C 
ATOM     17  C   UNL     1      -3.044  14.824  23.628  0.00  0.00    +0.000 C 
ATOM     18  C   UNL     1      -4.392  15.177  22.990  0.00  0.00    +0.000 C 
ENDROOT
BRANCH   1  25
ATOM     19  C   UNL     1      -5.995  11.948  19.740  0.00  0.00    +0.000 A 
ATOM     20  C   UNL     1      -6.462  10.636  19.516  0.00  0.00    +0.000 A 
ATOM     21  C   UNL     1      -7.390  10.052  20.374  0.00  0.00    +0.000 A 
ATOM     22 CL   UNL     1      -7.914   8.437  20.110  0.00  0.00    +0.000 Cl
ATOM     23  C   UNL     1      -7.915  10.782  21.426  0.00  0.00    +0.000 A 
ATOM     24  C   UNL     1      -7.464  12.082  21.645  0.00  0.00    +0.000 A 
ATOM     25  C   UNL     1      -6.417  12.640  20.893  0.00  0.00    +0.000 A 
BRANCH  19  27
ATOM     26  C   UNL     1      -4.969  11.848  17.612  0.00  0.00    +0.000 C 
ATOM     27  O   UNL     1      -5.125  12.541  18.857  0.00  0.00    +0.000 OA
ENDBRANCH  19  27
ENDBRANCH   1  25
TORSDOF 2
ENDMDL
MODEL 9
REMARK VINA RESULT:      -5.8      4.417      7.288
REMARK  Name = 
REMARK  5 active torsions:
REMARK  status: ('A' for Active; 'I' for Inactive)
REMARK    1  A    between atoms: C_1  and  O_2
REMARK    2  A    between atoms: O_2  and  C_3
REMARK    3  A    between atoms: C_9  and  C_10
REMARK    4  A    between atoms: C_19  and  C_20
REMARK    5  A    between atoms: C_22  and  C_23
REMARK                            x       y       z     vdW  Elec       q    Type
REMARK                         _______ _______ _______ _____ _____    ______ ____
ROOT
ATOM      1  C   UNL     1      -0.882  12.215  19.476  0.00  0.00    +0.000 C 
ATOM      2  O   UNL     1      -1.854  12.287  18.728  0.00  0.00    +0.000 OA
ATOM      3  N   UNL     1      -0.713  13.097  20.559  0.00  0.00    +0.000 N 
ATOM      4  C   UNL     1       0.376  13.143  21.513  0.00  0.00    +0.000 C 
ATOM      5  C   UNL     1       0.275  14.465  22.259  0.00  0.00    +0.000 C 
ATOM      6  C   UNL     1       1.423  15.401  21.917  0.00  0.00    +0.000 C 
ATOM      7  N   UNL     1       0.892  16.285  20.906  0.00  0.00    +0.000 N 
ATOM      8  C   UNL     1       1.489  16.376  19.667  0.00  0.00    +0.000 A 
ATOM      9  N   UNL     1       2.570  15.623  19.400  0.00  0.00    +0.000 NA
ATOM     10  C   UNL     1       3.160  15.764  18.195  0.00  0.00    +0.000 A 
ATOM     11  C   UNL     1       4.332  14.882  17.891  0.00  0.00    +0.000 C 
ATOM     12  C   UNL     1       2.725  16.672  17.259  0.00  0.00    +0.000 A 
ATOM     13  C   UNL     1       1.614  17.424  17.614  0.00  0.00    +0.000 A 
ATOM     14  C   UNL     1       1.083  18.484  16.700  0.00  0.00    +0.000 C 
ATOM     15  N   UNL     1       0.993  17.271  18.798  0.00  0.00    +0.000 NA
ATOM     16  C   UNL     1      -0.560  16.354  20.952  0.00  0.00    +0.000 C 
ATOM     17  C   UNL     1      -1.013  15.132  21.760  0.00  0.00    +0.000 C 
ATOM     18  C   UNL     1      -1.734  14.056  20.940  0.00  0.00    +0.000 C 
ENDROOT
BRANCH   1  25
ATOM     19  C   UNL     1       0.208   9.934  20.003  0.00  0.00    +0.000 A 
ATOM     20  C   UNL     1       1.081   8.907  19.586  0.00  0.00    +0.000 A 
ATOM     21  C   UNL     1       1.934   9.092  18.501  0.00  0.00    +0.000 A 
ATOM     22 CL   UNL     1       2.959   7.816  17.981  0.00  0.00    +0.000 Cl
ATOM     23  C   UNL     1       1.979  10.316  17.857  0.00  0.00    +0.000 A 
ATOM     24  C   UNL     1       1.126  11.337  18.272  0.00  0.00    +0.000 A 
ATOM     25  C   UNL     1       0.146  11.129  19.258  0.00  0.00    +0.000 A 
BRANCH  19  27
ATOM     26  C   UNL     1       0.113   9.382  22.301  0.00  0.00    +0.000 C 
ATOM     27  O   UNL     1      -0.587   9.768  21.112  0.00  0.00    +0.000 OA
ENDBRANCH  19  27
ENDBRANCH   1  25
TORSDOF 2
ENDMDL
