MODEL 1
REMARK VINA RESULT:      -8.2      0.000      0.000
REMARK  Name = 
REMARK  4 active torsions:
REMARK  status: ('A' for Active; 'I' for Inactive)
REMARK    1  A    between atoms: C_2  and  C_4
REMARK    2  A    between atoms: N_6  and  C_7
REMARK    3  A    between atoms: C_7  and  C_8
REMARK    4  A    between atoms: C_14  and  C_15
REMARK                            x       y       z     vdW  Elec       q    Type
REMARK                         _______ _______ _______ _____ _____    ______ ____
ROOT
ATOM      1  C   UNL     1       2.187   6.560  19.344  0.00  0.00    +0.000 C 
ATOM      2  O   UNL     1       2.452   7.021  18.230  0.00  0.00    +0.000 OA
ATOM      3  N   UNL     1       1.888   5.208  19.491  0.00  0.00    +0.000 N 
ATOM      4  C   UNL     1       1.316   4.688  20.733  0.00  0.00    +0.000 C 
ATOM      5  C   UNL     1       1.151   3.174  20.667  0.00  0.00    +0.000 C 
ATOM      6  S   UNL     1       1.995   2.644  19.169  0.00  0.00    +0.000 S 
ATOM      7  C   UNL     1       2.845   4.256  18.931  0.00  0.00    +0.000 C 
ENDROOT
BRANCH   7   8
ATOM      8  C   UNL     1       3.467   4.268  17.509  0.00  0.00    +0.000 C 
ATOM      9  O   UNL     1       2.932   3.580  16.634  0.00  0.00    +0.000 OA
ATOM     10  N   UNL     1       4.576   5.068  17.335  0.00  0.00    +0.000 N 
ATOM     11  C   UNL     1       5.401   5.000  16.200  0.00  0.00    +0.000 A 
ATOM     12  C   UNL     1       6.695   5.498  16.311  0.00  0.00    +0.000 A 
ATOM     13  C   UNL     1       7.586   5.304  15.256  0.00  0.00    +0.000 A 
ATOM     14  C   UNL     1       7.154   4.642  14.114  0.00  0.00    +0.000 A 
ATOM     15  C   UNL     1       5.836   4.223  14.067  0.00  0.00    +0.000 A 
ATOM     16 BR   UNL     1       5.210   3.323  12.520  0.00  0.00    +0.000 Br
ATOM     17  N   UNL     1       4.965   4.400  15.079  0.00  0.00    +0.000 NA
ATOM     18  H   UNL     1       5.004   5.425  18.183  0.00  0.00    +0.000 HD
ENDBRANCH   7   8
BRANCH   1  19
ATOM     19  C   UNL     1       2.154   7.463  20.558  0.00  0.00    +0.000 C 
BRANCH  19  22
ATOM     20  C   UNL     1       0.213  10.181  19.415  0.00  0.00    +0.000 A 
ATOM     21  N   UNL     1       1.066   9.164  19.166  0.00  0.00    +0.000 NA
ATOM     22  N   UNL     1       1.254   8.588  20.376  0.00  0.00    +0.000 N 
ATOM     23  C   UNL     1       0.579   9.211  21.388  0.00  0.00    +0.000 A 
ATOM     24  N   UNL     1       0.608   8.877  22.694  0.00  0.00    +0.000 NA
ATOM     25  C   UNL     1      -0.178   9.675  23.453  0.00  0.00    +0.000 A 
ATOM     26  C   UNL     1      -0.945  10.737  22.990  0.00  0.00    +0.000 A 
ATOM     27  C   UNL     1      -0.927  11.046  21.630  0.00  0.00    +0.000 A 
ATOM     28  C   UNL     1      -0.126  10.247  20.795  0.00  0.00    +0.000 A 
BRANCH  20  30
ATOM     29  N   UNL     1      -1.051  10.488  17.410  0.00  0.00    +0.000 N 
ATOM     30  C   UNL     1      -0.255  11.081  18.347  0.00  0.00    +0.000 C 
ATOM     31  O   UNL     1       0.038  12.271  18.281  0.00  0.00    +0.000 OA
ATOM     32  H   UNL     1      -1.447  11.048  16.669  0.00  0.00    +0.000 HD
ATOM     33  H   UNL     1      -1.332   9.522  17.520  0.00  0.00    +0.000 HD
ENDBRANCH  20  30
ENDBRANCH  19  22
ENDBRANCH   1  19
TORSDOF 4
ENDMDL
MODEL 2
REMARK VINA RESULT:      -7.7      4.229      7.081
REMARK  Name = 
REMARK  4 active torsions:
REMARK  status: ('A' for Active; 'I' for Inactive)
REMARK    1  A    between atoms: C_2  and  C_4
REMARK    2  A    between atoms: N_6  and  C_7
REMARK    3  A    between atoms: C_7  and  C_8
REMARK    4  A    between atoms: C_14  and  C_15
REMARK                            x       y       z     vdW  Elec       q    Type
REMARK                         _______ _______ _______ _____ _____    ______ ____
ROOT
ATOM      1  C   UNL     1      -1.357  11.278  18.763  0.00  0.00    +0.000 C 
ATOM      2  O   UNL     1      -1.316  10.083  19.070  0.00  0.00    +0.000 OA
ATOM      3  N   UNL     1      -0.221  12.072  18.882  0.00  0.00    +0.000 N 
ATOM      4  C   UNL     1      -0.299  13.530  18.784  0.00  0.00    +0.000 C 
ATOM      5  C   UNL     1       1.086  14.159  18.873  0.00  0.00    +0.000 C 
ATOM      6  S   UNL     1       2.260  12.799  18.787  0.00  0.00    +0.000 S 
ATOM      7  C   UNL     1       0.998  11.582  18.238  0.00  0.00    +0.000 C 
ENDROOT
BRANCH   7   8
ATOM      8  C   UNL     1       1.616  10.163  18.345  0.00  0.00    +0.000 C 
ATOM      9  O   UNL     1       2.156   9.686  17.342  0.00  0.00    +0.000 OA
ATOM     10  N   UNL     1       1.520   9.547  19.575  0.00  0.00    +0.000 N 
ATOM     11  C   UNL     1       1.794   8.184  19.773  0.00  0.00    +0.000 A 
ATOM     12  C   UNL     1       1.254   7.574  20.901  0.00  0.00    +0.000 A 
ATOM     13  C   UNL     1       1.376   6.193  21.045  0.00  0.00    +0.000 A 
ATOM     14  C   UNL     1       2.051   5.464  20.074  0.00  0.00    +0.000 A 
ATOM     15  C   UNL     1       2.600   6.157  19.010  0.00  0.00    +0.000 A 
ATOM     16 BR   UNL     1       3.536   5.196  17.670  0.00  0.00    +0.000 Br
ATOM     17  N   UNL     1       2.488   7.489  18.855  0.00  0.00    +0.000 NA
ATOM     18  H   UNL     1       0.892   9.983  20.242  0.00  0.00    +0.000 HD
ENDBRANCH   7   8
BRANCH   1  19
ATOM     19  C   UNL     1      -2.651  11.901  18.285  0.00  0.00    +0.000 C 
BRANCH  19  22
ATOM     20  C   UNL     1      -4.250  12.705  21.327  0.00  0.00    +0.000 A 
ATOM     21  N   UNL     1      -3.128  12.624  20.579  0.00  0.00    +0.000 NA
ATOM     22  N   UNL     1      -3.565  12.171  19.380  0.00  0.00    +0.000 N 
ATOM     23  C   UNL     1      -4.910  11.935  19.343  0.00  0.00    +0.000 A 
ATOM     24  N   UNL     1      -5.608  11.450  18.297  0.00  0.00    +0.000 NA
ATOM     25  C   UNL     1      -6.931  11.337  18.561  0.00  0.00    +0.000 A 
ATOM     26  C   UNL     1      -7.550  11.666  19.761  0.00  0.00    +0.000 A 
ATOM     27  C   UNL     1      -6.776  12.152  20.814  0.00  0.00    +0.000 A 
ATOM     28  C   UNL     1      -5.394  12.288  20.593  0.00  0.00    +0.000 A 
BRANCH  20  30
ATOM     29  N   UNL     1      -3.944  12.182  23.639  0.00  0.00    +0.000 N 
ATOM     30  C   UNL     1      -4.216  13.161  22.727  0.00  0.00    +0.000 C 
ATOM     31  O   UNL     1      -4.418  14.321  23.072  0.00  0.00    +0.000 OA
ATOM     32  H   UNL     1      -3.861  12.422  24.616  0.00  0.00    +0.000 HD
ATOM     33  H   UNL     1      -3.717  11.246  23.326  0.00  0.00    +0.000 HD
ENDBRANCH  20  30
ENDBRANCH  19  22
ENDBRANCH   1  19
TORSDOF 4
ENDMDL
MODEL 3
REMARK VINA RESULT:      -7.6      4.652      8.368
REMARK  Name = 
REMARK  4 active torsions:
REMARK  status: ('A' for Active; 'I' for Inactive)
REMARK    1  A    between atoms: C_2  and  C_4
REMARK    2  A    between atoms: N_6  and  C_7
REMARK    3  A    between atoms: C_7  and  C_8
REMARK    4  A    between atoms: C_14  and  C_15
REMARK                            x       y       z     vdW  Elec       q    Type
REMARK                         _______ _______ _______ _____ _____    ______ ____
ROOT
ATOM      1  C   UNL     1       1.450  10.036  18.622  0.00  0.00    +0.000 C 
ATOM      2  O   UNL     1       2.141  10.888  18.058  0.00  0.00    +0.000 OA
ATOM      3  N   UNL     1       0.914  10.289  19.882  0.00  0.00    +0.000 N 
ATOM      4  C   UNL     1       0.322   9.218  20.685  0.00  0.00    +0.000 C 
ATOM      5  C   UNL     1      -0.256   9.765  21.984  0.00  0.00    +0.000 C 
ATOM      6  S   UNL     1      -0.199  11.558  21.842  0.00  0.00    +0.000 S 
ATOM      7  C   UNL     1       0.150  11.526  20.038  0.00  0.00    +0.000 C 
ENDROOT
BRANCH   7   8
ATOM      8  C   UNL     1       0.570  12.956  19.603  0.00  0.00    +0.000 C 
ATOM      9  O   UNL     1      -0.320  13.758  19.304  0.00  0.00    +0.000 OA
ATOM     10  N   UNL     1       1.923  13.219  19.597  0.00  0.00    +0.000 N 
ATOM     11  C   UNL     1       2.480  14.359  18.995  0.00  0.00    +0.000 A 
ATOM     12  C   UNL     1       3.828  14.315  18.653  0.00  0.00    +0.000 A 
ATOM     13  C   UNL     1       4.372  15.366  17.915  0.00  0.00    +0.000 A 
ATOM     14  C   UNL     1       3.562  16.439  17.561  0.00  0.00    +0.000 A 
ATOM     15  C   UNL     1       2.246  16.424  17.986  0.00  0.00    +0.000 A 
ATOM     16 BR   UNL     1       1.115  17.877  17.529  0.00  0.00    +0.000 Br
ATOM     17  N   UNL     1       1.706  15.416  18.695  0.00  0.00    +0.000 NA
ATOM     18  H   UNL     1       2.533  12.413  19.687  0.00  0.00    +0.000 HD
ENDBRANCH   7   8
BRANCH   1  19
ATOM     19  C   UNL     1       1.202   8.695  17.966  0.00  0.00    +0.000 C 
BRANCH  19  22
ATOM     20  C   UNL     1       4.273   7.064  17.362  0.00  0.00    +0.000 A 
ATOM     21  N   UNL     1       3.391   8.045  17.073  0.00  0.00    +0.000 NA
ATOM     22  N   UNL     1       2.390   7.860  17.965  0.00  0.00    +0.000 N 
ATOM     23  C   UNL     1       2.585   6.789  18.790  0.00  0.00    +0.000 A 
ATOM     24  N   UNL     1       1.740   6.350  19.745  0.00  0.00    +0.000 NA
ATOM     25  C   UNL     1       2.217   5.271  20.408  0.00  0.00    +0.000 A 
ATOM     26  C   UNL     1       3.433   4.643  20.166  0.00  0.00    +0.000 A 
ATOM     27  C   UNL     1       4.262   5.132  19.156  0.00  0.00    +0.000 A 
ATOM     28  C   UNL     1       3.813   6.253  18.437  0.00  0.00    +0.000 A 
BRANCH  20  30
ATOM     29  N   UNL     1       5.396   6.241  15.419  0.00  0.00    +0.000 N 
ATOM     30  C   UNL     1       5.528   6.901  16.607  0.00  0.00    +0.000 C 
ATOM     31  O   UNL     1       6.616   7.314  16.996  0.00  0.00    +0.000 OA
ATOM     32  H   UNL     1       6.202   6.127  14.823  0.00  0.00    +0.000 HD
ATOM     33  H   UNL     1       4.479   5.966  15.090  0.00  0.00    +0.000 HD
ENDBRANCH  20  30
ENDBRANCH  19  22
ENDBRANCH   1  19
TORSDOF 4
ENDMDL
MODEL 4
REMARK VINA RESULT:      -7.5      3.369      8.047
REMARK  Name = 
REMARK  4 active torsions:
REMARK  status: ('A' for Active; 'I' for Inactive)
REMARK    1  A    between atoms: C_2  and  C_4
REMARK    2  A    between atoms: N_6  and  C_7
REMARK    3  A    between atoms: C_7  and  C_8
REMARK    4  A    between atoms: C_14  and  C_15
REMARK                            x       y       z     vdW  Elec       q    Type
REMARK                         _______ _______ _______ _____ _____    ______ ____
ROOT
ATOM      1  C   UNL     1       4.332   3.947  19.428  0.00  0.00    +0.000 C 
ATOM      2  O   UNL     1       4.575   4.894  20.180  0.00  0.00    +0.000 OA
ATOM      3  N   UNL     1       3.063   3.376  19.405  0.00  0.00    +0.000 N 
ATOM      4  C   UNL     1       2.815   2.100  18.733  0.00  0.00    +0.000 C 
ATOM      5  C   UNL     1       1.337   1.731  18.788  0.00  0.00    +0.000 C 
ATOM      6  S   UNL     1       0.483   3.180  19.429  0.00  0.00    +0.000 S 
ATOM      7  C   UNL     1       1.934   4.285  19.207  0.00  0.00    +0.000 C 
ENDROOT
BRANCH   7   8
ATOM      8  C   UNL     1       1.649   5.613  19.958  0.00  0.00    +0.000 C 
ATOM      9  O   UNL     1       1.114   5.550  21.070  0.00  0.00    +0.000 OA
ATOM     10  N   UNL     1       2.032   6.771  19.316  0.00  0.00    +0.000 N 
ATOM     11  C   UNL     1       1.624   8.049  19.732  0.00  0.00    +0.000 A 
ATOM     12  C   UNL     1       1.681   9.080  18.800  0.00  0.00    +0.000 A 
ATOM     13  C   UNL     1       1.139  10.321  19.131  0.00  0.00    +0.000 A 
ATOM     14  C   UNL     1       0.577  10.504  20.389  0.00  0.00    +0.000 A 
ATOM     15  C   UNL     1       0.606   9.439  21.272  0.00  0.00    +0.000 A 
ATOM     16 BR   UNL     1      -0.144   9.656  23.001  0.00  0.00    +0.000 Br
ATOM     17  N   UNL     1       1.123   8.235  20.965  0.00  0.00    +0.000 NA
ATOM     18  H   UNL     1       2.287   6.675  18.339  0.00  0.00    +0.000 HD
ENDBRANCH   7   8
BRANCH   1  19
ATOM     19  C   UNL     1       5.419   3.373  18.545  0.00  0.00    +0.000 C 
BRANCH  19  22
ATOM     20  C   UNL     1       7.195   6.228  17.470  0.00  0.00    +0.000 A 
ATOM     21  N   UNL     1       6.642   5.497  18.462  0.00  0.00    +0.000 NA
ATOM     22  N   UNL     1       6.145   4.408  17.830  0.00  0.00    +0.000 N 
ATOM     23  C   UNL     1       6.334   4.429  16.477  0.00  0.00    +0.000 A 
ATOM     24  N   UNL     1       5.915   3.498  15.597  0.00  0.00    +0.000 NA
ATOM     25  C   UNL     1       6.266   3.790  14.323  0.00  0.00    +0.000 A 
ATOM     26  C   UNL     1       6.973   4.914  13.913  0.00  0.00    +0.000 A 
ATOM     27  C   UNL     1       7.370   5.851  14.867  0.00  0.00    +0.000 A 
ATOM     28  C   UNL     1       7.032   5.595  16.207  0.00  0.00    +0.000 A 
BRANCH  20  30
ATOM     29  N   UNL     1       8.581   7.563  18.888  0.00  0.00    +0.000 N 
ATOM     30  C   UNL     1       7.854   7.519  17.733  0.00  0.00    +0.000 C 
ATOM     31  O   UNL     1       7.767   8.492  16.991  0.00  0.00    +0.000 OA
ATOM     32  H   UNL     1       9.098   8.399  19.118  0.00  0.00    +0.000 HD
ATOM     33  H   UNL     1       8.690   6.729  19.451  0.00  0.00    +0.000 HD
ENDBRANCH  20  30
ENDBRANCH  19  22
ENDBRANCH   1  19
TORSDOF 4
ENDMDL
MODEL 5
REMARK VINA RESULT:      -7.5      3.240      5.958
REMARK  Name = 
REMARK  4 active torsions:
REMARK  status: ('A' for Active; 'I' for Inactive)
REMARK    1  A    between atoms: C_2  and  C_4
REMARK    2  A    between atoms: N_6  and  C_7
REMARK    3  A    between atoms: C_7  and  C_8
REMARK    4  A    between atoms: C_14  and  C_15
REMARK                            x       y       z     vdW  Elec       q    Type
REMARK                         _______ _______ _______ _____ _____    ______ ____
ROOT
ATOM      1  C   UNL     1      -0.138  10.175  19.100  0.00  0.00    +0.000 C 
ATOM      2  O   UNL     1       0.038   9.317  18.230  0.00  0.00    +0.000 OA
ATOM      3  N   UNL     1      -0.039   9.838  20.447  0.00  0.00    +0.000 N 
ATOM      4  C   UNL     1      -0.497  10.752  21.495  0.00  0.00    +0.000 C 
ATOM      5  C   UNL     1      -0.211  10.184  22.879  0.00  0.00    +0.000 C 
ATOM      6  S   UNL     1       0.827   8.736  22.622  0.00  0.00    +0.000 S 
ATOM      7  C   UNL     1       1.182   9.151  20.868  0.00  0.00    +0.000 C 
ENDROOT
BRANCH   7   8
ATOM      8  C   UNL     1       1.845   7.915  20.204  0.00  0.00    +0.000 C 
ATOM      9  O   UNL     1       2.527   8.093  19.190  0.00  0.00    +0.000 OA
ATOM     10  N   UNL     1       1.623   6.700  20.819  0.00  0.00    +0.000 N 
ATOM     11  C   UNL     1       1.931   5.469  20.217  0.00  0.00    +0.000 A 
ATOM     12  C   UNL     1       1.282   4.336  20.698  0.00  0.00    +0.000 A 
ATOM     13  C   UNL     1       1.445   3.127  20.023  0.00  0.00    +0.000 A 
ATOM     14  C   UNL     1       2.269   3.078  18.904  0.00  0.00    +0.000 A 
ATOM     15  C   UNL     1       2.915   4.241  18.525  0.00  0.00    +0.000 A 
ATOM     16 BR   UNL     1       4.053   4.209  17.008  0.00  0.00    +0.000 Br
ATOM     17  N   UNL     1       2.764   5.416  19.164  0.00  0.00    +0.000 NA
ATOM     18  H   UNL     1       0.898   6.687  21.528  0.00  0.00    +0.000 HD
ENDBRANCH   7   8
BRANCH   1  19
ATOM     19  C   UNL     1      -0.494  11.594  18.715  0.00  0.00    +0.000 C 
BRANCH  19  22
ATOM     20  C   UNL     1      -3.960  12.223  18.952  0.00  0.00    +0.000 A 
ATOM     21  N   UNL     1      -2.722  12.264  19.491  0.00  0.00    +0.000 NA
ATOM     22  N   UNL     1      -1.923  11.764  18.520  0.00  0.00    +0.000 N 
ATOM     23  C   UNL     1      -2.603  11.383  17.397  0.00  0.00    +0.000 A 
ATOM     24  N   UNL     1      -2.071  10.823  16.292  0.00  0.00    +0.000 NA
ATOM     25  C   UNL     1      -2.998  10.567  15.340  0.00  0.00    +0.000 A 
ATOM     26  C   UNL     1      -4.360  10.828  15.442  0.00  0.00    +0.000 A 
ATOM     27  C   UNL     1      -4.856  11.397  16.615  0.00  0.00    +0.000 A 
ATOM     28  C   UNL     1      -3.935  11.683  17.636  0.00  0.00    +0.000 A 
BRANCH  20  30
ATOM     29  N   UNL     1      -5.718  13.822  19.210  0.00  0.00    +0.000 N 
ATOM     30  C   UNL     1      -5.146  12.682  19.696  0.00  0.00    +0.000 C 
ATOM     31  O   UNL     1      -5.599  12.104  20.679  0.00  0.00    +0.000 OA
ATOM     32  H   UNL     1      -6.560  14.177  19.639  0.00  0.00    +0.000 HD
ATOM     33  H   UNL     1      -5.365  14.245  18.361  0.00  0.00    +0.000 HD
ENDBRANCH  20  30
ENDBRANCH  19  22
ENDBRANCH   1  19
TORSDOF 4
ENDMDL
MODEL 6
REMARK VINA RESULT:      -7.5      6.028     10.913
REMARK  Name = 
REMARK  4 active torsions:
REMARK  status: ('A' for Active; 'I' for Inactive)
REMARK    1  A    between atoms: C_2  and  C_4
REMARK    2  A    between atoms: N_6  and  C_7
REMARK    3  A    between atoms: C_7  and  C_8
REMARK    4  A    between atoms: C_14  and  C_15
REMARK                            x       y       z     vdW  Elec       q    Type
REMARK                         _______ _______ _______ _____ _____    ______ ____
ROOT
ATOM      1  C   UNL     1      -0.887  12.795  18.940  0.00  0.00    +0.000 C 
ATOM      2  O   UNL     1      -2.018  12.303  18.959  0.00  0.00    +0.000 OA
ATOM      3  N   UNL     1      -0.699  14.135  19.265  0.00  0.00    +0.000 N 
ATOM      4  C   UNL     1       0.571  14.812  18.998  0.00  0.00    +0.000 C 
ATOM      5  C   UNL     1       0.545  16.246  19.512  0.00  0.00    +0.000 C 
ATOM      6  S   UNL     1      -0.963  16.403  20.482  0.00  0.00    +0.000 S 
ATOM      7  C   UNL     1      -1.263  14.591  20.535  0.00  0.00    +0.000 C 
ENDROOT
BRANCH   7   8
ATOM      8  C   UNL     1      -2.702  14.356  21.068  0.00  0.00    +0.000 C 
ATOM      9  O   UNL     1      -3.601  15.099  20.663  0.00  0.00    +0.000 OA
ATOM     10  N   UNL     1      -2.861  13.311  21.954  0.00  0.00    +0.000 N 
ATOM     11  C   UNL     1      -4.026  13.123  22.716  0.00  0.00    +0.000 A 
ATOM     12  C   UNL     1      -3.927  12.345  23.865  0.00  0.00    +0.000 A 
ATOM     13  C   UNL     1      -5.022  12.268  24.725  0.00  0.00    +0.000 A 
ATOM     14  C   UNL     1      -6.190  12.948  24.401  0.00  0.00    +0.000 A 
ATOM     15  C   UNL     1      -6.218  13.658  23.214  0.00  0.00    +0.000 A 
ATOM     16 BR   UNL     1      -7.799  14.591  22.737  0.00  0.00    +0.000 Br
ATOM     17  N   UNL     1      -5.168  13.745  22.376  0.00  0.00    +0.000 NA
ATOM     18  H   UNL     1      -2.007  12.913  22.329  0.00  0.00    +0.000 HD
ENDBRANCH   7   8
BRANCH   1  19
ATOM     19  C   UNL     1       0.305  11.957  18.532  0.00  0.00    +0.000 C 
BRANCH  19  22
ATOM     20  C   UNL     1       0.647   9.796  21.301  0.00  0.00    +0.000 A 
ATOM     21  N   UNL     1       0.224  10.964  20.772  0.00  0.00    +0.000 NA
ATOM     22  N   UNL     1       0.554  10.871  19.463  0.00  0.00    +0.000 N 
ATOM     23  C   UNL     1       1.193   9.707  19.143  0.00  0.00    +0.000 A 
ATOM     24  N   UNL     1       1.664   9.361  17.928  0.00  0.00    +0.000 NA
ATOM     25  C   UNL     1       2.238   8.135  17.921  0.00  0.00    +0.000 A 
ATOM     26  C   UNL     1       2.359   7.290  19.017  0.00  0.00    +0.000 A 
ATOM     27  C   UNL     1       1.864   7.705  20.253  0.00  0.00    +0.000 A 
ATOM     28  C   UNL     1       1.257   8.971  20.316  0.00  0.00    +0.000 A 
BRANCH  20  30
ATOM     29  N   UNL     1      -0.791   9.155  23.100  0.00  0.00    +0.000 N 
ATOM     30  C   UNL     1       0.482   9.487  22.732  0.00  0.00    +0.000 C 
ATOM     31  O   UNL     1       1.397   9.523  23.548  0.00  0.00    +0.000 OA
ATOM     32  H   UNL     1      -0.978   8.888  24.055  0.00  0.00    +0.000 HD
ATOM     33  H   UNL     1      -1.516   9.070  22.399  0.00  0.00    +0.000 HD
ENDBRANCH  20  30
ENDBRANCH  19  22
ENDBRANCH   1  19
TORSDOF 4
ENDMDL
MODEL 7
REMARK VINA RESULT:      -7.4      4.349      8.394
REMARK  Name = 
REMARK  4 active torsions:
REMARK  status: ('A' for Active; 'I' for Inactive)
REMARK    1  A    between atoms: C_2  and  C_4
REMARK    2  A    between atoms: N_6  and  C_7
REMARK    3  A    between atoms: C_7  and  C_8
REMARK    4  A    between atoms: C_14  and  C_15
REMARK                            x       y       z     vdW  Elec       q    Type
REMARK                         _______ _______ _______ _____ _____    ______ ____
ROOT
ATOM      1  C   UNL     1       1.897   9.282  18.479  0.00  0.00    +0.000 C 
ATOM      2  O   UNL     1       2.292  10.325  17.953  0.00  0.00    +0.000 OA
ATOM      3  N   UNL     1       1.472   9.281  19.804  0.00  0.00    +0.000 N 
ATOM      4  C   UNL     1       1.253   8.030  20.532  0.00  0.00    +0.000 C 
ATOM      5  C   UNL     1       0.721   8.300  21.934  0.00  0.00    +0.000 C 
ATOM      6  S   UNL     1       0.331  10.056  21.993  0.00  0.00    +0.000 S 
ATOM      7  C   UNL     1       0.459  10.270  20.173  0.00  0.00    +0.000 C 
ENDROOT
BRANCH   7   8
ATOM      8  C   UNL     1       0.470  11.792  19.866  0.00  0.00    +0.000 C 
ATOM      9  O   UNL     1      -0.599  12.334  19.570  0.00  0.00    +0.000 OA
ATOM     10  N   UNL     1       1.692  12.424  19.962  0.00  0.00    +0.000 N 
ATOM     11  C   UNL     1       1.923  13.722  19.477  0.00  0.00    +0.000 A 
ATOM     12  C   UNL     1       3.240  14.088  19.216  0.00  0.00    +0.000 A 
ATOM     13  C   UNL     1       3.490  15.308  18.589  0.00  0.00    +0.000 A 
ATOM     14  C   UNL     1       2.423  16.136  18.263  0.00  0.00    +0.000 A 
ATOM     15  C   UNL     1       1.149  15.716  18.603  0.00  0.00    +0.000 A 
ATOM     16 BR   UNL     1      -0.330  16.825  18.181  0.00  0.00    +0.000 Br
ATOM     17  N   UNL     1       0.892  14.540  19.205  0.00  0.00    +0.000 NA
ATOM     18  H   UNL     1       2.502  11.817  20.032  0.00  0.00    +0.000 HD
ENDBRANCH   7   8
BRANCH   1  19
ATOM     19  C   UNL     1       1.899   7.984  17.701  0.00  0.00    +0.000 C 
BRANCH  19  22
ATOM     20  C   UNL     1       5.244   6.880  17.467  0.00  0.00    +0.000 A 
ATOM     21  N   UNL     1       4.297   7.809  17.217  0.00  0.00    +0.000 NA
ATOM     22  N   UNL     1       3.178   7.300  17.783  0.00  0.00    +0.000 N 
ATOM     23  C   UNL     1       3.366   6.075  18.358  0.00  0.00    +0.000 A 
ATOM     24  N   UNL     1       2.425   5.322  18.961  0.00  0.00    +0.000 NA
ATOM     25  C   UNL     1       2.921   4.160  19.447  0.00  0.00    +0.000 A 
ATOM     26  C   UNL     1       4.242   3.740  19.357  0.00  0.00    +0.000 A 
ATOM     27  C   UNL     1       5.171   4.555  18.710  0.00  0.00    +0.000 A 
ATOM     28  C   UNL     1       4.708   5.775  18.186  0.00  0.00    +0.000 A 
BRANCH  20  30
ATOM     29  N   UNL     1       7.097   6.034  16.217  0.00  0.00    +0.000 N 
ATOM     30  C   UNL     1       6.634   7.045  17.009  0.00  0.00    +0.000 C 
ATOM     31  O   UNL     1       7.340   8.004  17.304  0.00  0.00    +0.000 OA
ATOM     32  H   UNL     1       8.026   6.094  15.827  0.00  0.00    +0.000 HD
ATOM     33  H   UNL     1       6.476   5.285  15.934  0.00  0.00    +0.000 HD
ENDBRANCH  20  30
ENDBRANCH  19  22
ENDBRANCH   1  19
TORSDOF 4
ENDMDL
MODEL 8
REMARK VINA RESULT:      -7.4      5.704     10.256
REMARK  Name = 
REMARK  4 active torsions:
REMARK  status: ('A' for Active; 'I' for Inactive)
REMARK    1  A    between atoms: C_2  and  C_4
REMARK    2  A    between atoms: N_6  and  C_7
REMARK    3  A    between atoms: C_7  and  C_8
REMARK    4  A    between atoms: C_14  and  C_15
REMARK                            x       y       z     vdW  Elec       q    Type
REMARK                         _______ _______ _______ _____ _____    ______ ____
ROOT
ATOM      1  C   UNL     1      -0.844  12.258  18.647  0.00  0.00    +0.000 C 
ATOM      2  O   UNL     1      -1.912  11.678  18.433  0.00  0.00    +0.000 OA
ATOM      3  N   UNL     1      -0.838  13.577  19.091  0.00  0.00    +0.000 N 
ATOM      4  C   UNL     1       0.391  14.371  19.099  0.00  0.00    +0.000 C 
ATOM      5  C   UNL     1       0.147  15.751  19.696  0.00  0.00    +0.000 C 
ATOM      6  S   UNL     1      -1.512  15.709  20.393  0.00  0.00    +0.000 S 
ATOM      7  C   UNL     1      -1.649  13.881  20.270  0.00  0.00    +0.000 C 
ENDROOT
BRANCH   7   8
ATOM      8  C   UNL     1      -3.129  13.490  20.523  0.00  0.00    +0.000 C 
ATOM      9  O   UNL     1      -3.579  13.619  21.666  0.00  0.00    +0.000 OA
ATOM     10  N   UNL     1      -3.835  13.034  19.430  0.00  0.00    +0.000 N 
ATOM     11  C   UNL     1      -5.088  12.407  19.532  0.00  0.00    +0.000 A 
ATOM     12  C   UNL     1      -5.498  11.607  18.471  0.00  0.00    +0.000 A 
ATOM     13  C   UNL     1      -6.660  10.848  18.608  0.00  0.00    +0.000 A 
ATOM     14  C   UNL     1      -7.390  10.928  19.787  0.00  0.00    +0.000 A 
ATOM     15  C   UNL     1      -6.937  11.788  20.772  0.00  0.00    +0.000 A 
ATOM     16 BR   UNL     1      -7.913  11.929  22.392  0.00  0.00    +0.000 Br
ATOM     17  N   UNL     1      -5.815  12.523  20.657  0.00  0.00    +0.000 NA
ATOM     18  H   UNL     1      -3.285  12.810  18.607  0.00  0.00    +0.000 HD
ENDBRANCH   7   8
BRANCH   1  19
ATOM     19  C   UNL     1       0.472  11.553  18.400  0.00  0.00    +0.000 C 
BRANCH  19  22
ATOM     20  C   UNL     1       0.804   9.483  21.240  0.00  0.00    +0.000 A 
ATOM     21  N   UNL     1       0.384  10.634  20.672  0.00  0.00    +0.000 NA
ATOM     22  N   UNL     1       0.716  10.498  19.367  0.00  0.00    +0.000 N 
ATOM     23  C   UNL     1       1.353   9.322  19.087  0.00  0.00    +0.000 A 
ATOM     24  N   UNL     1       1.826   8.935  17.885  0.00  0.00    +0.000 NA
ATOM     25  C   UNL     1       2.396   7.708  17.920  0.00  0.00    +0.000 A 
ATOM     26  C   UNL     1       2.513   6.899  19.043  0.00  0.00    +0.000 A 
ATOM     27  C   UNL     1       2.017   7.356  20.264  0.00  0.00    +0.000 A 
ATOM     28  C   UNL     1       1.413   8.625  20.283  0.00  0.00    +0.000 A 
BRANCH  20  30
ATOM     29  N   UNL     1      -0.555   8.643  23.019  0.00  0.00    +0.000 N 
ATOM     30  C   UNL     1       0.635   9.222  22.680  0.00  0.00    +0.000 C 
ATOM     31  O   UNL     1       1.479   9.497  23.527  0.00  0.00    +0.000 OA
ATOM     32  H   UNL     1      -0.729   8.393  23.981  0.00  0.00    +0.000 HD
ATOM     33  H   UNL     1      -1.208   8.366  22.297  0.00  0.00    +0.000 HD
ENDBRANCH  20  30
ENDBRANCH  19  22
ENDBRANCH   1  19
TORSDOF 4
ENDMDL
MODEL 9
REMARK VINA RESULT:      -7.4      4.876      7.038
REMARK  Name = 
REMARK  4 active torsions:
REMARK  status: ('A' for Active; 'I' for Inactive)
REMARK    1  A    between atoms: C_2  and  C_4
REMARK    2  A    between atoms: N_6  and  C_7
REMARK    3  A    between atoms: C_7  and  C_8
REMARK    4  A    between atoms: C_14  and  C_15
REMARK                            x       y       z     vdW  Elec       q    Type
REMARK                         _______ _______ _______ _____ _____    ______ ____
ROOT
ATOM      1  C   UNL     1       1.163  12.632  19.237  0.00  0.00    +0.000 C 
ATOM      2  O   UNL     1       2.322  12.302  18.972  0.00  0.00    +0.000 OA
ATOM      3  N   UNL     1       0.092  11.965  18.649  0.00  0.00    +0.000 N 
ATOM      4  C   UNL     1      -1.270  12.495  18.731  0.00  0.00    +0.000 C 
ATOM      5  C   UNL     1      -2.266  11.546  18.076  0.00  0.00    +0.000 C 
ATOM      6  S   UNL     1      -1.357  10.034  17.718  0.00  0.00    +0.000 S 
ATOM      7  C   UNL     1       0.080  10.507  18.762  0.00  0.00    +0.000 C 
ENDROOT
BRANCH   7   8
ATOM      8  C   UNL     1       1.243   9.527  18.453  0.00  0.00    +0.000 C 
ATOM      9  O   UNL     1       1.834   9.647  17.375  0.00  0.00    +0.000 OA
ATOM     10  N   UNL     1       1.533   8.597  19.428  0.00  0.00    +0.000 N 
ATOM     11  C   UNL     1       2.370   7.491  19.209  0.00  0.00    +0.000 A 
ATOM     12  C   UNL     1       2.247   6.406  20.071  0.00  0.00    +0.000 A 
ATOM     13  C   UNL     1       2.949   5.235  19.789  0.00  0.00    +0.000 A 
ATOM     14  C   UNL     1       3.771   5.189  18.669  0.00  0.00    +0.000 A 
ATOM     15  C   UNL     1       3.874   6.330  17.893  0.00  0.00    +0.000 A 
ATOM     16 BR   UNL     1       4.993   6.304  16.363  0.00  0.00    +0.000 Br
ATOM     17  N   UNL     1       3.199   7.466  18.151  0.00  0.00    +0.000 NA
ATOM     18  H   UNL     1       0.847   8.503  20.171  0.00  0.00    +0.000 HD
ENDBRANCH   7   8
BRANCH   1  19
ATOM     19  C   UNL     1       0.892  13.785  20.179  0.00  0.00    +0.000 C 
BRANCH  19  22
ATOM     20  C   UNL     1       3.042  16.509  19.533  0.00  0.00    +0.000 A 
ATOM     21  N   UNL     1       2.825  15.290  20.073  0.00  0.00    +0.000 NA
ATOM     22  N   UNL     1       1.543  15.008  19.745  0.00  0.00    +0.000 N 
ATOM     23  C   UNL     1       0.927  16.006  19.043  0.00  0.00    +0.000 A 
ATOM     24  N   UNL     1      -0.352  16.013  18.617  0.00  0.00    +0.000 NA
ATOM     25  C   UNL     1      -0.668  17.138  17.936  0.00  0.00    +0.000 A 
ATOM     26  C   UNL     1       0.191  18.201  17.680  0.00  0.00    +0.000 A 
ATOM     27  C   UNL     1       1.500  18.146  18.156  0.00  0.00    +0.000 A 
ATOM     28  C   UNL     1       1.881  16.997  18.871  0.00  0.00    +0.000 A 
BRANCH  20  30
ATOM     29  N   UNL     1       4.539  17.807  20.870  0.00  0.00    +0.000 N 
ATOM     30  C   UNL     1       4.338  17.197  19.666  0.00  0.00    +0.000 C 
ATOM     31  O   UNL     1       5.184  17.235  18.778  0.00  0.00    +0.000 OA
ATOM     32  H   UNL     1       5.420  18.263  21.056  0.00  0.00    +0.000 HD
ATOM     33  H   UNL     1       3.855  17.708  21.610  0.00  0.00    +0.000 HD
ENDBRANCH  20  30
ENDBRANCH  19  22
ENDBRANCH   1  19
TORSDOF 4
ENDMDL
