MODEL 1
REMARK VINA RESULT:      -7.1      0.000      0.000
REMARK  Name = 
REMARK  5 active torsions:
REMARK  status: ('A' for Active; 'I' for Inactive)
REMARK    1  A    between atoms: C_1  and  C_2
REMARK    2  A    between atoms: C_2  and  N_3
REMARK    3  A    between atoms: C_5  and  C_6
REMARK    4  A    between atoms: C_13  and  C_14
REMARK    5  A    between atoms: N_16  and  C_17
REMARK                            x       y       z     vdW  Elec       q    Type
REMARK                         _______ _______ _______ _____ _____    ______ ____
ROOT
ATOM      1  N   UNL     1       5.342   5.973  17.729  0.00  0.00    +0.000 N 
ATOM      2  N   UNL     1       4.341   6.933  17.925  0.00  0.00    +0.000 NA
ATOM      3  C   UNL     1       3.307   6.678  18.687  0.00  0.00    +0.000 A 
ATOM      4  C   UNL     1       3.169   5.365  19.294  0.00  0.00    +0.000 A 
ATOM      5  C   UNL     1       2.175   4.624  19.997  0.00  0.00    +0.000 A 
ATOM      6  C   UNL     1       0.773   4.954  20.358  0.00  0.00    +0.000 C 
ATOM      7  N   UNL     1       2.631   3.416  20.361  0.00  0.00    +0.000 NA
ATOM      8  N   UNL     1       3.869   3.350  19.838  0.00  0.00    +0.000 N 
ATOM      9  C   UNL     1       4.652   2.151  20.016  0.00  0.00    +0.000 C 
ATOM     10  C   UNL     1       4.209   4.472  19.153  0.00  0.00    +0.000 A 
ATOM     11  C   UNL     1       5.386   4.732  18.383  0.00  0.00    +0.000 A 
ATOM     12  O   UNL     1       6.320   3.937  18.285  0.00  0.00    +0.000 OA
ENDROOT
BRANCH   3  13
ATOM     13  C   UNL     1       2.310   7.756  18.917  0.00  0.00    +0.000 A 
ATOM     14  C   UNL     1       1.842   8.501  17.824  0.00  0.00    +0.000 A 
ATOM     15  C   UNL     1       0.888   9.502  18.016  0.00  0.00    +0.000 A 
ATOM     16  C   UNL     1       0.387   9.755  19.292  0.00  0.00    +0.000 A 
ATOM     17  C   UNL     1       0.879   9.046  20.386  0.00  0.00    +0.000 A 
ATOM     18  C   UNL     1       1.867   8.078  20.202  0.00  0.00    +0.000 A 
ENDBRANCH   3  13
BRANCH   1  20
ATOM     19  C   UNL     1       7.467   7.223  17.573  0.00  0.00    +0.000 C 
ATOM     20  C   UNL     1       6.438   6.369  16.853  0.00  0.00    +0.000 C 
ENDBRANCH   1  20
TORSDOF 2
ENDMDL
MODEL 2
REMARK VINA RESULT:      -7.1      0.052      1.081
REMARK  Name = 
REMARK  5 active torsions:
REMARK  status: ('A' for Active; 'I' for Inactive)
REMARK    1  A    between atoms: C_1  and  C_2
REMARK    2  A    between atoms: C_2  and  N_3
REMARK    3  A    between atoms: C_5  and  C_6
REMARK    4  A    between atoms: C_13  and  C_14
REMARK    5  A    between atoms: N_16  and  C_17
REMARK                            x       y       z     vdW  Elec       q    Type
REMARK                         _______ _______ _______ _____ _____    ______ ____
ROOT
ATOM      1  N   UNL     1       5.366   5.958  17.719  0.00  0.00    +0.000 N 
ATOM      2  N   UNL     1       4.360   6.915  17.908  0.00  0.00    +0.000 NA
ATOM      3  C   UNL     1       3.324   6.659  18.665  0.00  0.00    +0.000 A 
ATOM      4  C   UNL     1       3.188   5.348  19.277  0.00  0.00    +0.000 A 
ATOM      5  C   UNL     1       2.193   4.606  19.977  0.00  0.00    +0.000 A 
ATOM      6  C   UNL     1       0.788   4.932  20.330  0.00  0.00    +0.000 C 
ATOM      7  N   UNL     1       2.651   3.401  20.347  0.00  0.00    +0.000 NA
ATOM      8  N   UNL     1       3.892   3.337  19.831  0.00  0.00    +0.000 N 
ATOM      9  C   UNL     1       4.678   2.141  20.016  0.00  0.00    +0.000 C 
ATOM     10  C   UNL     1       4.231   4.458  19.144  0.00  0.00    +0.000 A 
ATOM     11  C   UNL     1       5.411   4.719  18.378  0.00  0.00    +0.000 A 
ATOM     12  O   UNL     1       6.348   3.927  18.287  0.00  0.00    +0.000 OA
ENDROOT
BRANCH   3  13
ATOM     13  C   UNL     1       2.322   7.735  18.886  0.00  0.00    +0.000 A 
ATOM     14  C   UNL     1       1.879   8.001  20.190  0.00  0.00    +0.000 A 
ATOM     15  C   UNL     1       0.957   9.023  20.422  0.00  0.00    +0.000 A 
ATOM     16  C   UNL     1       0.483   9.792  19.359  0.00  0.00    +0.000 A 
ATOM     17  C   UNL     1       0.890   9.504  18.057  0.00  0.00    +0.000 A 
ATOM     18  C   UNL     1       1.775   8.452  17.819  0.00  0.00    +0.000 A 
ENDBRANCH   3  13
BRANCH   1  20
ATOM     19  C   UNL     1       7.461   7.257  17.555  0.00  0.00    +0.000 C 
ATOM     20  C   UNL     1       6.465   6.355  16.848  0.00  0.00    +0.000 C 
ENDBRANCH   1  20
TORSDOF 2
ENDMDL
MODEL 3
REMARK VINA RESULT:      -6.7      1.168      1.218
REMARK  Name = 
REMARK  5 active torsions:
REMARK  status: ('A' for Active; 'I' for Inactive)
REMARK    1  A    between atoms: C_1  and  C_2
REMARK    2  A    between atoms: C_2  and  N_3
REMARK    3  A    between atoms: C_5  and  C_6
REMARK    4  A    between atoms: C_13  and  C_14
REMARK    5  A    between atoms: N_16  and  C_17
REMARK                            x       y       z     vdW  Elec       q    Type
REMARK                         _______ _______ _______ _____ _____    ______ ____
ROOT
ATOM      1  N   UNL     1       4.695   5.375  16.755  0.00  0.00    +0.000 N 
ATOM      2  N   UNL     1       3.941   6.398  17.344  0.00  0.00    +0.000 NA
ATOM      3  C   UNL     1       3.062   6.131  18.276  0.00  0.00    +0.000 A 
ATOM      4  C   UNL     1       2.826   4.753  18.669  0.00  0.00    +0.000 A 
ATOM      5  C   UNL     1       1.888   4.022  19.453  0.00  0.00    +0.000 A 
ATOM      6  C   UNL     1       0.672   4.454  20.189  0.00  0.00    +0.000 C 
ATOM      7  N   UNL     1       2.191   2.716  19.489  0.00  0.00    +0.000 NA
ATOM      8  N   UNL     1       3.261   2.594  18.682  0.00  0.00    +0.000 N 
ATOM      9  C   UNL     1       3.841   1.291  18.463  0.00  0.00    +0.000 C 
ATOM     10  C   UNL     1       3.641   3.777  18.135  0.00  0.00    +0.000 A 
ATOM     11  C   UNL     1       4.657   4.031  17.160  0.00  0.00    +0.000 A 
ATOM     12  O   UNL     1       5.395   3.157  16.710  0.00  0.00    +0.000 OA
ENDROOT
BRANCH   3  13
ATOM     13  C   UNL     1       2.340   7.263  18.916  0.00  0.00    +0.000 A 
ATOM     14  C   UNL     1       1.930   8.347  18.128  0.00  0.00    +0.000 A 
ATOM     15  C   UNL     1       1.230   9.408  18.705  0.00  0.00    +0.000 A 
ATOM     16  C   UNL     1       0.924   9.386  20.065  0.00  0.00    +0.000 A 
ATOM     17  C   UNL     1       1.364   8.330  20.860  0.00  0.00    +0.000 A 
ATOM     18  C   UNL     1       2.105   7.293  20.293  0.00  0.00    +0.000 A 
ENDBRANCH   3  13
BRANCH   1  20
ATOM     19  C   UNL     1       6.987   6.175  16.298  0.00  0.00    +0.000 C 
ATOM     20  C   UNL     1       5.635   5.792  15.722  0.00  0.00    +0.000 C 
ENDBRANCH   1  20
TORSDOF 2
ENDMDL
MODEL 4
REMARK VINA RESULT:      -6.5      2.248      4.547
REMARK  Name = 
REMARK  5 active torsions:
REMARK  status: ('A' for Active; 'I' for Inactive)
REMARK    1  A    between atoms: C_1  and  C_2
REMARK    2  A    between atoms: C_2  and  N_3
REMARK    3  A    between atoms: C_5  and  C_6
REMARK    4  A    between atoms: C_13  and  C_14
REMARK    5  A    between atoms: N_16  and  C_17
REMARK                            x       y       z     vdW  Elec       q    Type
REMARK                         _______ _______ _______ _____ _____    ______ ____
ROOT
ATOM      1  N   UNL     1       3.515   7.233  17.503  0.00  0.00    +0.000 N 
ATOM      2  N   UNL     1       2.840   6.426  18.428  0.00  0.00    +0.000 NA
ATOM      3  C   UNL     1       3.084   5.142  18.502  0.00  0.00    +0.000 A 
ATOM      4  C   UNL     1       4.027   4.536  17.578  0.00  0.00    +0.000 A 
ATOM      5  C   UNL     1       4.433   3.227  17.189  0.00  0.00    +0.000 A 
ATOM      6  C   UNL     1       3.959   1.883  17.608  0.00  0.00    +0.000 C 
ATOM      7  N   UNL     1       5.409   3.269  16.269  0.00  0.00    +0.000 NA
ATOM      8  N   UNL     1       5.576   4.580  16.013  0.00  0.00    +0.000 N 
ATOM      9  C   UNL     1       6.545   4.994  15.029  0.00  0.00    +0.000 C 
ATOM     10  C   UNL     1       4.737   5.365  16.737  0.00  0.00    +0.000 A 
ATOM     11  C   UNL     1       4.549   6.782  16.667  0.00  0.00    +0.000 A 
ATOM     12  O   UNL     1       5.207   7.516  15.932  0.00  0.00    +0.000 OA
ENDROOT
BRANCH   3  13
ATOM     13  C   UNL     1       2.391   4.347  19.549  0.00  0.00    +0.000 A 
ATOM     14  C   UNL     1       1.213   3.661  19.221  0.00  0.00    +0.000 A 
ATOM     15  C   UNL     1       0.560   2.889  20.183  0.00  0.00    +0.000 A 
ATOM     16  C   UNL     1       1.085   2.786  21.471  0.00  0.00    +0.000 A 
ATOM     17  C   UNL     1       2.233   3.497  21.813  0.00  0.00    +0.000 A 
ATOM     18  C   UNL     1       2.859   4.307  20.865  0.00  0.00    +0.000 A 
ENDBRANCH   3  13
BRANCH   1  20
ATOM     19  C   UNL     1       1.754   8.876  18.053  0.00  0.00    +0.000 C 
ATOM     20  C   UNL     1       3.153   8.645  17.508  0.00  0.00    +0.000 C 
ENDBRANCH   1  20
TORSDOF 2
ENDMDL
MODEL 5
REMARK VINA RESULT:      -6.4      2.260      4.648
REMARK  Name = 
REMARK  5 active torsions:
REMARK  status: ('A' for Active; 'I' for Inactive)
REMARK    1  A    between atoms: C_1  and  C_2
REMARK    2  A    between atoms: C_2  and  N_3
REMARK    3  A    between atoms: C_5  and  C_6
REMARK    4  A    between atoms: C_13  and  C_14
REMARK    5  A    between atoms: N_16  and  C_17
REMARK                            x       y       z     vdW  Elec       q    Type
REMARK                         _______ _______ _______ _____ _____    ______ ____
ROOT
ATOM      1  N   UNL     1       3.514   7.180  17.498  0.00  0.00    +0.000 N 
ATOM      2  N   UNL     1       2.835   6.363  18.411  0.00  0.00    +0.000 NA
ATOM      3  C   UNL     1       3.081   5.079  18.474  0.00  0.00    +0.000 A 
ATOM      4  C   UNL     1       4.032   4.484  17.551  0.00  0.00    +0.000 A 
ATOM      5  C   UNL     1       4.445   3.179  17.153  0.00  0.00    +0.000 A 
ATOM      6  C   UNL     1       3.970   1.831  17.556  0.00  0.00    +0.000 C 
ATOM      7  N   UNL     1       5.427   3.233  16.241  0.00  0.00    +0.000 NA
ATOM      8  N   UNL     1       5.592   4.546  15.999  0.00  0.00    +0.000 N 
ATOM      9  C   UNL     1       6.568   4.972  15.025  0.00  0.00    +0.000 C 
ATOM     10  C   UNL     1       4.746   5.323  16.724  0.00  0.00    +0.000 A 
ATOM     11  C   UNL     1       4.555   6.740  16.666  0.00  0.00    +0.000 A 
ATOM     12  O   UNL     1       5.217   7.482  15.942  0.00  0.00    +0.000 OA
ENDROOT
BRANCH   3  13
ATOM     13  C   UNL     1       2.382   4.272  19.509  0.00  0.00    +0.000 A 
ATOM     14  C   UNL     1       2.925   4.194  20.799  0.00  0.00    +0.000 A 
ATOM     15  C   UNL     1       2.271   3.461  21.791  0.00  0.00    +0.000 A 
ATOM     16  C   UNL     1       1.069   2.814  21.505  0.00  0.00    +0.000 A 
ATOM     17  C   UNL     1       0.547   2.855  20.214  0.00  0.00    +0.000 A 
ATOM     18  C   UNL     1       1.225   3.548  19.210  0.00  0.00    +0.000 A 
ENDBRANCH   3  13
BRANCH   1  20
ATOM     19  C   UNL     1       1.707   8.805  17.942  0.00  0.00    +0.000 C 
ATOM     20  C   UNL     1       3.148   8.591  17.514  0.00  0.00    +0.000 C 
ENDBRANCH   1  20
TORSDOF 2
ENDMDL
MODEL 6
REMARK VINA RESULT:      -6.4      1.048      1.536
REMARK  Name = 
REMARK  5 active torsions:
REMARK  status: ('A' for Active; 'I' for Inactive)
REMARK    1  A    between atoms: C_1  and  C_2
REMARK    2  A    between atoms: C_2  and  N_3
REMARK    3  A    between atoms: C_5  and  C_6
REMARK    4  A    between atoms: C_13  and  C_14
REMARK    5  A    between atoms: N_16  and  C_17
REMARK                            x       y       z     vdW  Elec       q    Type
REMARK                         _______ _______ _______ _____ _____    ______ ____
ROOT
ATOM      1  N   UNL     1       4.735   5.671  17.033  0.00  0.00    +0.000 N 
ATOM      2  N   UNL     1       3.943   6.645  17.654  0.00  0.00    +0.000 NA
ATOM      3  C   UNL     1       3.018   6.307  18.517  0.00  0.00    +0.000 A 
ATOM      4  C   UNL     1       2.774   4.903  18.796  0.00  0.00    +0.000 A 
ATOM      5  C   UNL     1       1.802   4.112  19.474  0.00  0.00    +0.000 A 
ATOM      6  C   UNL     1       0.546   4.483  20.174  0.00  0.00    +0.000 C 
ATOM      7  N   UNL     1       2.114   2.808  19.431  0.00  0.00    +0.000 NA
ATOM      8  N   UNL     1       3.226   2.751  18.675  0.00  0.00    +0.000 N 
ATOM      9  C   UNL     1       3.827   1.470  18.392  0.00  0.00    +0.000 C 
ATOM     10  C   UNL     1       3.624   3.973  18.236  0.00  0.00    +0.000 A 
ATOM     11  C   UNL     1       4.687   4.302  17.337  0.00  0.00    +0.000 A 
ATOM     12  O   UNL     1       5.456   3.466  16.864  0.00  0.00    +0.000 OA
ENDROOT
BRANCH   3  13
ATOM     13  C   UNL     1       2.254   7.386  19.198  0.00  0.00    +0.000 A 
ATOM     14  C   UNL     1       1.985   7.273  20.570  0.00  0.00    +0.000 A 
ATOM     15  C   UNL     1       1.290   8.286  21.233  0.00  0.00    +0.000 A 
ATOM     16  C   UNL     1       0.872   9.420  20.536  0.00  0.00    +0.000 A 
ATOM     17  C   UNL     1       1.102   9.517  19.165  0.00  0.00    +0.000 A 
ATOM     18  C   UNL     1       1.754   8.483  18.492  0.00  0.00    +0.000 A 
ENDBRANCH   3  13
BRANCH   1  20
ATOM     19  C   UNL     1       7.029   6.547  16.763  0.00  0.00    +0.000 C 
ATOM     20  C   UNL     1       5.724   6.168  16.085  0.00  0.00    +0.000 C 
ENDBRANCH   1  20
TORSDOF 2
ENDMDL
MODEL 7
REMARK VINA RESULT:      -6.3      1.761      3.789
REMARK  Name = 
REMARK  5 active torsions:
REMARK  status: ('A' for Active; 'I' for Inactive)
REMARK    1  A    between atoms: C_1  and  C_2
REMARK    2  A    between atoms: C_2  and  N_3
REMARK    3  A    between atoms: C_5  and  C_6
REMARK    4  A    between atoms: C_13  and  C_14
REMARK    5  A    between atoms: N_16  and  C_17
REMARK                            x       y       z     vdW  Elec       q    Type
REMARK                         _______ _______ _______ _____ _____    ______ ____
ROOT
ATOM      1  N   UNL     1       2.377   3.494  18.905  0.00  0.00    +0.000 N 
ATOM      2  N   UNL     1       1.987   4.813  19.170  0.00  0.00    +0.000 NA
ATOM      3  C   UNL     1       2.594   5.820  18.594  0.00  0.00    +0.000 A 
ATOM      4  C   UNL     1       3.719   5.571  17.709  0.00  0.00    +0.000 A 
ATOM      5  C   UNL     1       4.737   6.323  17.056  0.00  0.00    +0.000 A 
ATOM      6  C   UNL     1       5.063   7.771  17.084  0.00  0.00    +0.000 C 
ATOM      7  N   UNL     1       5.524   5.535  16.307  0.00  0.00    +0.000 NA
ATOM      8  N   UNL     1       5.068   4.289  16.533  0.00  0.00    +0.000 N 
ATOM      9  C   UNL     1       5.718   3.169  15.897  0.00  0.00    +0.000 C 
ATOM     10  C   UNL     1       4.024   4.262  17.401  0.00  0.00    +0.000 A 
ATOM     11  C   UNL     1       3.347   3.131  17.957  0.00  0.00    +0.000 A 
ATOM     12  O   UNL     1       3.612   1.969  17.655  0.00  0.00    +0.000 OA
ENDROOT
BRANCH   3  13
ATOM     13  C   UNL     1       2.094   7.195  18.858  0.00  0.00    +0.000 A 
ATOM     14  C   UNL     1       1.891   8.069  17.780  0.00  0.00    +0.000 A 
ATOM     15  C   UNL     1       1.400   9.356  18.004  0.00  0.00    +0.000 A 
ATOM     16  C   UNL     1       1.097   9.773  19.300  0.00  0.00    +0.000 A 
ATOM     17  C   UNL     1       1.335   8.923  20.378  0.00  0.00    +0.000 A 
ATOM     18  C   UNL     1       1.871   7.653  20.159  0.00  0.00    +0.000 A 
ENDBRANCH   3  13
BRANCH   1  20
ATOM     19  C   UNL     1       1.333   2.848  21.048  0.00  0.00    +0.000 C 
ATOM     20  C   UNL     1       1.634   2.458  19.612  0.00  0.00    +0.000 C 
ENDBRANCH   1  20
TORSDOF 2
ENDMDL
MODEL 8
REMARK VINA RESULT:      -6.3      1.758      3.941
REMARK  Name = 
REMARK  5 active torsions:
REMARK  status: ('A' for Active; 'I' for Inactive)
REMARK    1  A    between atoms: C_1  and  C_2
REMARK    2  A    between atoms: C_2  and  N_3
REMARK    3  A    between atoms: C_5  and  C_6
REMARK    4  A    between atoms: C_13  and  C_14
REMARK    5  A    between atoms: N_16  and  C_17
REMARK                            x       y       z     vdW  Elec       q    Type
REMARK                         _______ _______ _______ _____ _____    ______ ____
ROOT
ATOM      1  N   UNL     1       2.391   3.524  18.857  0.00  0.00    +0.000 N 
ATOM      2  N   UNL     1       1.997   4.841  19.129  0.00  0.00    +0.000 NA
ATOM      3  C   UNL     1       2.606   5.853  18.565  0.00  0.00    +0.000 A 
ATOM      4  C   UNL     1       3.738   5.612  17.686  0.00  0.00    +0.000 A 
ATOM      5  C   UNL     1       4.760   6.370  17.046  0.00  0.00    +0.000 A 
ATOM      6  C   UNL     1       5.084   7.819  17.087  0.00  0.00    +0.000 C 
ATOM      7  N   UNL     1       5.554   5.589  16.297  0.00  0.00    +0.000 NA
ATOM      8  N   UNL     1       5.099   4.340  16.511  0.00  0.00    +0.000 N 
ATOM      9  C   UNL     1       5.756   3.226  15.872  0.00  0.00    +0.000 C 
ATOM     10  C   UNL     1       4.049   4.306  17.371  0.00  0.00    +0.000 A 
ATOM     11  C   UNL     1       3.370   3.170  17.915  0.00  0.00    +0.000 A 
ATOM     12  O   UNL     1       3.638   2.011  17.606  0.00  0.00    +0.000 OA
ENDROOT
BRANCH   3  13
ATOM     13  C   UNL     1       2.102   7.225  18.834  0.00  0.00    +0.000 A 
ATOM     14  C   UNL     1       1.830   7.608  20.155  0.00  0.00    +0.000 A 
ATOM     15  C   UNL     1       1.380   8.900  20.432  0.00  0.00    +0.000 A 
ATOM     16  C   UNL     1       1.211   9.819  19.396  0.00  0.00    +0.000 A 
ATOM     17  C   UNL     1       1.441   9.430  18.078  0.00  0.00    +0.000 A 
ATOM     18  C   UNL     1       1.846   8.125  17.796  0.00  0.00    +0.000 A 
ENDBRANCH   3  13
BRANCH   1  20
ATOM     19  C   UNL     1       1.310   2.873  20.981  0.00  0.00    +0.000 C 
ATOM     20  C   UNL     1       1.645   2.482  19.552  0.00  0.00    +0.000 C 
ENDBRANCH   1  20
TORSDOF 2
ENDMDL
MODEL 9
REMARK VINA RESULT:      -6.2      3.516      5.176
REMARK  Name = 
REMARK  5 active torsions:
REMARK  status: ('A' for Active; 'I' for Inactive)
REMARK    1  A    between atoms: C_1  and  C_2
REMARK    2  A    between atoms: C_2  and  N_3
REMARK    3  A    between atoms: C_5  and  C_6
REMARK    4  A    between atoms: C_13  and  C_14
REMARK    5  A    between atoms: N_16  and  C_17
REMARK                            x       y       z     vdW  Elec       q    Type
REMARK                         _______ _______ _______ _____ _____    ______ ____
ROOT
ATOM      1  N   UNL     1       5.940   4.009  14.795  0.00  0.00    +0.000 N 
ATOM      2  N   UNL     1       4.844   3.475  15.485  0.00  0.00    +0.000 NA
ATOM      3  C   UNL     1       4.511   3.928  16.667  0.00  0.00    +0.000 A 
ATOM      4  C   UNL     1       5.317   4.961  17.295  0.00  0.00    +0.000 A 
ATOM      5  C   UNL     1       5.435   5.579  18.573  0.00  0.00    +0.000 A 
ATOM      6  C   UNL     1       4.729   5.332  19.856  0.00  0.00    +0.000 C 
ATOM      7  N   UNL     1       6.375   6.537  18.569  0.00  0.00    +0.000 NA
ATOM      8  N   UNL     1       6.906   6.485  17.333  0.00  0.00    +0.000 N 
ATOM      9  C   UNL     1       7.986   7.376  16.986  0.00  0.00    +0.000 C 
ATOM     10  C   UNL     1       6.336   5.526  16.559  0.00  0.00    +0.000 A 
ATOM     11  C   UNL     1       6.695   5.106  15.239  0.00  0.00    +0.000 A 
ATOM     12  O   UNL     1       7.590   5.636  14.581  0.00  0.00    +0.000 OA
ENDROOT
BRANCH   3  13
ATOM     13  C   UNL     1       3.298   3.373  17.324  0.00  0.00    +0.000 A 
ATOM     14  C   UNL     1       3.321   2.056  17.806  0.00  0.00    +0.000 A 
ATOM     15  C   UNL     1       2.201   1.524  18.448  0.00  0.00    +0.000 A 
ATOM     16  C   UNL     1       1.060   2.306  18.623  0.00  0.00    +0.000 A 
ATOM     17  C   UNL     1       1.018   3.601  18.111  0.00  0.00    +0.000 A 
ATOM     18  C   UNL     1       2.120   4.117  17.428  0.00  0.00    +0.000 A 
ENDBRANCH   3  13
BRANCH   1  20
ATOM     19  C   UNL     1       5.070   3.609  12.518  0.00  0.00    +0.000 C 
ATOM     20  C   UNL     1       6.219   3.418  13.492  0.00  0.00    +0.000 C 
ENDBRANCH   1  20
TORSDOF 2
ENDMDL
