MODEL 1
REMARK VINA RESULT:      -8.4      0.000      0.000
REMARK  Name = 
REMARK  9 active torsions:
REMARK  status: ('A' for Active; 'I' for Inactive)
REMARK    1  A    between atoms: C_1  and  C_2
REMARK    2  A    between atoms: C_2  and  O_3
REMARK    3  A    between atoms: O_3  and  C_4
REMARK    4  A    between atoms: C_7  and  C_8
REMARK    5  A    between atoms: C_10  and  C_11
REMARK    6  A    between atoms: C_15  and  C_16
REMARK    7  A    between atoms: C_25  and  O_26
REMARK    8  A    between atoms: O_26  and  C_27
REMARK    9  A    between atoms: C_27  and  C_28
REMARK                            x       y       z     vdW  Elec       q    Type
REMARK                         _______ _______ _______ _____ _____    ______ ____
ROOT
ATOM      1  C   UNL     1       2.951   7.230  18.545  0.00  0.00    +0.000 A 
ATOM      2  N   UNL     1       2.365   8.334  18.142  0.00  0.00    +0.000 NA
ATOM      3  C   UNL     1       1.584   8.675  19.224  0.00  0.00    +0.000 A 
ATOM      4  N   UNL     1       1.675   7.821  20.257  0.00  0.00    +0.000 NA
ATOM      5  O   UNL     1       2.579   6.860  19.806  0.00  0.00    +0.000 OA
ENDROOT
BRANCH   1   9
ATOM      6  C   UNL     1       5.716   4.801  16.366  0.00  0.00    +0.000 A 
ATOM      7  C   UNL     1       4.434   4.322  16.667  0.00  0.00    +0.000 A 
ATOM      8  C   UNL     1       3.528   5.104  17.389  0.00  0.00    +0.000 A 
ATOM      9  C   UNL     1       3.893   6.369  17.847  0.00  0.00    +0.000 A 
ATOM     10  C   UNL     1       5.204   6.811  17.614  0.00  0.00    +0.000 A 
ATOM     11  C   UNL     1       6.130   6.025  16.913  0.00  0.00    +0.000 A 
BRANCH   6  12
ATOM     12  O   UNL     1       6.569   4.124  15.534  0.00  0.00    +0.000 OA
BRANCH  12  14
ATOM     13  C   UNL     1       5.954   3.666  13.263  0.00  0.00    +0.000 C 
ATOM     14  C   UNL     1       6.663   4.626  14.198  0.00  0.00    +0.000 C 
ENDBRANCH  12  14
ENDBRANCH   6  12
BRANCH  11  15
ATOM     15  O   UNL     1       7.366   6.610  16.808  0.00  0.00    +0.000 OA
BRANCH  15  16
ATOM     16  C   UNL     1       7.905   7.203  17.991  0.00  0.00    +0.000 C 
ATOM     17  C   UNL     1       8.037   8.702  17.760  0.00  0.00    +0.000 C 
ENDBRANCH  15  16
ENDBRANCH  11  15
ENDBRANCH   1   9
BRANCH   3  18
ATOM     18  C   UNL     1       0.726   9.852  19.204  0.00  0.00    +0.000 A 
ATOM     19  C   UNL     1       0.917  10.912  20.099  0.00  0.00    +0.000 A 
ATOM     20  C   UNL     1       0.069  12.019  20.065  0.00  0.00    +0.000 A 
ATOM     21  C   UNL     1      -0.984  12.069  19.147  0.00  0.00    +0.000 A 
ATOM     22  C   UNL     1      -1.203  11.017  18.249  0.00  0.00    +0.000 A 
ATOM     23  C   UNL     1      -0.328   9.922  18.278  0.00  0.00    +0.000 A 
BRANCH  22  24
ATOM     24  C   UNL     1      -2.326  11.057  17.313  0.00  0.00    +0.000 A 
ATOM     25  C   UNL     1      -3.665  11.356  17.488  0.00  0.00    +0.000 A 
ATOM     26  C   UNL     1      -4.253  11.197  16.222  0.00  0.00    +0.000 A 
ATOM     27  N   UNL     1      -3.371  10.816  15.298  0.00  0.00    +0.000 NA
ATOM     28  N   UNL     1      -2.216  10.734  15.981  0.00  0.00    +0.000 N 
ATOM     29  H   UNL     1      -1.390  10.438  15.478  0.00  0.00    +0.000 HD
ENDBRANCH  22  24
ENDBRANCH   3  18
TORSDOF 7
ENDMDL
MODEL 2
REMARK VINA RESULT:      -8.3      1.444      2.631
REMARK  Name = 
REMARK  9 active torsions:
REMARK  status: ('A' for Active; 'I' for Inactive)
REMARK    1  A    between atoms: C_1  and  C_2
REMARK    2  A    between atoms: C_2  and  O_3
REMARK    3  A    between atoms: O_3  and  C_4
REMARK    4  A    between atoms: C_7  and  C_8
REMARK    5  A    between atoms: C_10  and  C_11
REMARK    6  A    between atoms: C_15  and  C_16
REMARK    7  A    between atoms: C_25  and  O_26
REMARK    8  A    between atoms: O_26  and  C_27
REMARK    9  A    between atoms: C_27  and  C_28
REMARK                            x       y       z     vdW  Elec       q    Type
REMARK                         _______ _______ _______ _____ _____    ______ ____
ROOT
ATOM      1  C   UNL     1       2.644   7.435  18.587  0.00  0.00    +0.000 A 
ATOM      2  N   UNL     1       1.987   8.507  18.210  0.00  0.00    +0.000 NA
ATOM      3  C   UNL     1       1.368   8.909  19.374  0.00  0.00    +0.000 A 
ATOM      4  N   UNL     1       1.625   8.120  20.430  0.00  0.00    +0.000 NA
ATOM      5  O   UNL     1       2.468   7.140  19.909  0.00  0.00    +0.000 OA
ENDROOT
BRANCH   1   9
ATOM      6  C   UNL     1       5.198   4.763  16.436  0.00  0.00    +0.000 A 
ATOM      7  C   UNL     1       5.296   6.148  16.244  0.00  0.00    +0.000 A 
ATOM      8  C   UNL     1       4.458   7.027  16.934  0.00  0.00    +0.000 A 
ATOM      9  C   UNL     1       3.488   6.541  17.809  0.00  0.00    +0.000 A 
ATOM     10  C   UNL     1       3.339   5.152  17.935  0.00  0.00    +0.000 A 
ATOM     11  C   UNL     1       4.157   4.258  17.229  0.00  0.00    +0.000 A 
BRANCH   6  12
ATOM     12  O   UNL     1       6.103   3.887  15.893  0.00  0.00    +0.000 OA
BRANCH  12  14
ATOM     13  C   UNL     1       6.075   3.788  13.499  0.00  0.00    +0.000 C 
ATOM     14  C   UNL     1       6.782   4.343  14.719  0.00  0.00    +0.000 C 
ENDBRANCH  12  14
ENDBRANCH   6  12
BRANCH  11  15
ATOM     15  O   UNL     1       3.846   2.942  17.460  0.00  0.00    +0.000 OA
BRANCH  15  16
ATOM     16  C   UNL     1       3.274   2.624  18.729  0.00  0.00    +0.000 C 
ATOM     17  C   UNL     1       1.884   2.049  18.500  0.00  0.00    +0.000 C 
ENDBRANCH  15  16
ENDBRANCH  11  15
ENDBRANCH   1   9
BRANCH   3  18
ATOM     18  C   UNL     1       0.497  10.075  19.411  0.00  0.00    +0.000 A 
ATOM     19  C   UNL     1       0.711  11.120  20.317  0.00  0.00    +0.000 A 
ATOM     20  C   UNL     1      -0.150  12.217  20.339  0.00  0.00    +0.000 A 
ATOM     21  C   UNL     1      -1.239  12.272  19.465  0.00  0.00    +0.000 A 
ATOM     22  C   UNL     1      -1.482  11.234  18.555  0.00  0.00    +0.000 A 
ATOM     23  C   UNL     1      -0.594  10.150  18.528  0.00  0.00    +0.000 A 
BRANCH  22  24
ATOM     24  C   UNL     1      -2.642  11.279  17.666  0.00  0.00    +0.000 A 
ATOM     25  C   UNL     1      -2.860  10.759  16.404  0.00  0.00    +0.000 A 
ATOM     26  C   UNL     1      -4.162  11.155  16.055  0.00  0.00    +0.000 A 
ATOM     27  N   UNL     1      -4.744  11.882  17.009  0.00  0.00    +0.000 NA
ATOM     28  N   UNL     1      -3.805  11.947  17.970  0.00  0.00    +0.000 N 
ATOM     29  H   UNL     1      -4.019  12.476  18.805  0.00  0.00    +0.000 HD
ENDBRANCH  22  24
ENDBRANCH   3  18
TORSDOF 7
ENDMDL
MODEL 3
REMARK VINA RESULT:      -8.3      1.447      2.413
REMARK  Name = 
REMARK  9 active torsions:
REMARK  status: ('A' for Active; 'I' for Inactive)
REMARK    1  A    between atoms: C_1  and  C_2
REMARK    2  A    between atoms: C_2  and  O_3
REMARK    3  A    between atoms: O_3  and  C_4
REMARK    4  A    between atoms: C_7  and  C_8
REMARK    5  A    between atoms: C_10  and  C_11
REMARK    6  A    between atoms: C_15  and  C_16
REMARK    7  A    between atoms: C_25  and  O_26
REMARK    8  A    between atoms: O_26  and  C_27
REMARK    9  A    between atoms: C_27  and  C_28
REMARK                            x       y       z     vdW  Elec       q    Type
REMARK                         _______ _______ _______ _____ _____    ______ ____
ROOT
ATOM      1  C   UNL     1       2.534   7.473  19.182  0.00  0.00    +0.000 A 
ATOM      2  N   UNL     1       1.927   8.559  18.762  0.00  0.00    +0.000 NA
ATOM      3  C   UNL     1       1.111   8.880  19.825  0.00  0.00    +0.000 A 
ATOM      4  N   UNL     1       1.202   8.030  20.861  0.00  0.00    +0.000 NA
ATOM      5  O   UNL     1       2.143   7.095  20.434  0.00  0.00    +0.000 OA
ENDROOT
BRANCH   1   9
ATOM      6  C   UNL     1       5.527   5.052  17.318  0.00  0.00    +0.000 A 
ATOM      7  C   UNL     1       5.090   6.236  16.708  0.00  0.00    +0.000 A 
ATOM      8  C   UNL     1       4.104   7.027  17.304  0.00  0.00    +0.000 A 
ATOM      9  C   UNL     1       3.517   6.638  18.508  0.00  0.00    +0.000 A 
ATOM     10  C   UNL     1       3.899   5.412  19.072  0.00  0.00    +0.000 A 
ATOM     11  C   UNL     1       4.869   4.597  18.470  0.00  0.00    +0.000 A 
BRANCH   6  12
ATOM     12  O   UNL     1       6.595   4.338  16.838  0.00  0.00    +0.000 OA
BRANCH  12  14
ATOM     13  C   UNL     1       6.057   3.840  14.557  0.00  0.00    +0.000 C 
ATOM     14  C   UNL     1       6.970   4.615  15.485  0.00  0.00    +0.000 C 
ENDBRANCH  12  14
ENDBRANCH   6  12
BRANCH  11  15
ATOM     15  O   UNL     1       5.091   3.427  19.151  0.00  0.00    +0.000 OA
BRANCH  15  16
ATOM     16  C   UNL     1       3.941   2.663  19.519  0.00  0.00    +0.000 C 
ATOM     17  C   UNL     1       3.585   1.743  18.360  0.00  0.00    +0.000 C 
ENDBRANCH  15  16
ENDBRANCH  11  15
ENDBRANCH   1   9
BRANCH   3  18
ATOM     18  C   UNL     1       0.220  10.031  19.782  0.00  0.00    +0.000 A 
ATOM     19  C   UNL     1       0.249  11.016  20.776  0.00  0.00    +0.000 A 
ATOM     20  C   UNL     1      -0.627  12.100  20.715  0.00  0.00    +0.000 A 
ATOM     21  C   UNL     1      -1.547  12.201  19.668  0.00  0.00    +0.000 A 
ATOM     22  C   UNL     1      -1.603  11.223  18.666  0.00  0.00    +0.000 A 
ATOM     23  C   UNL     1      -0.700  10.153  18.727  0.00  0.00    +0.000 A 
BRANCH  22  24
ATOM     24  C   UNL     1      -2.590  11.314  17.591  0.00  0.00    +0.000 A 
ATOM     25  C   UNL     1      -3.971  11.375  17.606  0.00  0.00    +0.000 A 
ATOM     26  C   UNL     1      -4.360  11.423  16.257  0.00  0.00    +0.000 A 
ATOM     27  N   UNL     1      -3.317  11.387  15.428  0.00  0.00    +0.000 NA
ATOM     28  N   UNL     1      -2.260  11.317  16.256  0.00  0.00    +0.000 N 
ATOM     29  H   UNL     1      -1.338  11.260  15.843  0.00  0.00    +0.000 HD
ENDBRANCH  22  24
ENDBRANCH   3  18
TORSDOF 7
ENDMDL
MODEL 4
REMARK VINA RESULT:      -8.2      1.224      1.291
REMARK  Name = 
REMARK  9 active torsions:
REMARK  status: ('A' for Active; 'I' for Inactive)
REMARK    1  A    between atoms: C_1  and  C_2
REMARK    2  A    between atoms: C_2  and  O_3
REMARK    3  A    between atoms: O_3  and  C_4
REMARK    4  A    between atoms: C_7  and  C_8
REMARK    5  A    between atoms: C_10  and  C_11
REMARK    6  A    between atoms: C_15  and  C_16
REMARK    7  A    between atoms: C_25  and  O_26
REMARK    8  A    between atoms: O_26  and  C_27
REMARK    9  A    between atoms: C_27  and  C_28
REMARK                            x       y       z     vdW  Elec       q    Type
REMARK                         _______ _______ _______ _____ _____    ______ ____
ROOT
ATOM      1  C   UNL     1       2.713   7.606  18.360  0.00  0.00    +0.000 A 
ATOM      2  N   UNL     1       2.264   8.719  17.827  0.00  0.00    +0.000 NA
ATOM      3  C   UNL     1       1.460   9.229  18.822  0.00  0.00    +0.000 A 
ATOM      4  N   UNL     1       1.406   8.467  19.926  0.00  0.00    +0.000 NA
ATOM      5  O   UNL     1       2.234   7.388  19.620  0.00  0.00    +0.000 OA
ENDROOT
BRANCH   1   9
ATOM      6  C   UNL     1       5.321   4.725  16.574  0.00  0.00    +0.000 A 
ATOM      7  C   UNL     1       4.055   4.344  17.041  0.00  0.00    +0.000 A 
ATOM      8  C   UNL     1       3.202   5.276  17.637  0.00  0.00    +0.000 A 
ATOM      9  C   UNL     1       3.604   6.601  17.801  0.00  0.00    +0.000 A 
ATOM     10  C   UNL     1       4.902   6.958  17.407  0.00  0.00    +0.000 A 
ATOM     11  C   UNL     1       5.777   6.026  16.831  0.00  0.00    +0.000 A 
BRANCH   6  12
ATOM     12  O   UNL     1       6.115   3.873  15.851  0.00  0.00    +0.000 OA
BRANCH  12  14
ATOM     13  C   UNL     1       5.856   3.747  13.472  0.00  0.00    +0.000 C 
ATOM     14  C   UNL     1       6.618   4.389  14.615  0.00  0.00    +0.000 C 
ENDBRANCH  12  14
ENDBRANCH   6  12
BRANCH  11  15
ATOM     15  O   UNL     1       7.009   6.551  16.536  0.00  0.00    +0.000 OA
BRANCH  15  16
ATOM     16  C   UNL     1       7.653   7.311  17.560  0.00  0.00    +0.000 C 
ATOM     17  C   UNL     1       7.956   6.383  18.728  0.00  0.00    +0.000 C 
ENDBRANCH  15  16
ENDBRANCH  11  15
ENDBRANCH   1   9
BRANCH   3  18
ATOM     18  C   UNL     1       0.726  10.474  18.645  0.00  0.00    +0.000 A 
ATOM     19  C   UNL     1       1.350  11.719  18.791  0.00  0.00    +0.000 A 
ATOM     20  C   UNL     1       0.617  12.894  18.630  0.00  0.00    +0.000 A 
ATOM     21  C   UNL     1      -0.748  12.836  18.336  0.00  0.00    +0.000 A 
ATOM     22  C   UNL     1      -1.399  11.603  18.196  0.00  0.00    +0.000 A 
ATOM     23  C   UNL     1      -0.645  10.430  18.336  0.00  0.00    +0.000 A 
BRANCH  22  24
ATOM     24  C   UNL     1      -2.835  11.545  17.924  0.00  0.00    +0.000 A 
ATOM     25  C   UNL     1      -3.560  10.956  16.904  0.00  0.00    +0.000 A 
ATOM     26  C   UNL     1      -4.904  11.266  17.171  0.00  0.00    +0.000 A 
ATOM     27  N   UNL     1      -5.044  12.005  18.272  0.00  0.00    +0.000 NA
ATOM     28  N   UNL     1      -3.782  12.164  18.706  0.00  0.00    +0.000 N 
ATOM     29  H   UNL     1      -3.634  12.720  19.538  0.00  0.00    +0.000 HD
ENDBRANCH  22  24
ENDBRANCH   3  18
TORSDOF 7
ENDMDL
MODEL 5
REMARK VINA RESULT:      -8.1      1.021      1.117
REMARK  Name = 
REMARK  9 active torsions:
REMARK  status: ('A' for Active; 'I' for Inactive)
REMARK    1  A    between atoms: C_1  and  C_2
REMARK    2  A    between atoms: C_2  and  O_3
REMARK    3  A    between atoms: O_3  and  C_4
REMARK    4  A    between atoms: C_7  and  C_8
REMARK    5  A    between atoms: C_10  and  C_11
REMARK    6  A    between atoms: C_15  and  C_16
REMARK    7  A    between atoms: C_25  and  O_26
REMARK    8  A    between atoms: O_26  and  C_27
REMARK    9  A    between atoms: C_27  and  C_28
REMARK                            x       y       z     vdW  Elec       q    Type
REMARK                         _______ _______ _______ _____ _____    ______ ____
ROOT
ATOM      1  C   UNL     1       2.282   7.706  18.883  0.00  0.00    +0.000 A 
ATOM      2  N   UNL     1       1.754   8.822  18.434  0.00  0.00    +0.000 NA
ATOM      3  C   UNL     1       1.067   9.294  19.531  0.00  0.00    +0.000 A 
ATOM      4  N   UNL     1       1.158   8.507  20.615  0.00  0.00    +0.000 NA
ATOM      5  O   UNL     1       1.961   7.451  20.185  0.00  0.00    +0.000 OA
ENDROOT
BRANCH   1   9
ATOM      6  C   UNL     1       4.699   4.914  16.726  0.00  0.00    +0.000 A 
ATOM      7  C   UNL     1       3.523   4.492  17.362  0.00  0.00    +0.000 A 
ATOM      8  C   UNL     1       2.734   5.395  18.079  0.00  0.00    +0.000 A 
ATOM      9  C   UNL     1       3.115   6.731  18.196  0.00  0.00    +0.000 A 
ATOM     10  C   UNL     1       4.334   7.130  17.628  0.00  0.00    +0.000 A 
ATOM     11  C   UNL     1       5.148   6.227  16.928  0.00  0.00    +0.000 A 
BRANCH   6  12
ATOM     12  O   UNL     1       5.410   4.089  15.893  0.00  0.00    +0.000 OA
BRANCH  12  14
ATOM     13  C   UNL     1       6.699   4.357  13.890  0.00  0.00    +0.000 C 
ATOM     14  C   UNL     1       5.309   4.380  14.495  0.00  0.00    +0.000 C 
ENDBRANCH  12  14
ENDBRANCH   6  12
BRANCH  11  15
ATOM     15  O   UNL     1       6.311   6.791  16.468  0.00  0.00    +0.000 OA
BRANCH  15  16
ATOM     16  C   UNL     1       7.440   6.754  17.343  0.00  0.00    +0.000 C 
ATOM     17  C   UNL     1       7.864   8.185  17.641  0.00  0.00    +0.000 C 
ENDBRANCH  15  16
ENDBRANCH  11  15
ENDBRANCH   1   9
BRANCH   3  18
ATOM     18  C   UNL     1       0.297  10.529  19.475  0.00  0.00    +0.000 A 
ATOM     19  C   UNL     1       0.763  11.710  20.062  0.00  0.00    +0.000 A 
ATOM     20  C   UNL     1      -0.004  12.874  20.004  0.00  0.00    +0.000 A 
ATOM     21  C   UNL     1      -1.250  12.862  19.371  0.00  0.00    +0.000 A 
ATOM     22  C   UNL     1      -1.744  11.690  18.784  0.00  0.00    +0.000 A 
ATOM     23  C   UNL     1      -0.952  10.535  18.829  0.00  0.00    +0.000 A 
BRANCH  22  24
ATOM     24  C   UNL     1      -3.064  11.672  18.153  0.00  0.00    +0.000 A 
ATOM     25  C   UNL     1      -4.341  11.644  18.680  0.00  0.00    +0.000 A 
ATOM     26  C   UNL     1      -5.205  11.611  17.572  0.00  0.00    +0.000 A 
ATOM     27  N   UNL     1      -4.543  11.609  16.415  0.00  0.00    +0.000 NA
ATOM     28  N   UNL     1      -3.253  11.641  16.791  0.00  0.00    +0.000 N 
ATOM     29  H   UNL     1      -2.548  11.628  16.065  0.00  0.00    +0.000 HD
ENDBRANCH  22  24
ENDBRANCH   3  18
TORSDOF 7
ENDMDL
MODEL 6
REMARK VINA RESULT:      -8.0      1.771      2.785
REMARK  Name = 
REMARK  9 active torsions:
REMARK  status: ('A' for Active; 'I' for Inactive)
REMARK    1  A    between atoms: C_1  and  C_2
REMARK    2  A    between atoms: C_2  and  O_3
REMARK    3  A    between atoms: O_3  and  C_4
REMARK    4  A    between atoms: C_7  and  C_8
REMARK    5  A    between atoms: C_10  and  C_11
REMARK    6  A    between atoms: C_15  and  C_16
REMARK    7  A    between atoms: C_25  and  O_26
REMARK    8  A    between atoms: O_26  and  C_27
REMARK    9  A    between atoms: C_27  and  C_28
REMARK                            x       y       z     vdW  Elec       q    Type
REMARK                         _______ _______ _______ _____ _____    ______ ____
ROOT
ATOM      1  C   UNL     1       2.299   7.664  18.897  0.00  0.00    +0.000 A 
ATOM      2  N   UNL     1       1.658   8.751  18.537  0.00  0.00    +0.000 NA
ATOM      3  C   UNL     1       1.046   9.145  19.707  0.00  0.00    +0.000 A 
ATOM      4  N   UNL     1       1.292   8.336  20.751  0.00  0.00    +0.000 NA
ATOM      5  O   UNL     1       2.120   7.352  20.215  0.00  0.00    +0.000 OA
ENDROOT
BRANCH   1   9
ATOM      6  C   UNL     1       4.811   4.985  16.704  0.00  0.00    +0.000 A 
ATOM      7  C   UNL     1       4.940   6.372  16.544  0.00  0.00    +0.000 A 
ATOM      8  C   UNL     1       4.116   7.253  17.247  0.00  0.00    +0.000 A 
ATOM      9  C   UNL     1       3.129   6.769  18.105  0.00  0.00    +0.000 A 
ATOM     10  C   UNL     1       2.949   5.381  18.199  0.00  0.00    +0.000 A 
ATOM     11  C   UNL     1       3.753   4.486  17.479  0.00  0.00    +0.000 A 
BRANCH   6  12
ATOM     12  O   UNL     1       5.700   4.103  16.148  0.00  0.00    +0.000 OA
BRANCH  12  14
ATOM     13  C   UNL     1       7.621   4.520  17.518  0.00  0.00    +0.000 C 
ATOM     14  C   UNL     1       7.063   4.535  16.109  0.00  0.00    +0.000 C 
ENDBRANCH  12  14
ENDBRANCH   6  12
BRANCH  11  15
ATOM     15  O   UNL     1       3.412   3.172  17.677  0.00  0.00    +0.000 OA
BRANCH  15  16
ATOM     16  C   UNL     1       3.073   2.785  19.010  0.00  0.00    +0.000 C 
ATOM     17  C   UNL     1       4.353   2.408  19.742  0.00  0.00    +0.000 C 
ENDBRANCH  15  16
ENDBRANCH  11  15
ENDBRANCH   1   9
BRANCH   3  18
ATOM     18  C   UNL     1       0.192  10.323  19.762  0.00  0.00    +0.000 A 
ATOM     19  C   UNL     1       0.471  11.389  20.626  0.00  0.00    +0.000 A 
ATOM     20  C   UNL     1      -0.374  12.498  20.667  0.00  0.00    +0.000 A 
ATOM     21  C   UNL     1      -1.511  12.544  19.856  0.00  0.00    +0.000 A 
ATOM     22  C   UNL     1      -1.819  11.486  18.991  0.00  0.00    +0.000 A 
ATOM     23  C   UNL     1      -0.947  10.389  18.943  0.00  0.00    +0.000 A 
BRANCH  22  24
ATOM     24  C   UNL     1      -3.028  11.522  18.170  0.00  0.00    +0.000 A 
ATOM     25  C   UNL     1      -3.322  10.981  16.932  0.00  0.00    +0.000 A 
ATOM     26  C   UNL     1      -4.640  11.379  16.651  0.00  0.00    +0.000 A 
ATOM     27  N   UNL     1      -5.161  12.126  17.624  0.00  0.00    +0.000 NA
ATOM     28  N   UNL     1      -4.168  12.202  18.528  0.00  0.00    +0.000 N 
ATOM     29  H   UNL     1      -4.331  12.747  19.364  0.00  0.00    +0.000 HD
ENDBRANCH  22  24
ENDBRANCH   3  18
TORSDOF 7
ENDMDL
MODEL 7
REMARK VINA RESULT:      -8.0      3.333      9.570
REMARK  Name = 
REMARK  9 active torsions:
REMARK  status: ('A' for Active; 'I' for Inactive)
REMARK    1  A    between atoms: C_1  and  C_2
REMARK    2  A    between atoms: C_2  and  O_3
REMARK    3  A    between atoms: O_3  and  C_4
REMARK    4  A    between atoms: C_7  and  C_8
REMARK    5  A    between atoms: C_10  and  C_11
REMARK    6  A    between atoms: C_15  and  C_16
REMARK    7  A    between atoms: C_25  and  O_26
REMARK    8  A    between atoms: O_26  and  C_27
REMARK    9  A    between atoms: C_27  and  C_28
REMARK                            x       y       z     vdW  Elec       q    Type
REMARK                         _______ _______ _______ _____ _____    ______ ____
ROOT
ATOM      1  C   UNL     1       1.445   8.907  19.521  0.00  0.00    +0.000 A 
ATOM      2  N   UNL     1       1.928   7.693  19.655  0.00  0.00    +0.000 NA
ATOM      3  C   UNL     1       2.589   7.497  18.462  0.00  0.00    +0.000 A 
ATOM      4  N   UNL     1       2.520   8.541  17.620  0.00  0.00    +0.000 NA
ATOM      5  O   UNL     1       1.759   9.476  18.320  0.00  0.00    +0.000 OA
ENDROOT
BRANCH   1   9
ATOM      6  C   UNL     1      -0.820  11.322  22.230  0.00  0.00    +0.000 A 
ATOM      7  C   UNL     1      -0.339  10.067  22.629  0.00  0.00    +0.000 A 
ATOM      8  C   UNL     1       0.392   9.267  21.747  0.00  0.00    +0.000 A 
ATOM      9  C   UNL     1       0.635   9.691  20.441  0.00  0.00    +0.000 A 
ATOM     10  C   UNL     1       0.081  10.910  20.022  0.00  0.00    +0.000 A 
ATOM     11  C   UNL     1      -0.675  11.711  20.890  0.00  0.00    +0.000 A 
BRANCH   6  12
ATOM     12  O   UNL     1      -1.405  12.191  23.114  0.00  0.00    +0.000 OA
BRANCH  12  14
ATOM     13  C   UNL     1      -3.357  13.207  24.061  0.00  0.00    +0.000 C 
ATOM     14  C   UNL     1      -2.800  11.988  23.354  0.00  0.00    +0.000 C 
ENDBRANCH  12  14
ENDBRANCH   6  12
BRANCH  11  15
ATOM     15  O   UNL     1      -1.155  12.849  20.295  0.00  0.00    +0.000 OA
BRANCH  15  16
ATOM     16  C   UNL     1      -0.321  13.470  19.315  0.00  0.00    +0.000 C 
ATOM     17  C   UNL     1      -0.555  14.973  19.368  0.00  0.00    +0.000 C 
ENDBRANCH  15  16
ENDBRANCH  11  15
ENDBRANCH   1   9
BRANCH   3  18
ATOM     18  C   UNL     1       3.269   6.245  18.165  0.00  0.00    +0.000 A 
ATOM     19  C   UNL     1       3.066   5.098  18.943  0.00  0.00    +0.000 A 
ATOM     20  C   UNL     1       3.742   3.917  18.642  0.00  0.00    +0.000 A 
ATOM     21  C   UNL     1       4.638   3.875  17.570  0.00  0.00    +0.000 A 
ATOM     22  C   UNL     1       4.867   5.010  16.782  0.00  0.00    +0.000 A 
ATOM     23  C   UNL     1       4.162   6.184  17.081  0.00  0.00    +0.000 A 
BRANCH  22  24
ATOM     24  C   UNL     1       5.831   4.972  15.682  0.00  0.00    +0.000 A 
ATOM     25  C   UNL     1       5.849   4.270  14.492  0.00  0.00    +0.000 A 
ATOM     26  C   UNL     1       7.051   4.630  13.861  0.00  0.00    +0.000 A 
ATOM     27  N   UNL     1       7.765   5.491  14.585  0.00  0.00    +0.000 NA
ATOM     28  N   UNL     1       7.010   5.680  15.682  0.00  0.00    +0.000 N 
ATOM     29  H   UNL     1       7.366   6.296  16.401  0.00  0.00    +0.000 HD
ENDBRANCH  22  24
ENDBRANCH   3  18
TORSDOF 7
ENDMDL
MODEL 8
REMARK VINA RESULT:      -8.0      2.462      3.079
REMARK  Name = 
REMARK  9 active torsions:
REMARK  status: ('A' for Active; 'I' for Inactive)
REMARK    1  A    between atoms: C_1  and  C_2
REMARK    2  A    between atoms: C_2  and  O_3
REMARK    3  A    between atoms: O_3  and  C_4
REMARK    4  A    between atoms: C_7  and  C_8
REMARK    5  A    between atoms: C_10  and  C_11
REMARK    6  A    between atoms: C_15  and  C_16
REMARK    7  A    between atoms: C_25  and  O_26
REMARK    8  A    between atoms: O_26  and  C_27
REMARK    9  A    between atoms: C_27  and  C_28
REMARK                            x       y       z     vdW  Elec       q    Type
REMARK                         _______ _______ _______ _____ _____    ______ ____
ROOT
ATOM      1  C   UNL     1       2.340   7.879  18.542  0.00  0.00    +0.000 A 
ATOM      2  N   UNL     1       1.884   7.991  19.769  0.00  0.00    +0.000 NA
ATOM      3  C   UNL     1       1.114   9.132  19.703  0.00  0.00    +0.000 A 
ATOM      4  N   UNL     1       1.094   9.709  18.490  0.00  0.00    +0.000 NA
ATOM      5  O   UNL     1       1.909   8.880  17.720  0.00  0.00    +0.000 OA
ENDROOT
BRANCH   1   9
ATOM      6  C   UNL     1       4.919   5.000  16.711  0.00  0.00    +0.000 A 
ATOM      7  C   UNL     1       3.708   4.600  17.292  0.00  0.00    +0.000 A 
ATOM      8  C   UNL     1       2.865   5.532  17.903  0.00  0.00    +0.000 A 
ATOM      9  C   UNL     1       3.226   6.877  17.969  0.00  0.00    +0.000 A 
ATOM     10  C   UNL     1       4.476   7.259  17.459  0.00  0.00    +0.000 A 
ATOM     11  C   UNL     1       5.342   6.328  16.866  0.00  0.00    +0.000 A 
BRANCH   6  12
ATOM     12  O   UNL     1       5.691   4.139  15.974  0.00  0.00    +0.000 OA
BRANCH  12  14
ATOM     13  C   UNL     1       6.904   4.524  13.944  0.00  0.00    +0.000 C 
ATOM     14  C   UNL     1       5.547   4.235  14.554  0.00  0.00    +0.000 C 
ENDBRANCH  12  14
ENDBRANCH   6  12
BRANCH  11  15
ATOM     15  O   UNL     1       6.527   6.881  16.451  0.00  0.00    +0.000 OA
BRANCH  15  16
ATOM     16  C   UNL     1       7.333   7.511  17.448  0.00  0.00    +0.000 C 
ATOM     17  C   UNL     1       7.782   6.452  18.444  0.00  0.00    +0.000 C 
ENDBRANCH  15  16
ENDBRANCH  11  15
ENDBRANCH   1   9
BRANCH   3  18
ATOM     18  C   UNL     1       0.422   9.653  20.873  0.00  0.00    +0.000 A 
ATOM     19  C   UNL     1       0.475   8.996  22.108  0.00  0.00    +0.000 A 
ATOM     20  C   UNL     1      -0.211   9.512  23.207  0.00  0.00    +0.000 A 
ATOM     21  C   UNL     1      -0.967  10.680  23.078  0.00  0.00    +0.000 A 
ATOM     22  C   UNL     1      -1.045  11.351  21.850  0.00  0.00    +0.000 A 
ATOM     23  C   UNL     1      -0.331  10.834  20.761  0.00  0.00    +0.000 A 
BRANCH  22  24
ATOM     24  C   UNL     1      -1.865  12.554  21.709  0.00  0.00    +0.000 A 
ATOM     25  C   UNL     1      -2.853  13.098  22.509  0.00  0.00    +0.000 A 
ATOM     26  C   UNL     1      -3.291  14.249  21.832  0.00  0.00    +0.000 A 
ATOM     27  N   UNL     1      -2.647  14.436  20.680  0.00  0.00    +0.000 NA
ATOM     28  N   UNL     1      -1.795  13.397  20.626  0.00  0.00    +0.000 N 
ATOM     29  H   UNL     1      -1.200  13.317  19.812  0.00  0.00    +0.000 HD
ENDBRANCH  22  24
ENDBRANCH   3  18
TORSDOF 7
ENDMDL
MODEL 9
REMARK VINA RESULT:      -7.9      2.822      4.286
REMARK  Name = 
REMARK  9 active torsions:
REMARK  status: ('A' for Active; 'I' for Inactive)
REMARK    1  A    between atoms: C_1  and  C_2
REMARK    2  A    between atoms: C_2  and  O_3
REMARK    3  A    between atoms: O_3  and  C_4
REMARK    4  A    between atoms: C_7  and  C_8
REMARK    5  A    between atoms: C_10  and  C_11
REMARK    6  A    between atoms: C_15  and  C_16
REMARK    7  A    between atoms: C_25  and  O_26
REMARK    8  A    between atoms: O_26  and  C_27
REMARK    9  A    between atoms: C_27  and  C_28
REMARK                            x       y       z     vdW  Elec       q    Type
REMARK                         _______ _______ _______ _____ _____    ______ ____
ROOT
ATOM      1  C   UNL     1       2.353   8.007  18.445  0.00  0.00    +0.000 A 
ATOM      2  N   UNL     1       1.850   8.065  19.657  0.00  0.00    +0.000 NA
ATOM      3  C   UNL     1       1.184   9.271  19.651  0.00  0.00    +0.000 A 
ATOM      4  N   UNL     1       1.271   9.938  18.488  0.00  0.00    +0.000 NA
ATOM      5  O   UNL     1       2.049   9.102  17.689  0.00  0.00    +0.000 OA
ENDROOT
BRANCH   1   9
ATOM      6  C   UNL     1       4.828   4.939  16.783  0.00  0.00    +0.000 A 
ATOM      7  C   UNL     1       5.111   6.290  16.540  0.00  0.00    +0.000 A 
ATOM      8  C   UNL     1       4.301   7.298  17.068  0.00  0.00    +0.000 A 
ATOM      9  C   UNL     1       3.178   6.978  17.830  0.00  0.00    +0.000 A 
ATOM     10  C   UNL     1       2.852   5.625  18.002  0.00  0.00    +0.000 A 
ATOM     11  C   UNL     1       3.643   4.603  17.455  0.00  0.00    +0.000 A 
BRANCH   6  12
ATOM     12  O   UNL     1       5.685   3.938  16.408  0.00  0.00    +0.000 OA
BRANCH  12  14
ATOM     13  C   UNL     1       6.167   3.880  14.061  0.00  0.00    +0.000 C 
ATOM     14  C   UNL     1       6.668   4.293  15.431  0.00  0.00    +0.000 C 
ENDBRANCH  12  14
ENDBRANCH   6  12
BRANCH  11  15
ATOM     15  O   UNL     1       3.153   3.347  17.705  0.00  0.00    +0.000 OA
BRANCH  15  16
ATOM     16  C   UNL     1       1.764   3.245  18.026  0.00  0.00    +0.000 C 
ATOM     17  C   UNL     1       1.599   2.194  19.114  0.00  0.00    +0.000 C 
ENDBRANCH  15  16
ENDBRANCH  11  15
ENDBRANCH   1   9
BRANCH   3  18
ATOM     18  C   UNL     1       0.483   9.760  20.829  0.00  0.00    +0.000 A 
ATOM     19  C   UNL     1       0.131   8.904  21.880  0.00  0.00    +0.000 A 
ATOM     20  C   UNL     1      -0.554   9.400  22.989  0.00  0.00    +0.000 A 
ATOM     21  C   UNL     1      -0.904  10.751  23.051  0.00  0.00    +0.000 A 
ATOM     22  C   UNL     1      -0.573  11.627  22.009  0.00  0.00    +0.000 A 
ATOM     23  C   UNL     1       0.136  11.120  20.912  0.00  0.00    +0.000 A 
BRANCH  22  24
ATOM     24  C   UNL     1      -0.972  13.033  22.061  0.00  0.00    +0.000 A 
ATOM     25  C   UNL     1      -1.048  13.935  23.107  0.00  0.00    +0.000 A 
ATOM     26  C   UNL     1      -1.525  15.128  22.540  0.00  0.00    +0.000 A 
ATOM     27  N   UNL     1      -1.751  15.012  21.231  0.00  0.00    +0.000 NA
ATOM     28  N   UNL     1      -1.414  13.738  20.966  0.00  0.00    +0.000 N 
ATOM     29  H   UNL     1      -1.522  13.408  20.016  0.00  0.00    +0.000 HD
ENDBRANCH  22  24
ENDBRANCH   3  18
TORSDOF 7
ENDMDL
