MODEL 1
REMARK VINA RESULT:      -7.4      0.000      0.000
REMARK  Name = 
REMARK  3 active torsions:
REMARK  status: ('A' for Active; 'I' for Inactive)
REMARK    1  A    between atoms: C_2  and  C_18
REMARK    2  A    between atoms: C_7  and  C_8
REMARK    3  A    between atoms: C_8  and  C_9
REMARK                            x       y       z     vdW  Elec       q    Type
REMARK                         _______ _______ _______ _____ _____    ______ ____
ROOT
ATOM      1  O   UNL     1       8.055  10.205  17.477  0.00  0.00    +0.000 OA
ATOM      2  C   UNL     1       8.741   9.769  18.398  0.00  0.00    +0.000 C 
ATOM      3  N   UNL     1       8.745   8.454  18.820  0.00  0.00    +0.000 N 
ATOM      4  C   UNL     1       7.981   7.514  18.185  0.00  0.00    +0.000 A 
ATOM      5  N   UNL     1       7.345   7.623  17.050  0.00  0.00    +0.000 NA
ATOM      6  C   UNL     1       6.624   6.478  16.808  0.00  0.00    +0.000 A 
ATOM      7  C   UNL     1       6.718   5.498  17.775  0.00  0.00    +0.000 A 
ATOM      8  S   UNL     1       7.818   6.019  18.995  0.00  0.00    +0.000 S 
ATOM      9  H   UNL     1       9.234   8.191  19.661  0.00  0.00    +0.000 HD
ENDROOT
BRANCH   2  10
ATOM     10  C   UNL     1       9.582  10.682  19.168  0.00  0.00    +0.000 A 
ATOM     11  C   UNL     1      10.776  11.230  18.730  0.00  0.00    +0.000 A 
ATOM     12  C   UNL     1      11.403  12.048  19.711  0.00  0.00    +0.000 A 
ATOM     13  C   UNL     1      10.667  12.103  20.872  0.00  0.00    +0.000 A 
ATOM     14  S   UNL     1       9.220  11.190  20.763  0.00  0.00    +0.000 S 
ENDBRANCH   2  10
BRANCH   7  15
ATOM     15  C   UNL     1       6.005   4.183  17.841  0.00  0.00    +0.000 C 
BRANCH  15  16
ATOM     16  C   UNL     1       4.630   4.293  18.462  0.00  0.00    +0.000 A 
ATOM     17  C   UNL     1       4.287   5.484  19.125  0.00  0.00    +0.000 A 
ATOM     18  C   UNL     1       3.061   5.610  19.780  0.00  0.00    +0.000 A 
ATOM     19  C   UNL     1       2.166   4.544  19.784  0.00  0.00    +0.000 A 
ATOM     20 CL   UNL     1       0.671   4.690  20.622  0.00  0.00    +0.000 Cl
ATOM     21  C   UNL     1       2.475   3.362  19.120  0.00  0.00    +0.000 A 
ATOM     22  C   UNL     1       3.699   3.236  18.462  0.00  0.00    +0.000 A 
ATOM     23 CL   UNL     1       4.006   1.744  17.643  0.00  0.00    +0.000 Cl
ENDBRANCH  15  16
ENDBRANCH   7  15
TORSDOF 3
ENDMDL
MODEL 2
REMARK VINA RESULT:      -7.3      5.342      7.314
REMARK  Name = 
REMARK  3 active torsions:
REMARK  status: ('A' for Active; 'I' for Inactive)
REMARK    1  A    between atoms: C_2  and  C_18
REMARK    2  A    between atoms: C_7  and  C_8
REMARK    3  A    between atoms: C_8  and  C_9
REMARK                            x       y       z     vdW  Elec       q    Type
REMARK                         _______ _______ _______ _____ _____    ______ ____
ROOT
ATOM      1  O   UNL     1       1.213   9.592  19.004  0.00  0.00    +0.000 OA
ATOM      2  C   UNL     1       1.222   9.034  20.098  0.00  0.00    +0.000 C 
ATOM      3  N   UNL     1       1.887   7.855  20.373  0.00  0.00    +0.000 N 
ATOM      4  C   UNL     1       2.636   7.234  19.412  0.00  0.00    +0.000 A 
ATOM      5  N   UNL     1       3.004   7.701  18.249  0.00  0.00    +0.000 NA
ATOM      6  C   UNL     1       3.674   6.727  17.547  0.00  0.00    +0.000 A 
ATOM      7  C   UNL     1       3.810   5.514  18.190  0.00  0.00    +0.000 A 
ATOM      8  S   UNL     1       3.127   5.638  19.769  0.00  0.00    +0.000 S 
ATOM      9  H   UNL     1       1.748   7.386  21.254  0.00  0.00    +0.000 HD
ENDROOT
BRANCH   2  10
ATOM     10  C   UNL     1       0.440   9.589  21.200  0.00  0.00    +0.000 A 
ATOM     11  C   UNL     1       0.259   8.988  22.434  0.00  0.00    +0.000 A 
ATOM     12  C   UNL     1      -0.589   9.735  23.296  0.00  0.00    +0.000 A 
ATOM     13  C   UNL     1      -1.033  10.891  22.695  0.00  0.00    +0.000 A 
ATOM     14  S   UNL     1      -0.406  11.075  21.111  0.00  0.00    +0.000 S 
ENDBRANCH   2  10
BRANCH   7  15
ATOM     15  C   UNL     1       4.416   4.247  17.672  0.00  0.00    +0.000 C 
BRANCH  15  16
ATOM     16  C   UNL     1       5.279   4.469  16.449  0.00  0.00    +0.000 A 
ATOM     17  C   UNL     1       4.714   4.246  15.180  0.00  0.00    +0.000 A 
ATOM     18  C   UNL     1       5.486   4.362  14.024  0.00  0.00    +0.000 A 
ATOM     19  C   UNL     1       6.833   4.697  14.123  0.00  0.00    +0.000 A 
ATOM     20 CL   UNL     1       7.790   4.804  12.697  0.00  0.00    +0.000 Cl
ATOM     21  C   UNL     1       7.411   4.939  15.364  0.00  0.00    +0.000 A 
ATOM     22  C   UNL     1       6.639   4.827  16.521  0.00  0.00    +0.000 A 
ATOM     23 CL   UNL     1       7.420   5.161  18.027  0.00  0.00    +0.000 Cl
ENDBRANCH  15  16
ENDBRANCH   7  15
TORSDOF 3
ENDMDL
MODEL 3
REMARK VINA RESULT:      -7.2      1.350      1.664
REMARK  Name = 
REMARK  3 active torsions:
REMARK  status: ('A' for Active; 'I' for Inactive)
REMARK    1  A    between atoms: C_2  and  C_18
REMARK    2  A    between atoms: C_7  and  C_8
REMARK    3  A    between atoms: C_8  and  C_9
REMARK                            x       y       z     vdW  Elec       q    Type
REMARK                         _______ _______ _______ _____ _____    ______ ____
ROOT
ATOM      1  O   UNL     1       8.304  10.163  17.492  0.00  0.00    +0.000 OA
ATOM      2  C   UNL     1       8.794   9.724  18.530  0.00  0.00    +0.000 C 
ATOM      3  N   UNL     1       8.689   8.414  18.955  0.00  0.00    +0.000 N 
ATOM      4  C   UNL     1       8.037   7.482  18.196  0.00  0.00    +0.000 A 
ATOM      5  N   UNL     1       7.630   7.590  16.960  0.00  0.00    +0.000 NA
ATOM      6  C   UNL     1       6.941   6.458  16.595  0.00  0.00    +0.000 A 
ATOM      7  C   UNL     1       6.829   5.487  17.570  0.00  0.00    +0.000 A 
ATOM      8  S   UNL     1       7.691   6.001  18.972  0.00  0.00    +0.000 S 
ATOM      9  H   UNL     1       9.004   8.151  19.876  0.00  0.00    +0.000 HD
ENDROOT
BRANCH   2  10
ATOM     10  C   UNL     1       9.494  10.629  19.438  0.00  0.00    +0.000 A 
ATOM     11  C   UNL     1       9.134  10.878  20.751  0.00  0.00    +0.000 A 
ATOM     12  C   UNL     1       9.971  11.839  21.382  0.00  0.00    +0.000 A 
ATOM     13  C   UNL     1      10.951  12.296  20.530  0.00  0.00    +0.000 A 
ATOM     14  S   UNL     1      10.867  11.548  18.991  0.00  0.00    +0.000 S 
ENDBRANCH   2  10
BRANCH   7  15
ATOM     15  C   UNL     1       6.087   4.188  17.511  0.00  0.00    +0.000 C 
BRANCH  15  16
ATOM     16  C   UNL     1       4.832   4.191  18.356  0.00  0.00    +0.000 A 
ATOM     17  C   UNL     1       4.667   3.175  19.313  0.00  0.00    +0.000 A 
ATOM     18  C   UNL     1       3.495   3.086  20.066  0.00  0.00    +0.000 A 
ATOM     19  C   UNL     1       2.473   4.010  19.866  0.00  0.00    +0.000 A 
ATOM     20 CL   UNL     1       1.016   3.877  20.771  0.00  0.00    +0.000 Cl
ATOM     21  C   UNL     1       2.620   5.035  18.938  0.00  0.00    +0.000 A 
ATOM     22  C   UNL     1       3.793   5.126  18.187  0.00  0.00    +0.000 A 
ATOM     23 CL   UNL     1       3.912   6.437  17.065  0.00  0.00    +0.000 Cl
ENDBRANCH  15  16
ENDBRANCH   7  15
TORSDOF 3
ENDMDL
MODEL 4
REMARK VINA RESULT:      -7.2      5.234      7.189
REMARK  Name = 
REMARK  3 active torsions:
REMARK  status: ('A' for Active; 'I' for Inactive)
REMARK    1  A    between atoms: C_2  and  C_18
REMARK    2  A    between atoms: C_7  and  C_8
REMARK    3  A    between atoms: C_8  and  C_9
REMARK                            x       y       z     vdW  Elec       q    Type
REMARK                         _______ _______ _______ _____ _____    ______ ____
ROOT
ATOM      1  O   UNL     1       0.809   8.798  20.735  0.00  0.00    +0.000 OA
ATOM      2  C   UNL     1       1.038   9.224  19.607  0.00  0.00    +0.000 C 
ATOM      3  N   UNL     1       1.829   8.586  18.671  0.00  0.00    +0.000 N 
ATOM      4  C   UNL     1       2.397   7.372  18.947  0.00  0.00    +0.000 A 
ATOM      5  N   UNL     1       2.146   6.573  19.949  0.00  0.00    +0.000 NA
ATOM      6  C   UNL     1       2.995   5.493  19.907  0.00  0.00    +0.000 A 
ATOM      7  C   UNL     1       3.895   5.481  18.861  0.00  0.00    +0.000 A 
ATOM      8  S   UNL     1       3.603   6.852  17.857  0.00  0.00    +0.000 S 
ATOM      9  H   UNL     1       2.079   9.052  17.813  0.00  0.00    +0.000 HD
ENDROOT
BRANCH   2  10
ATOM     10  C   UNL     1       0.506  10.523  19.202  0.00  0.00    +0.000 A 
ATOM     11  C   UNL     1      -0.795  10.762  18.794  0.00  0.00    +0.000 A 
ATOM     12  C   UNL     1      -1.019  12.114  18.415  0.00  0.00    +0.000 A 
ATOM     13  C   UNL     1       0.122  12.873  18.547  0.00  0.00    +0.000 A 
ATOM     14  S   UNL     1       1.441  11.956  19.146  0.00  0.00    +0.000 S 
ENDBRANCH   2  10
BRANCH   7  15
ATOM     15  C   UNL     1       4.986   4.495  18.582  0.00  0.00    +0.000 C 
BRANCH  15  16
ATOM     16  C   UNL     1       5.609   4.682  17.216  0.00  0.00    +0.000 A 
ATOM     17  C   UNL     1       4.977   4.096  16.104  0.00  0.00    +0.000 A 
ATOM     18  C   UNL     1       5.549   4.173  14.834  0.00  0.00    +0.000 A 
ATOM     19  C   UNL     1       6.762   4.833  14.661  0.00  0.00    +0.000 A 
ATOM     20 CL   UNL     1       7.481   4.896  13.099  0.00  0.00    +0.000 Cl
ATOM     21  C   UNL     1       7.398   5.436  15.741  0.00  0.00    +0.000 A 
ATOM     22  C   UNL     1       6.825   5.362  17.011  0.00  0.00    +0.000 A 
ATOM     23 CL   UNL     1       7.663   6.150  18.302  0.00  0.00    +0.000 Cl
ENDBRANCH  15  16
ENDBRANCH   7  15
TORSDOF 3
ENDMDL
MODEL 5
REMARK VINA RESULT:      -7.1      6.710      9.218
REMARK  Name = 
REMARK  3 active torsions:
REMARK  status: ('A' for Active; 'I' for Inactive)
REMARK    1  A    between atoms: C_2  and  C_18
REMARK    2  A    between atoms: C_7  and  C_8
REMARK    3  A    between atoms: C_8  and  C_9
REMARK                            x       y       z     vdW  Elec       q    Type
REMARK                         _______ _______ _______ _____ _____    ______ ____
ROOT
ATOM      1  O   UNL     1       1.849   5.294  20.841  0.00  0.00    +0.000 OA
ATOM      2  C   UNL     1       2.373   5.293  19.730  0.00  0.00    +0.000 C 
ATOM      3  N   UNL     1       2.442   6.391  18.894  0.00  0.00    +0.000 N 
ATOM      4  C   UNL     1       1.941   7.601  19.287  0.00  0.00    +0.000 A 
ATOM      5  N   UNL     1       1.549   7.965  20.478  0.00  0.00    +0.000 NA
ATOM      6  C   UNL     1       1.031   9.237  20.431  0.00  0.00    +0.000 A 
ATOM      7  C   UNL     1       1.034   9.837  19.187  0.00  0.00    +0.000 A 
ATOM      8  S   UNL     1       1.788   8.776  18.056  0.00  0.00    +0.000 S 
ATOM      9  H   UNL     1       2.771   6.289  17.947  0.00  0.00    +0.000 HD
ENDROOT
BRANCH   2  10
ATOM     10  C   UNL     1       2.923   4.052  19.190  0.00  0.00    +0.000 A 
ATOM     11  C   UNL     1       3.559   3.927  17.967  0.00  0.00    +0.000 A 
ATOM     12  C   UNL     1       3.951   2.590  17.681  0.00  0.00    +0.000 A 
ATOM     13  C   UNL     1       3.603   1.730  18.698  0.00  0.00    +0.000 A 
ATOM     14  S   UNL     1       2.831   2.544  19.994  0.00  0.00    +0.000 S 
ENDBRANCH   2  10
BRANCH   7  15
ATOM     15  C   UNL     1       0.481  11.171  18.795  0.00  0.00    +0.000 C 
BRANCH  15  16
ATOM     16  C   UNL     1      -1.018  11.147  18.592  0.00  0.00    +0.000 A 
ATOM     17  C   UNL     1      -1.551  10.258  17.642  0.00  0.00    +0.000 A 
ATOM     18  C   UNL     1      -2.918  10.249  17.360  0.00  0.00    +0.000 A 
ATOM     19  C   UNL     1      -3.766  11.132  18.022  0.00  0.00    +0.000 A 
ATOM     20 CL   UNL     1      -5.446  11.141  17.647  0.00  0.00    +0.000 Cl
ATOM     21  C   UNL     1      -3.266  12.008  18.978  0.00  0.00    +0.000 A 
ATOM     22  C   UNL     1      -1.900  12.016  19.263  0.00  0.00    +0.000 A 
ATOM     23 CL   UNL     1      -1.352  13.120  20.477  0.00  0.00    +0.000 Cl
ENDBRANCH  15  16
ENDBRANCH   7  15
TORSDOF 3
ENDMDL
MODEL 6
REMARK VINA RESULT:      -7.1      6.449      7.985
REMARK  Name = 
REMARK  3 active torsions:
REMARK  status: ('A' for Active; 'I' for Inactive)
REMARK    1  A    between atoms: C_2  and  C_18
REMARK    2  A    between atoms: C_7  and  C_8
REMARK    3  A    between atoms: C_8  and  C_9
REMARK                            x       y       z     vdW  Elec       q    Type
REMARK                         _______ _______ _______ _____ _____    ______ ____
ROOT
ATOM      1  O   UNL     1       0.231  10.090  23.082  0.00  0.00    +0.000 OA
ATOM      2  C   UNL     1      -0.225  10.824  22.209  0.00  0.00    +0.000 C 
ATOM      3  N   UNL     1      -0.016  10.656  20.853  0.00  0.00    +0.000 N 
ATOM      4  C   UNL     1       0.710   9.597  20.384  0.00  0.00    +0.000 A 
ATOM      5  N   UNL     1       1.111   8.540  21.037  0.00  0.00    +0.000 NA
ATOM      6  C   UNL     1       1.890   7.754  20.221  0.00  0.00    +0.000 A 
ATOM      7  C   UNL     1       2.077   8.228  18.938  0.00  0.00    +0.000 A 
ATOM      8  S   UNL     1       1.172   9.683  18.742  0.00  0.00    +0.000 S 
ATOM      9  H   UNL     1      -0.312  11.366  20.202  0.00  0.00    +0.000 HD
ENDROOT
BRANCH   2  10
ATOM     10  C   UNL     1      -0.999  12.004  22.587  0.00  0.00    +0.000 A 
ATOM     11  C   UNL     1      -0.583  13.315  22.430  0.00  0.00    +0.000 A 
ATOM     12  C   UNL     1      -1.523  14.258  22.930  0.00  0.00    +0.000 A 
ATOM     13  C   UNL     1      -2.634  13.637  23.454  0.00  0.00    +0.000 A 
ATOM     14  S   UNL     1      -2.545  11.932  23.318  0.00  0.00    +0.000 S 
ENDBRANCH   2  10
BRANCH   7  15
ATOM     15  C   UNL     1       2.920   7.650  17.846  0.00  0.00    +0.000 C 
BRANCH  15  16
ATOM     16  C   UNL     1       3.033   6.143  17.927  0.00  0.00    +0.000 A 
ATOM     17  C   UNL     1       1.850   5.385  17.987  0.00  0.00    +0.000 A 
ATOM     18  C   UNL     1       1.897   3.998  18.139  0.00  0.00    +0.000 A 
ATOM     19  C   UNL     1       3.128   3.355  18.239  0.00  0.00    +0.000 A 
ATOM     20 CL   UNL     1       3.181   1.650  18.462  0.00  0.00    +0.000 Cl
ATOM     21  C   UNL     1       4.311   4.081  18.165  0.00  0.00    +0.000 A 
ATOM     22  C   UNL     1       4.265   5.467  18.008  0.00  0.00    +0.000 A 
ATOM     23 CL   UNL     1       5.777   6.300  17.906  0.00  0.00    +0.000 Cl
ENDBRANCH  15  16
ENDBRANCH   7  15
TORSDOF 3
ENDMDL
MODEL 7
REMARK VINA RESULT:      -6.9      5.161      7.010
REMARK  Name = 
REMARK  3 active torsions:
REMARK  status: ('A' for Active; 'I' for Inactive)
REMARK    1  A    between atoms: C_2  and  C_18
REMARK    2  A    between atoms: C_7  and  C_8
REMARK    3  A    between atoms: C_8  and  C_9
REMARK                            x       y       z     vdW  Elec       q    Type
REMARK                         _______ _______ _______ _____ _____    ______ ____
ROOT
ATOM      1  O   UNL     1       0.400   8.372  21.415  0.00  0.00    +0.000 OA
ATOM      2  C   UNL     1       0.794   8.895  20.376  0.00  0.00    +0.000 C 
ATOM      3  N   UNL     1       1.692   8.319  19.498  0.00  0.00    +0.000 N 
ATOM      4  C   UNL     1       2.186   7.065  19.726  0.00  0.00    +0.000 A 
ATOM      5  N   UNL     1       1.779   6.183  20.600  0.00  0.00    +0.000 NA
ATOM      6  C   UNL     1       2.599   5.080  20.566  0.00  0.00    +0.000 A 
ATOM      7  C   UNL     1       3.635   5.135  19.656  0.00  0.00    +0.000 A 
ATOM      8  S   UNL     1       3.520   6.605  18.763  0.00  0.00    +0.000 S 
ATOM      9  H   UNL     1       2.070   8.855  18.733  0.00  0.00    +0.000 HD
ENDROOT
BRANCH   2  10
ATOM     10  C   UNL     1       0.356  10.246  20.035  0.00  0.00    +0.000 A 
ATOM     11  C   UNL     1      -0.598  10.560  19.082  0.00  0.00    +0.000 A 
ATOM     12  C   UNL     1      -0.790  11.960  18.929  0.00  0.00    +0.000 A 
ATOM     13  C   UNL     1       0.024  12.679  19.775  0.00  0.00    +0.000 A 
ATOM     14  S   UNL     1       0.991  11.662  20.758  0.00  0.00    +0.000 S 
ENDBRANCH   2  10
BRANCH   7  15
ATOM     15  C   UNL     1       4.730   4.139  19.431  0.00  0.00    +0.000 C 
BRANCH  15  16
ATOM     16  C   UNL     1       5.316   4.218  18.038  0.00  0.00    +0.000 A 
ATOM     17  C   UNL     1       6.640   4.671  17.893  0.00  0.00    +0.000 A 
ATOM     18  C   UNL     1       7.204   4.835  16.627  0.00  0.00    +0.000 A 
ATOM     19  C   UNL     1       6.449   4.554  15.492  0.00  0.00    +0.000 A 
ATOM     20 CL   UNL     1       7.137   4.791  13.933  0.00  0.00    +0.000 Cl
ATOM     21  C   UNL     1       5.145   4.088  15.610  0.00  0.00    +0.000 A 
ATOM     22  C   UNL     1       4.581   3.919  16.875  0.00  0.00    +0.000 A 
ATOM     23 CL   UNL     1       2.960   3.319  16.944  0.00  0.00    +0.000 Cl
ENDBRANCH  15  16
ENDBRANCH   7  15
TORSDOF 3
ENDMDL
MODEL 8
REMARK VINA RESULT:      -6.8      5.048      7.018
REMARK  Name = 
REMARK  3 active torsions:
REMARK  status: ('A' for Active; 'I' for Inactive)
REMARK    1  A    between atoms: C_2  and  C_18
REMARK    2  A    between atoms: C_7  and  C_8
REMARK    3  A    between atoms: C_8  and  C_9
REMARK                            x       y       z     vdW  Elec       q    Type
REMARK                         _______ _______ _______ _____ _____    ______ ____
ROOT
ATOM      1  O   UNL     1       0.717   8.830  20.533  0.00  0.00    +0.000 OA
ATOM      2  C   UNL     1       0.988   9.266  19.417  0.00  0.00    +0.000 C 
ATOM      3  N   UNL     1       1.891   8.687  18.546  0.00  0.00    +0.000 N 
ATOM      4  C   UNL     1       2.534   7.527  18.876  0.00  0.00    +0.000 A 
ATOM      5  N   UNL     1       2.281   6.716  19.868  0.00  0.00    +0.000 NA
ATOM      6  C   UNL     1       3.215   5.709  19.898  0.00  0.00    +0.000 A 
ATOM      7  C   UNL     1       4.183   5.763  18.916  0.00  0.00    +0.000 A 
ATOM      8  S   UNL     1       3.851   7.098  17.876  0.00  0.00    +0.000 S 
ATOM      9  H   UNL     1       2.160   9.166  17.701  0.00  0.00    +0.000 HD
ENDROOT
BRANCH   2  10
ATOM     10  C   UNL     1       0.382  10.514  18.961  0.00  0.00    +0.000 A 
ATOM     11  C   UNL     1       0.948  11.771  19.092  0.00  0.00    +0.000 A 
ATOM     12  C   UNL     1       0.111  12.810  18.599  0.00  0.00    +0.000 A 
ATOM     13  C   UNL     1      -1.073  12.315  18.103  0.00  0.00    +0.000 A 
ATOM     14  S   UNL     1      -1.155  10.607  18.214  0.00  0.00    +0.000 S 
ENDBRANCH   2  10
BRANCH   7  15
ATOM     15  C   UNL     1       5.367   4.867  18.723  0.00  0.00    +0.000 C 
BRANCH  15  16
ATOM     16  C   UNL     1       5.666   4.596  17.265  0.00  0.00    +0.000 A 
ATOM     17  C   UNL     1       6.882   5.058  16.733  0.00  0.00    +0.000 A 
ATOM     18  C   UNL     1       7.175   4.902  15.377  0.00  0.00    +0.000 A 
ATOM     19  C   UNL     1       6.251   4.286  14.538  0.00  0.00    +0.000 A 
ATOM     20 CL   UNL     1       6.600   4.126  12.860  0.00  0.00    +0.000 Cl
ATOM     21  C   UNL     1       5.049   3.804  15.043  0.00  0.00    +0.000 A 
ATOM     22  C   UNL     1       4.757   3.957  16.399  0.00  0.00    +0.000 A 
ATOM     23 CL   UNL     1       3.251   3.318  16.960  0.00  0.00    +0.000 Cl
ENDBRANCH  15  16
ENDBRANCH   7  15
TORSDOF 3
ENDMDL
MODEL 9
REMARK VINA RESULT:      -6.6      6.407      8.852
REMARK  Name = 
REMARK  3 active torsions:
REMARK  status: ('A' for Active; 'I' for Inactive)
REMARK    1  A    between atoms: C_2  and  C_18
REMARK    2  A    between atoms: C_7  and  C_8
REMARK    3  A    between atoms: C_8  and  C_9
REMARK                            x       y       z     vdW  Elec       q    Type
REMARK                         _______ _______ _______ _____ _____    ______ ____
ROOT
ATOM      1  O   UNL     1       3.078   5.440  19.467  0.00  0.00    +0.000 OA
ATOM      2  C   UNL     1       3.357   6.103  18.471  0.00  0.00    +0.000 C 
ATOM      3  N   UNL     1       2.906   7.386  18.229  0.00  0.00    +0.000 N 
ATOM      4  C   UNL     1       2.120   8.034  19.141  0.00  0.00    +0.000 A 
ATOM      5  N   UNL     1       1.859   7.688  20.373  0.00  0.00    +0.000 NA
ATOM      6  C   UNL     1       0.955   8.565  20.923  0.00  0.00    +0.000 A 
ATOM      7  C   UNL     1       0.531   9.582  20.093  0.00  0.00    +0.000 A 
ATOM      8  S   UNL     1       1.364   9.463  18.589  0.00  0.00    +0.000 S 
ATOM      9  H   UNL     1       3.068   7.822  17.335  0.00  0.00    +0.000 HD
ENDROOT
BRANCH   2  10
ATOM     10  C   UNL     1       4.171   5.510  17.412  0.00  0.00    +0.000 A 
ATOM     11  C   UNL     1       4.877   6.219  16.456  0.00  0.00    +0.000 A 
ATOM     12  C   UNL     1       5.544   5.379  15.522  0.00  0.00    +0.000 A 
ATOM     13  C   UNL     1       5.328   4.047  15.794  0.00  0.00    +0.000 A 
ATOM     14  S   UNL     1       4.347   3.823  17.181  0.00  0.00    +0.000 S 
ENDBRANCH   2  10
BRANCH   7  15
ATOM     15  C   UNL     1      -0.491  10.642  20.366  0.00  0.00    +0.000 C 
BRANCH  15  16
ATOM     16  C   UNL     1      -0.032  12.020  19.944  0.00  0.00    +0.000 A 
ATOM     17  C   UNL     1       0.925  12.680  20.734  0.00  0.00    +0.000 A 
ATOM     18  C   UNL     1       1.327  13.982  20.433  0.00  0.00    +0.000 A 
ATOM     19  C   UNL     1       0.771  14.641  19.341  0.00  0.00    +0.000 A 
ATOM     20 CL   UNL     1       1.243  16.259  18.993  0.00  0.00    +0.000 Cl
ATOM     21  C   UNL     1      -0.164  14.004  18.533  0.00  0.00    +0.000 A 
ATOM     22  C   UNL     1      -0.564  12.701  18.831  0.00  0.00    +0.000 A 
ATOM     23 CL   UNL     1      -1.717  11.966  17.773  0.00  0.00    +0.000 Cl
ENDBRANCH  15  16
ENDBRANCH   7  15
TORSDOF 3
ENDMDL
