MODEL 1
REMARK VINA RESULT:      -8.5      0.000      0.000
REMARK  Name = 
REMARK  7 active torsions:
REMARK  status: ('A' for Active; 'I' for Inactive)
REMARK    1  A    between atoms: C_1  and  C_2
REMARK    2  A    between atoms: C_2  and  C_3
REMARK    3  A    between atoms: C_4  and  C_5
REMARK    4  A    between atoms: C_5  and  O_6
REMARK    5  A    between atoms: O_6  and  C_7
REMARK    6  A    between atoms: C_9  and  O_10
REMARK    7  A    between atoms: C_17  and  O_18
REMARK                            x       y       z     vdW  Elec       q    Type
REMARK                         _______ _______ _______ _____ _____    ______ ____
ROOT
ATOM      1  C   UNL     1       5.988   5.370  15.564  0.00  0.00    +0.000 A 
ATOM      2  C   UNL     1       6.120   4.399  16.555  0.00  0.00    +0.000 A 
ATOM      3  C   UNL     1       5.384   4.501  17.740  0.00  0.00    +0.000 A 
ATOM      4  C   UNL     1       4.522   5.587  17.950  0.00  0.00    +0.000 A 
ATOM      5  C   UNL     1       3.673   5.742  19.152  0.00  0.00    +0.000 A 
ATOM      6  O   UNL     1       3.646   4.940  20.075  0.00  0.00    +0.000 OA
ATOM      7  C   UNL     1       2.811   6.936  19.209  0.00  0.00    +0.000 A 
ATOM      8  C   UNL     1       1.972   7.159  20.308  0.00  0.00    +0.000 A 
ATOM      9  C   UNL     1       1.162   8.296  20.345  0.00  0.00    +0.000 A 
ATOM     10  C   UNL     1       1.197   9.193  19.282  0.00  0.00    +0.000 A 
ATOM     11  C   UNL     1       2.026   8.974  18.187  0.00  0.00    +0.000 A 
ATOM     12  C   UNL     1       2.839   7.840  18.154  0.00  0.00    +0.000 A 
ATOM     13  O   UNL     1       3.634   7.692  17.051  0.00  0.00    +0.000 OA
ATOM     14  C   UNL     1       4.436   6.579  16.973  0.00  0.00    +0.000 A 
ATOM     15  C   UNL     1       5.177   6.481  15.796  0.00  0.00    +0.000 A 
ENDROOT
BRANCH   3  16
ATOM     16  O   UNL     1       5.510   3.516  18.678  0.00  0.00    +0.000 OA
ATOM     17  H   UNL     1       5.500   2.643  18.256  0.00  0.00    +0.000 HD
ENDBRANCH   3  16
BRANCH  10  18
ATOM     18  O   UNL     1       0.424  10.315  19.277  0.00  0.00    +0.000 OA
ATOM     19  H   UNL     1      -0.082  10.348  18.447  0.00  0.00    +0.000 HD
ENDBRANCH  10  18
BRANCH   1  20
ATOM     20  O   UNL     1       6.675   5.138  14.400  0.00  0.00    +0.000 OA
BRANCH  20  21
ATOM     21  C   UNL     1       6.443   3.845  13.837  0.00  0.00    +0.000 C 
BRANCH  21  25
ATOM     22  C   UNL     1       3.833   3.347  10.990  0.00  0.00    +0.000 C 
ATOM     23  C   UNL     1       5.019   3.099  11.875  0.00  0.00    +0.000 C 
ATOM     24  C   UNL     1       5.924   1.952  11.514  0.00  0.00    +0.000 C 
ATOM     25  C   UNL     1       5.252   3.905  12.930  0.00  0.00    +0.000 C 
ENDBRANCH  21  25
ENDBRANCH  20  21
ENDBRANCH   1  20
TORSDOF 5
ENDMDL
MODEL 2
REMARK VINA RESULT:      -8.4      3.184      3.308
REMARK  Name = 
REMARK  7 active torsions:
REMARK  status: ('A' for Active; 'I' for Inactive)
REMARK    1  A    between atoms: C_1  and  C_2
REMARK    2  A    between atoms: C_2  and  C_3
REMARK    3  A    between atoms: C_4  and  C_5
REMARK    4  A    between atoms: C_5  and  O_6
REMARK    5  A    between atoms: O_6  and  C_7
REMARK    6  A    between atoms: C_9  and  O_10
REMARK    7  A    between atoms: C_17  and  O_18
REMARK                            x       y       z     vdW  Elec       q    Type
REMARK                         _______ _______ _______ _____ _____    ______ ____
ROOT
ATOM      1  C   UNL     1       6.440   4.783  15.058  0.00  0.00    +0.000 A 
ATOM      2  C   UNL     1       7.350   4.964  16.099  0.00  0.00    +0.000 A 
ATOM      3  C   UNL     1       6.947   4.770  17.425  0.00  0.00    +0.000 A 
ATOM      4  C   UNL     1       5.624   4.410  17.720  0.00  0.00    +0.000 A 
ATOM      5  C   UNL     1       5.133   4.138  19.089  0.00  0.00    +0.000 A 
ATOM      6  O   UNL     1       5.832   4.204  20.089  0.00  0.00    +0.000 OA
ATOM      7  C   UNL     1       3.715   3.756  19.224  0.00  0.00    +0.000 A 
ATOM      8  C   UNL     1       3.169   3.476  20.482  0.00  0.00    +0.000 A 
ATOM      9  C   UNL     1       1.824   3.116  20.591  0.00  0.00    +0.000 A 
ATOM     10  C   UNL     1       1.044   3.036  19.442  0.00  0.00    +0.000 A 
ATOM     11  C   UNL     1       1.584   3.309  18.190  0.00  0.00    +0.000 A 
ATOM     12  C   UNL     1       2.927   3.674  18.083  0.00  0.00    +0.000 A 
ATOM     13  O   UNL     1       3.389   3.937  16.822  0.00  0.00    +0.000 OA
ATOM     14  C   UNL     1       4.710   4.282  16.674  0.00  0.00    +0.000 A 
ATOM     15  C   UNL     1       5.110   4.485  15.353  0.00  0.00    +0.000 A 
ENDROOT
BRANCH   3  16
ATOM     16  O   UNL     1       7.870   4.921  18.420  0.00  0.00    +0.000 OA
ATOM     17  H   UNL     1       8.351   4.092  18.565  0.00  0.00    +0.000 HD
ENDBRANCH   3  16
BRANCH  10  18
ATOM     18  O   UNL     1      -0.272   2.689  19.502  0.00  0.00    +0.000 OA
ATOM     19  H   UNL     1      -0.812   3.497  19.542  0.00  0.00    +0.000 HD
ENDBRANCH  10  18
BRANCH   1  20
ATOM     20  O   UNL     1       6.947   4.904  13.790  0.00  0.00    +0.000 OA
BRANCH  20  21
ATOM     21  C   UNL     1       6.780   3.734  12.985  0.00  0.00    +0.000 C 
BRANCH  21  25
ATOM     22  C   UNL     1       3.627   3.077  10.796  0.00  0.00    +0.000 C 
ATOM     23  C   UNL     1       4.930   2.836  11.499  0.00  0.00    +0.000 C 
ATOM     24  C   UNL     1       5.623   1.525  11.243  0.00  0.00    +0.000 C 
ATOM     25  C   UNL     1       5.448   3.788  12.302  0.00  0.00    +0.000 C 
ENDBRANCH  21  25
ENDBRANCH  20  21
ENDBRANCH   1  20
TORSDOF 5
ENDMDL
MODEL 3
REMARK VINA RESULT:      -7.9      1.131      1.326
REMARK  Name = 
REMARK  7 active torsions:
REMARK  status: ('A' for Active; 'I' for Inactive)
REMARK    1  A    between atoms: C_1  and  C_2
REMARK    2  A    between atoms: C_2  and  C_3
REMARK    3  A    between atoms: C_4  and  C_5
REMARK    4  A    between atoms: C_5  and  O_6
REMARK    5  A    between atoms: O_6  and  C_7
REMARK    6  A    between atoms: C_9  and  O_10
REMARK    7  A    between atoms: C_17  and  O_18
REMARK                            x       y       z     vdW  Elec       q    Type
REMARK                         _______ _______ _______ _____ _____    ______ ____
ROOT
ATOM      1  C   UNL     1       5.204   4.306  16.749  0.00  0.00    +0.000 A 
ATOM      2  C   UNL     1       4.898   3.586  17.902  0.00  0.00    +0.000 A 
ATOM      3  C   UNL     1       4.072   4.147  18.883  0.00  0.00    +0.000 A 
ATOM      4  C   UNL     1       3.560   5.443  18.722  0.00  0.00    +0.000 A 
ATOM      5  C   UNL     1       2.641   6.088  19.687  0.00  0.00    +0.000 A 
ATOM      6  O   UNL     1       2.246   5.554  20.713  0.00  0.00    +0.000 OA
ATOM      7  C   UNL     1       2.183   7.450  19.360  0.00  0.00    +0.000 A 
ATOM      8  C   UNL     1       1.309   8.133  20.215  0.00  0.00    +0.000 A 
ATOM      9  C   UNL     1       0.885   9.423  19.890  0.00  0.00    +0.000 A 
ATOM     10  C   UNL     1       1.336  10.013  18.713  0.00  0.00    +0.000 A 
ATOM     11  C   UNL     1       2.202   9.338  17.860  0.00  0.00    +0.000 A 
ATOM     12  C   UNL     1       2.629   8.050  18.189  0.00  0.00    +0.000 A 
ATOM     13  O   UNL     1       3.485   7.448  17.308  0.00  0.00    +0.000 OA
ATOM     14  C   UNL     1       3.914   6.174  17.588  0.00  0.00    +0.000 A 
ATOM     15  C   UNL     1       4.745   5.616  16.616  0.00  0.00    +0.000 A 
ENDROOT
BRANCH   3  16
ATOM     16  O   UNL     1       3.763   3.404  19.986  0.00  0.00    +0.000 OA
ATOM     17  H   UNL     1       2.802   3.328  20.086  0.00  0.00    +0.000 HD
ENDBRANCH   3  16
BRANCH  10  18
ATOM     18  O   UNL     1       0.948  11.270  18.358  0.00  0.00    +0.000 OA
ATOM     19  H   UNL     1       1.294  11.905  19.008  0.00  0.00    +0.000 HD
ENDBRANCH  10  18
BRANCH   1  20
ATOM     20  O   UNL     1       5.941   3.641  15.804  0.00  0.00    +0.000 OA
BRANCH  20  21
ATOM     21  C   UNL     1       6.142   4.382  14.598  0.00  0.00    +0.000 C 
BRANCH  21  25
ATOM     22  C   UNL     1       4.371   3.147  11.357  0.00  0.00    +0.000 C 
ATOM     23  C   UNL     1       5.468   3.475  12.327  0.00  0.00    +0.000 C 
ATOM     24  C   UNL     1       6.886   3.312  11.850  0.00  0.00    +0.000 C 
ATOM     25  C   UNL     1       5.163   3.920  13.563  0.00  0.00    +0.000 C 
ENDBRANCH  21  25
ENDBRANCH  20  21
ENDBRANCH   1  20
TORSDOF 5
ENDMDL
MODEL 4
REMARK VINA RESULT:      -7.9      1.823      3.674
REMARK  Name = 
REMARK  7 active torsions:
REMARK  status: ('A' for Active; 'I' for Inactive)
REMARK    1  A    between atoms: C_1  and  C_2
REMARK    2  A    between atoms: C_2  and  C_3
REMARK    3  A    between atoms: C_4  and  C_5
REMARK    4  A    between atoms: C_5  and  O_6
REMARK    5  A    between atoms: O_6  and  C_7
REMARK    6  A    between atoms: C_9  and  O_10
REMARK    7  A    between atoms: C_17  and  O_18
REMARK                            x       y       z     vdW  Elec       q    Type
REMARK                         _______ _______ _______ _____ _____    ______ ____
ROOT
ATOM      1  C   UNL     1       5.750   5.289  15.492  0.00  0.00    +0.000 A 
ATOM      2  C   UNL     1       5.178   6.554  15.619  0.00  0.00    +0.000 A 
ATOM      3  C   UNL     1       4.310   6.829  16.682  0.00  0.00    +0.000 A 
ATOM      4  C   UNL     1       3.995   5.832  17.617  0.00  0.00    +0.000 A 
ATOM      5  C   UNL     1       3.126   6.056  18.794  0.00  0.00    +0.000 A 
ATOM      6  O   UNL     1       2.602   7.127  19.060  0.00  0.00    +0.000 OA
ATOM      7  C   UNL     1       2.907   4.904  19.688  0.00  0.00    +0.000 A 
ATOM      8  C   UNL     1       2.104   5.029  20.828  0.00  0.00    +0.000 A 
ATOM      9  C   UNL     1       1.907   3.928  21.663  0.00  0.00    +0.000 A 
ATOM     10  C   UNL     1       2.519   2.717  21.352  0.00  0.00    +0.000 A 
ATOM     11  C   UNL     1       3.321   2.590  20.223  0.00  0.00    +0.000 A 
ATOM     12  C   UNL     1       3.512   3.690  19.386  0.00  0.00    +0.000 A 
ATOM     13  O   UNL     1       4.306   3.492  18.290  0.00  0.00    +0.000 OA
ATOM     14  C   UNL     1       4.532   4.556  17.451  0.00  0.00    +0.000 A 
ATOM     15  C   UNL     1       5.390   4.281  16.386  0.00  0.00    +0.000 A 
ENDROOT
BRANCH   3  16
ATOM     16  O   UNL     1       3.792   8.086  16.797  0.00  0.00    +0.000 OA
ATOM     17  H   UNL     1       4.473   8.708  17.098  0.00  0.00    +0.000 HD
ENDBRANCH   3  16
BRANCH  10  18
ATOM     18  O   UNL     1       2.355   1.618  22.140  0.00  0.00    +0.000 OA
ATOM     19  H   UNL     1       2.781   0.855  21.713  0.00  0.00    +0.000 HD
ENDBRANCH  10  18
BRANCH   1  20
ATOM     20  O   UNL     1       6.659   5.140  14.477  0.00  0.00    +0.000 OA
BRANCH  20  21
ATOM     21  C   UNL     1       6.547   3.900  13.775  0.00  0.00    +0.000 C 
BRANCH  21  25
ATOM     22  C   UNL     1       3.862   3.322  11.014  0.00  0.00    +0.000 C 
ATOM     23  C   UNL     1       5.073   3.099  11.872  0.00  0.00    +0.000 C 
ATOM     24  C   UNL     1       5.972   1.947  11.515  0.00  0.00    +0.000 C 
ATOM     25  C   UNL     1       5.332   3.933  12.900  0.00  0.00    +0.000 C 
ENDBRANCH  21  25
ENDBRANCH  20  21
ENDBRANCH   1  20
TORSDOF 5
ENDMDL
MODEL 5
REMARK VINA RESULT:      -7.9      1.907      3.665
REMARK  Name = 
REMARK  7 active torsions:
REMARK  status: ('A' for Active; 'I' for Inactive)
REMARK    1  A    between atoms: C_1  and  C_2
REMARK    2  A    between atoms: C_2  and  C_3
REMARK    3  A    between atoms: C_4  and  C_5
REMARK    4  A    between atoms: C_5  and  O_6
REMARK    5  A    between atoms: O_6  and  C_7
REMARK    6  A    between atoms: C_9  and  O_10
REMARK    7  A    between atoms: C_17  and  O_18
REMARK                            x       y       z     vdW  Elec       q    Type
REMARK                         _______ _______ _______ _____ _____    ______ ____
ROOT
ATOM      1  C   UNL     1       6.108   4.578  15.365  0.00  0.00    +0.000 A 
ATOM      2  C   UNL     1       5.634   5.886  15.285  0.00  0.00    +0.000 A 
ATOM      3  C   UNL     1       4.712   6.357  16.226  0.00  0.00    +0.000 A 
ATOM      4  C   UNL     1       4.244   5.515  17.245  0.00  0.00    +0.000 A 
ATOM      5  C   UNL     1       3.308   5.951  18.306  0.00  0.00    +0.000 A 
ATOM      6  O   UNL     1       2.855   7.083  18.391  0.00  0.00    +0.000 OA
ATOM      7  C   UNL     1       2.927   4.944  19.312  0.00  0.00    +0.000 A 
ATOM      8  C   UNL     1       2.050   5.272  20.353  0.00  0.00    +0.000 A 
ATOM      9  C   UNL     1       1.699   4.305  21.297  0.00  0.00    +0.000 A 
ATOM     10  C   UNL     1       2.232   3.024  21.192  0.00  0.00    +0.000 A 
ATOM     11  C   UNL     1       3.106   2.694  20.162  0.00  0.00    +0.000 A 
ATOM     12  C   UNL     1       3.451   3.661  19.215  0.00  0.00    +0.000 A 
ATOM     13  O   UNL     1       4.308   3.265  18.225  0.00  0.00    +0.000 OA
ATOM     14  C   UNL     1       4.686   4.193  17.285  0.00  0.00    +0.000 A 
ATOM     15  C   UNL     1       5.598   3.722  16.341  0.00  0.00    +0.000 A 
ENDROOT
BRANCH   3  16
ATOM     16  O   UNL     1       4.291   7.653  16.140  0.00  0.00    +0.000 OA
ATOM     17  H   UNL     1       3.337   7.690  15.974  0.00  0.00    +0.000 HD
ENDBRANCH   3  16
BRANCH  10  18
ATOM     18  O   UNL     1       1.917   2.050  22.091  0.00  0.00    +0.000 OA
ATOM     19  H   UNL     1       2.073   2.386  22.991  0.00  0.00    +0.000 HD
ENDBRANCH  10  18
BRANCH   1  20
ATOM     20  O   UNL     1       7.078   4.234  14.459  0.00  0.00    +0.000 OA
BRANCH  20  21
ATOM     21  C   UNL     1       6.710   4.472  13.098  0.00  0.00    +0.000 C 
BRANCH  21  25
ATOM     22  C   UNL     1       5.891   1.250  11.070  0.00  0.00    +0.000 C 
ATOM     23  C   UNL     1       5.720   2.601  11.700  0.00  0.00    +0.000 C 
ATOM     24  C   UNL     1       4.361   3.240  11.611  0.00  0.00    +0.000 C 
ATOM     25  C   UNL     1       6.756   3.182  12.338  0.00  0.00    +0.000 C 
ENDBRANCH  21  25
ENDBRANCH  20  21
ENDBRANCH   1  20
TORSDOF 5
ENDMDL
MODEL 6
REMARK VINA RESULT:      -7.8      3.137      3.443
REMARK  Name = 
REMARK  7 active torsions:
REMARK  status: ('A' for Active; 'I' for Inactive)
REMARK    1  A    between atoms: C_1  and  C_2
REMARK    2  A    between atoms: C_2  and  C_3
REMARK    3  A    between atoms: C_4  and  C_5
REMARK    4  A    between atoms: C_5  and  O_6
REMARK    5  A    between atoms: O_6  and  C_7
REMARK    6  A    between atoms: C_9  and  O_10
REMARK    7  A    between atoms: C_17  and  O_18
REMARK                            x       y       z     vdW  Elec       q    Type
REMARK                         _______ _______ _______ _____ _____    ______ ____
ROOT
ATOM      1  C   UNL     1       6.331   4.174  14.607  0.00  0.00    +0.000 A 
ATOM      2  C   UNL     1       7.263   4.678  15.512  0.00  0.00    +0.000 A 
ATOM      3  C   UNL     1       6.925   4.819  16.863  0.00  0.00    +0.000 A 
ATOM      4  C   UNL     1       5.643   4.472  17.314  0.00  0.00    +0.000 A 
ATOM      5  C   UNL     1       5.223   4.544  18.731  0.00  0.00    +0.000 A 
ATOM      6  O   UNL     1       5.952   4.916  19.639  0.00  0.00    +0.000 OA
ATOM      7  C   UNL     1       3.843   4.128  19.039  0.00  0.00    +0.000 A 
ATOM      8  C   UNL     1       3.365   4.160  20.355  0.00  0.00    +0.000 A 
ATOM      9  C   UNL     1       2.055   3.762  20.628  0.00  0.00    +0.000 A 
ATOM     10  C   UNL     1       1.241   3.332  19.584  0.00  0.00    +0.000 A 
ATOM     11  C   UNL     1       1.713   3.295  18.277  0.00  0.00    +0.000 A 
ATOM     12  C   UNL     1       3.021   3.699  18.004  0.00  0.00    +0.000 A 
ATOM     13  O   UNL     1       3.415   3.644  16.696  0.00  0.00    +0.000 OA
ATOM     14  C   UNL     1       4.702   4.017  16.390  0.00  0.00    +0.000 A 
ATOM     15  C   UNL     1       5.038   3.885  15.042  0.00  0.00    +0.000 A 
ENDROOT
BRANCH   3  16
ATOM     16  O   UNL     1       7.870   5.285  17.731  0.00  0.00    +0.000 OA
ATOM     17  H   UNL     1       8.668   4.737  17.688  0.00  0.00    +0.000 HD
ENDBRANCH   3  16
BRANCH  10  18
ATOM     18  O   UNL     1      -0.044   2.935  19.806  0.00  0.00    +0.000 OA
ATOM     19  H   UNL     1      -0.625   3.359  19.150  0.00  0.00    +0.000 HD
ENDBRANCH  10  18
BRANCH   1  20
ATOM     20  O   UNL     1       6.780   3.983  13.326  0.00  0.00    +0.000 OA
BRANCH  20  21
ATOM     21  C   UNL     1       5.736   3.823  12.362  0.00  0.00    +0.000 C 
BRANCH  21  25
ATOM     22  C   UNL     1       6.000   0.156  11.080  0.00  0.00    +0.000 C 
ATOM     23  C   UNL     1       6.381   1.577  11.377  0.00  0.00    +0.000 C 
ATOM     24  C   UNL     1       7.698   2.068  10.839  0.00  0.00    +0.000 C 
ATOM     25  C   UNL     1       5.542   2.366  12.078  0.00  0.00    +0.000 C 
ENDBRANCH  21  25
ENDBRANCH  20  21
ENDBRANCH   1  20
TORSDOF 5
ENDMDL
MODEL 7
REMARK VINA RESULT:      -7.7      3.552      5.969
REMARK  Name = 
REMARK  7 active torsions:
REMARK  status: ('A' for Active; 'I' for Inactive)
REMARK    1  A    between atoms: C_1  and  C_2
REMARK    2  A    between atoms: C_2  and  C_3
REMARK    3  A    between atoms: C_4  and  C_5
REMARK    4  A    between atoms: C_5  and  O_6
REMARK    5  A    between atoms: O_6  and  C_7
REMARK    6  A    between atoms: C_9  and  O_10
REMARK    7  A    between atoms: C_17  and  O_18
REMARK                            x       y       z     vdW  Elec       q    Type
REMARK                         _______ _______ _______ _____ _____    ______ ____
ROOT
ATOM      1  C   UNL     1       6.807   6.244  17.066  0.00  0.00    +0.000 A 
ATOM      2  C   UNL     1       6.341   5.691  15.874  0.00  0.00    +0.000 A 
ATOM      3  C   UNL     1       5.232   4.839  15.882  0.00  0.00    +0.000 A 
ATOM      4  C   UNL     1       4.590   4.519  17.087  0.00  0.00    +0.000 A 
ATOM      5  C   UNL     1       3.383   3.667  17.174  0.00  0.00    +0.000 A 
ATOM      6  O   UNL     1       2.836   3.160  16.206  0.00  0.00    +0.000 OA
ATOM      7  C   UNL     1       2.824   3.441  18.519  0.00  0.00    +0.000 A 
ATOM      8  C   UNL     1       1.680   2.651  18.692  0.00  0.00    +0.000 A 
ATOM      9  C   UNL     1       1.164   2.447  19.973  0.00  0.00    +0.000 A 
ATOM     10  C   UNL     1       1.793   3.039  21.064  0.00  0.00    +0.000 A 
ATOM     11  C   UNL     1       2.926   3.827  20.897  0.00  0.00    +0.000 A 
ATOM     12  C   UNL     1       3.445   4.025  19.616  0.00  0.00    +0.000 A 
ATOM     13  O   UNL     1       4.566   4.804  19.525  0.00  0.00    +0.000 OA
ATOM     14  C   UNL     1       5.096   5.037  18.279  0.00  0.00    +0.000 A 
ATOM     15  C   UNL     1       6.207   5.879  18.272  0.00  0.00    +0.000 A 
ENDROOT
BRANCH   3  16
ATOM     16  O   UNL     1       4.780   4.340  14.694  0.00  0.00    +0.000 OA
ATOM     17  H   UNL     1       4.775   3.370  14.713  0.00  0.00    +0.000 HD
ENDBRANCH   3  16
BRANCH  10  18
ATOM     18  O   UNL     1       1.323   2.867  22.331  0.00  0.00    +0.000 OA
ATOM     19  H   UNL     1       0.400   2.563  22.289  0.00  0.00    +0.000 HD
ENDBRANCH  10  18
BRANCH   1  20
ATOM     20  O   UNL     1       7.838   7.140  16.951  0.00  0.00    +0.000 OA
BRANCH  20  21
ATOM     21  C   UNL     1       8.011   7.977  18.097  0.00  0.00    +0.000 C 
BRANCH  21  25
ATOM     22  C   UNL     1       8.751  11.791  17.825  0.00  0.00    +0.000 C 
ATOM     23  C   UNL     1       8.768  10.385  18.349  0.00  0.00    +0.000 C 
ATOM     24  C   UNL     1       9.451  10.146  19.669  0.00  0.00    +0.000 C 
ATOM     25  C   UNL     1       8.164   9.399  17.654  0.00  0.00    +0.000 C 
ENDBRANCH  21  25
ENDBRANCH  20  21
ENDBRANCH   1  20
TORSDOF 5
ENDMDL
MODEL 8
REMARK VINA RESULT:      -7.6      2.135      7.277
REMARK  Name = 
REMARK  7 active torsions:
REMARK  status: ('A' for Active; 'I' for Inactive)
REMARK    1  A    between atoms: C_1  and  C_2
REMARK    2  A    between atoms: C_2  and  C_3
REMARK    3  A    between atoms: C_4  and  C_5
REMARK    4  A    between atoms: C_5  and  O_6
REMARK    5  A    between atoms: O_6  and  C_7
REMARK    6  A    between atoms: C_9  and  O_10
REMARK    7  A    between atoms: C_17  and  O_18
REMARK                            x       y       z     vdW  Elec       q    Type
REMARK                         _______ _______ _______ _____ _____    ______ ____
ROOT
ATOM      1  C   UNL     1       1.240   9.440  18.882  0.00  0.00    +0.000 A 
ATOM      2  C   UNL     1       1.150   8.599  19.990  0.00  0.00    +0.000 A 
ATOM      3  C   UNL     1       1.929   7.438  20.055  0.00  0.00    +0.000 A 
ATOM      4  C   UNL     1       2.792   7.103  19.002  0.00  0.00    +0.000 A 
ATOM      5  C   UNL     1       3.684   5.922  19.016  0.00  0.00    +0.000 A 
ATOM      6  O   UNL     1       3.750   5.128  19.944  0.00  0.00    +0.000 OA
ATOM      7  C   UNL     1       4.541   5.720  17.834  0.00  0.00    +0.000 A 
ATOM      8  C   UNL     1       5.418   4.632  17.766  0.00  0.00    +0.000 A 
ATOM      9  C   UNL     1       6.223   4.456  16.638  0.00  0.00    +0.000 A 
ATOM     10  C   UNL     1       6.143   5.374  15.594  0.00  0.00    +0.000 A 
ATOM     11  C   UNL     1       5.276   6.459  15.659  0.00  0.00    +0.000 A 
ATOM     12  C   UNL     1       4.469   6.629  16.785  0.00  0.00    +0.000 A 
ATOM     13  O   UNL     1       3.634   7.713  16.778  0.00  0.00    +0.000 OA
ATOM     14  C   UNL     1       2.836   7.925  17.876  0.00  0.00    +0.000 A 
ATOM     15  C   UNL     1       2.052   9.077  17.809  0.00  0.00    +0.000 A 
ENDROOT
BRANCH   3  16
ATOM     16  O   UNL     1       1.843   6.652  21.168  0.00  0.00    +0.000 OA
ATOM     17  H   UNL     1       1.677   7.194  21.954  0.00  0.00    +0.000 HD
ENDBRANCH   3  16
BRANCH  10  18
ATOM     18  O   UNL     1       6.910   5.241  14.476  0.00  0.00    +0.000 OA
ATOM     19  H   UNL     1       7.707   5.791  14.570  0.00  0.00    +0.000 HD
ENDBRANCH  10  18
BRANCH   1  20
ATOM     20  O   UNL     1       0.511  10.600  18.948  0.00  0.00    +0.000 OA
BRANCH  20  21
ATOM     21  C   UNL     1      -0.904  10.398  18.919  0.00  0.00    +0.000 C 
BRANCH  21  25
ATOM     22  C   UNL     1      -2.896   9.790  15.629  0.00  0.00    +0.000 C 
ATOM     23  C   UNL     1      -2.596  10.207  17.038  0.00  0.00    +0.000 C 
ATOM     24  C   UNL     1      -3.747  10.687  17.880  0.00  0.00    +0.000 C 
ATOM     25  C   UNL     1      -1.336  10.118  17.513  0.00  0.00    +0.000 C 
ENDBRANCH  21  25
ENDBRANCH  20  21
ENDBRANCH   1  20
TORSDOF 5
ENDMDL
MODEL 9
REMARK VINA RESULT:      -7.6      2.185      7.248
REMARK  Name = 
REMARK  7 active torsions:
REMARK  status: ('A' for Active; 'I' for Inactive)
REMARK    1  A    between atoms: C_1  and  C_2
REMARK    2  A    between atoms: C_2  and  C_3
REMARK    3  A    between atoms: C_4  and  C_5
REMARK    4  A    between atoms: C_5  and  O_6
REMARK    5  A    between atoms: O_6  and  C_7
REMARK    6  A    between atoms: C_9  and  O_10
REMARK    7  A    between atoms: C_17  and  O_18
REMARK                            x       y       z     vdW  Elec       q    Type
REMARK                         _______ _______ _______ _____ _____    ______ ____
ROOT
ATOM      1  C   UNL     1       1.692   6.383  20.348  0.00  0.00    +0.000 A 
ATOM      2  C   UNL     1       1.275   5.056  20.431  0.00  0.00    +0.000 A 
ATOM      3  C   UNL     1       1.856   4.084  19.608  0.00  0.00    +0.000 A 
ATOM      4  C   UNL     1       2.848   4.439  18.683  0.00  0.00    +0.000 A 
ATOM      5  C   UNL     1       3.546   3.466  17.813  0.00  0.00    +0.000 A 
ATOM      6  O   UNL     1       3.321   2.264  17.818  0.00  0.00    +0.000 OA
ATOM      7  C   UNL     1       4.576   4.003  16.906  0.00  0.00    +0.000 A 
ATOM      8  C   UNL     1       5.289   3.151  16.052  0.00  0.00    +0.000 A 
ATOM      9  C   UNL     1       6.261   3.677  15.199  0.00  0.00    +0.000 A 
ATOM     10  C   UNL     1       6.512   5.046  15.212  0.00  0.00    +0.000 A 
ATOM     11  C   UNL     1       5.809   5.895  16.061  0.00  0.00    +0.000 A 
ATOM     12  C   UNL     1       4.834   5.368  16.910  0.00  0.00    +0.000 A 
ATOM     13  O   UNL     1       4.177   6.261  17.711  0.00  0.00    +0.000 OA
ATOM     14  C   UNL     1       3.222   5.779  18.573  0.00  0.00    +0.000 A 
ATOM     15  C   UNL     1       2.635   6.747  19.387  0.00  0.00    +0.000 A 
ENDROOT
BRANCH   3  16
ATOM     16  O   UNL     1       1.449   2.787  19.736  0.00  0.00    +0.000 OA
ATOM     17  H   UNL     1       1.362   2.550  20.672  0.00  0.00    +0.000 HD
ENDBRANCH   3  16
BRANCH  10  18
ATOM     18  O   UNL     1       7.451   5.602  14.397  0.00  0.00    +0.000 OA
ATOM     19  H   UNL     1       7.035   5.844  13.551  0.00  0.00    +0.000 HD
ENDBRANCH  10  18
BRANCH   1  20
ATOM     20  O   UNL     1       1.135   7.246  21.257  0.00  0.00    +0.000 OA
BRANCH  20  21
ATOM     21  C   UNL     1       1.491   8.615  21.050  0.00  0.00    +0.000 C 
BRANCH  21  25
ATOM     22  C   UNL     1      -1.201  10.806  19.284  0.00  0.00    +0.000 C 
ATOM     23  C   UNL     1       0.023   9.959  19.478  0.00  0.00    +0.000 C 
ATOM     24  C   UNL     1       0.951   9.803  18.304  0.00  0.00    +0.000 C 
ATOM     25  C   UNL     1       0.268   9.395  20.678  0.00  0.00    +0.000 C 
ENDBRANCH  21  25
ENDBRANCH  20  21
ENDBRANCH   1  20
TORSDOF 5
ENDMDL
