MODEL 1
REMARK VINA RESULT:      -7.0      0.000      0.000
REMARK  Name = 
REMARK  11 active torsions:
REMARK  status: ('A' for Active; 'I' for Inactive)
REMARK    1  A    between atoms: C_1  and  C_2
REMARK    2  A    between atoms: C_2  and  O_3
REMARK    3  A    between atoms: O_3  and  C_4
REMARK    4  A    between atoms: C_6  and  C_7
REMARK    5  A    between atoms: C_7  and  O_8
REMARK    6  A    between atoms: O_8  and  C_9
REMARK    7  A    between atoms: N_11  and  C_12
REMARK    8  A    between atoms: C_12  and  C_13
REMARK    9  A    between atoms: N_18  and  C_19
REMARK   10  A    between atoms: C_19  and  C_20
REMARK   11  A    between atoms: C_21  and  C_22
REMARK                            x       y       z     vdW  Elec       q    Type
REMARK                         _______ _______ _______ _____ _____    ______ ____
ROOT
ATOM      1  C   UNL     1       4.683   4.792  19.225  0.00  0.00    +0.000 C 
ATOM      2  O   UNL     1       5.336   5.701  19.723  0.00  0.00    +0.000 OA
ATOM      3  N   UNL     1       3.312   4.708  19.490  0.00  0.00    +0.000 N 
ATOM      4  C   UNL     1       2.565   3.691  18.911  0.00  0.00    +0.000 C 
ATOM      5  C   UNL     1       1.078   3.522  19.093  0.00  0.00    +0.000 C 
ATOM      6  O   UNL     1       3.097   2.848  18.207  0.00  0.00    +0.000 OA
ENDROOT
BRANCH   1   7
ATOM      7  O   UNL     1       5.318   3.911  18.364  0.00  0.00    +0.000 OA
BRANCH   7   8
ATOM      8  C   UNL     1       6.056   4.263  17.226  0.00  0.00    +0.000 C 
BRANCH   8  11
ATOM      9  C   UNL     1       6.699   4.235  14.140  0.00  0.00    +0.000 C 
ATOM     10  C   UNL     1       5.407   3.730  14.746  0.00  0.00    +0.000 C 
ATOM     11  C   UNL     1       5.250   4.635  15.934  0.00  0.00    +0.000 C 
ATOM     12  C   UNL     1       5.693   5.932  15.284  0.00  0.00    +0.000 C 
ATOM     13  O   UNL     1       6.796   5.621  14.452  0.00  0.00    +0.000 OA
BRANCH   9  14
ATOM     14  O   UNL     1       6.695   4.009  12.742  0.00  0.00    +0.000 OA
BRANCH  14  16
ATOM     15  C   UNL     1       5.865   2.107  11.536  0.00  0.00    +0.000 C 
ATOM     16  C   UNL     1       5.509   3.342  12.356  0.00  0.00    +0.000 C 
ENDBRANCH  14  16
ENDBRANCH   9  14
ENDBRANCH   8  11
ENDBRANCH   7   8
ENDBRANCH   1   7
BRANCH   3  17
ATOM     17  C   UNL     1       2.644   5.720  20.367  0.00  0.00    +0.000 C 
BRANCH  17  18
ATOM     18  C   UNL     1       2.233   7.013  19.627  0.00  0.00    +0.000 A 
ATOM     19  C   UNL     1       2.605   7.089  18.271  0.00  0.00    +0.000 A 
ATOM     20  C   UNL     1       2.377   8.243  17.537  0.00  0.00    +0.000 A 
ATOM     21  C   UNL     1       1.757   9.327  18.132  0.00  0.00    +0.000 A 
ATOM     22  C   UNL     1       1.346   9.235  19.455  0.00  0.00    +0.000 A 
ATOM     23  N   UNL     1       1.571   8.104  20.204  0.00  0.00    +0.000 N 
BRANCH  23  24
ATOM     24  C   UNL     1       1.032   8.153  21.591  0.00  0.00    +0.000 C 
ATOM     25  C   UNL     1      -0.033   9.253  21.795  0.00  0.00    +0.000 C 
ENDBRANCH  23  24
ENDBRANCH  17  18
ENDBRANCH   3  17
TORSDOF 8
ENDMDL
MODEL 2
REMARK VINA RESULT:      -7.0      1.555      2.859
REMARK  Name = 
REMARK  11 active torsions:
REMARK  status: ('A' for Active; 'I' for Inactive)
REMARK    1  A    between atoms: C_1  and  C_2
REMARK    2  A    between atoms: C_2  and  O_3
REMARK    3  A    between atoms: O_3  and  C_4
REMARK    4  A    between atoms: C_6  and  C_7
REMARK    5  A    between atoms: C_7  and  O_8
REMARK    6  A    between atoms: O_8  and  C_9
REMARK    7  A    between atoms: N_11  and  C_12
REMARK    8  A    between atoms: C_12  and  C_13
REMARK    9  A    between atoms: N_18  and  C_19
REMARK   10  A    between atoms: C_19  and  C_20
REMARK   11  A    between atoms: C_21  and  C_22
REMARK                            x       y       z     vdW  Elec       q    Type
REMARK                         _______ _______ _______ _____ _____    ______ ____
ROOT
ATOM      1  C   UNL     1       4.403   4.553  19.122  0.00  0.00    +0.000 C 
ATOM      2  O   UNL     1       5.198   5.436  19.423  0.00  0.00    +0.000 OA
ATOM      3  N   UNL     1       3.100   4.604  19.627  0.00  0.00    +0.000 N 
ATOM      4  C   UNL     1       2.190   3.617  19.272  0.00  0.00    +0.000 C 
ATOM      5  C   UNL     1       0.752   3.588  19.722  0.00  0.00    +0.000 C 
ATOM      6  O   UNL     1       2.526   2.685  18.560  0.00  0.00    +0.000 OA
ENDROOT
BRANCH   1   7
ATOM      7  O   UNL     1       4.810   3.564  18.241  0.00  0.00    +0.000 OA
BRANCH   7   8
ATOM      8  C   UNL     1       4.764   3.640  16.843  0.00  0.00    +0.000 C 
BRANCH   8  11
ATOM      9  C   UNL     1       6.713   6.113  16.688  0.00  0.00    +0.000 C 
ATOM     10  C   UNL     1       7.167   4.679  16.854  0.00  0.00    +0.000 C 
ATOM     11  C   UNL     1       6.109   3.931  16.094  0.00  0.00    +0.000 C 
ATOM     12  C   UNL     1       5.968   4.881  14.920  0.00  0.00    +0.000 C 
ATOM     13  O   UNL     1       6.027   6.196  15.443  0.00  0.00    +0.000 OA
BRANCH   9  14
ATOM     14  O   UNL     1       7.832   6.980  16.732  0.00  0.00    +0.000 OA
BRANCH  14  16
ATOM     15  C   UNL     1       8.051   9.111  17.813  0.00  0.00    +0.000 C 
ATOM     16  C   UNL     1       7.920   7.605  17.998  0.00  0.00    +0.000 C 
ENDBRANCH  14  16
ENDBRANCH   9  14
ENDBRANCH   8  11
ENDBRANCH   7   8
ENDBRANCH   1   7
BRANCH   3  17
ATOM     17  C   UNL     1       2.673   5.728  20.519  0.00  0.00    +0.000 C 
BRANCH  17  18
ATOM     18  C   UNL     1       2.229   6.996  19.756  0.00  0.00    +0.000 A 
ATOM     19  C   UNL     1       2.656   7.088  18.417  0.00  0.00    +0.000 A 
ATOM     20  C   UNL     1       2.402   8.228  17.669  0.00  0.00    +0.000 A 
ATOM     21  C   UNL     1       1.702   9.281  18.233  0.00  0.00    +0.000 A 
ATOM     22  C   UNL     1       1.238   9.170  19.537  0.00  0.00    +0.000 A 
ATOM     23  N   UNL     1       1.488   8.053  20.299  0.00  0.00    +0.000 N 
BRANCH  23  24
ATOM     24  C   UNL     1       0.887   8.078  21.661  0.00  0.00    +0.000 C 
ATOM     25  C   UNL     1       1.158   9.391  22.426  0.00  0.00    +0.000 C 
ENDBRANCH  23  24
ENDBRANCH  17  18
ENDBRANCH   3  17
TORSDOF 8
ENDMDL
MODEL 3
REMARK VINA RESULT:      -6.7      3.546      5.641
REMARK  Name = 
REMARK  11 active torsions:
REMARK  status: ('A' for Active; 'I' for Inactive)
REMARK    1  A    between atoms: C_1  and  C_2
REMARK    2  A    between atoms: C_2  and  O_3
REMARK    3  A    between atoms: O_3  and  C_4
REMARK    4  A    between atoms: C_6  and  C_7
REMARK    5  A    between atoms: C_7  and  O_8
REMARK    6  A    between atoms: O_8  and  C_9
REMARK    7  A    between atoms: N_11  and  C_12
REMARK    8  A    between atoms: C_12  and  C_13
REMARK    9  A    between atoms: N_18  and  C_19
REMARK   10  A    between atoms: C_19  and  C_20
REMARK   11  A    between atoms: C_21  and  C_22
REMARK                            x       y       z     vdW  Elec       q    Type
REMARK                         _______ _______ _______ _____ _____    ______ ____
ROOT
ATOM      1  C   UNL     1       1.787   9.118  18.465  0.00  0.00    +0.000 C 
ATOM      2  O   UNL     1       1.997   9.696  17.405  0.00  0.00    +0.000 OA
ATOM      3  N   UNL     1       0.978   9.728  19.429  0.00  0.00    +0.000 N 
ATOM      4  C   UNL     1       0.720   9.068  20.623  0.00  0.00    +0.000 C 
ATOM      5  C   UNL     1      -0.163   9.609  21.718  0.00  0.00    +0.000 C 
ATOM      6  O   UNL     1       1.224   7.981  20.857  0.00  0.00    +0.000 OA
ENDROOT
BRANCH   1   7
ATOM      7  O   UNL     1       2.311   7.848  18.645  0.00  0.00    +0.000 OA
BRANCH   7   8
ATOM      8  C   UNL     1       3.337   7.268  17.887  0.00  0.00    +0.000 C 
BRANCH   8  11
ATOM      9  C   UNL     1       1.936   4.447  18.012  0.00  0.00    +0.000 C 
ATOM     10  C   UNL     1       3.318   4.688  17.445  0.00  0.00    +0.000 C 
ATOM     11  C   UNL     1       3.804   5.829  18.292  0.00  0.00    +0.000 C 
ATOM     12  C   UNL     1       3.261   5.358  19.628  0.00  0.00    +0.000 C 
ATOM     13  O   UNL     1       1.973   4.822  19.384  0.00  0.00    +0.000 OA
BRANCH   9  14
ATOM     14  O   UNL     1       1.578   3.087  17.846  0.00  0.00    +0.000 OA
BRANCH  14  16
ATOM     15  C   UNL     1       3.201   1.537  18.697  0.00  0.00    +0.000 C 
ATOM     16  C   UNL     1       2.712   2.322  17.486  0.00  0.00    +0.000 C 
ENDBRANCH  14  16
ENDBRANCH   9  14
ENDBRANCH   8  11
ENDBRANCH   7   8
ENDBRANCH   1   7
BRANCH   3  17
ATOM     17  C   UNL     1       0.368  11.071  19.171  0.00  0.00    +0.000 C 
BRANCH  17  18
ATOM     18  C   UNL     1      -1.113  11.009  18.735  0.00  0.00    +0.000 A 
ATOM     19  C   UNL     1      -1.400  10.151  17.656  0.00  0.00    +0.000 A 
ATOM     20  C   UNL     1      -2.676  10.093  17.115  0.00  0.00    +0.000 A 
ATOM     21  C   UNL     1      -3.688  10.869  17.654  0.00  0.00    +0.000 A 
ATOM     22  C   UNL     1      -3.417  11.678  18.749  0.00  0.00    +0.000 A 
ATOM     23  N   UNL     1      -2.157  11.757  19.293  0.00  0.00    +0.000 N 
BRANCH  23  24
ATOM     24  C   UNL     1      -2.045  12.639  20.488  0.00  0.00    +0.000 C 
ATOM     25  C   UNL     1      -1.466  14.034  20.167  0.00  0.00    +0.000 C 
ENDBRANCH  23  24
ENDBRANCH  17  18
ENDBRANCH   3  17
TORSDOF 8
ENDMDL
MODEL 4
REMARK VINA RESULT:      -6.7      3.107      5.192
REMARK  Name = 
REMARK  11 active torsions:
REMARK  status: ('A' for Active; 'I' for Inactive)
REMARK    1  A    between atoms: C_1  and  C_2
REMARK    2  A    between atoms: C_2  and  O_3
REMARK    3  A    between atoms: O_3  and  C_4
REMARK    4  A    between atoms: C_6  and  C_7
REMARK    5  A    between atoms: C_7  and  O_8
REMARK    6  A    between atoms: O_8  and  C_9
REMARK    7  A    between atoms: N_11  and  C_12
REMARK    8  A    between atoms: C_12  and  C_13
REMARK    9  A    between atoms: N_18  and  C_19
REMARK   10  A    between atoms: C_19  and  C_20
REMARK   11  A    between atoms: C_21  and  C_22
REMARK                            x       y       z     vdW  Elec       q    Type
REMARK                         _______ _______ _______ _____ _____    ______ ____
ROOT
ATOM      1  C   UNL     1       2.040   8.392  18.403  0.00  0.00    +0.000 C 
ATOM      2  O   UNL     1       2.273   8.781  17.265  0.00  0.00    +0.000 OA
ATOM      3  N   UNL     1       1.393   9.247  19.301  0.00  0.00    +0.000 N 
ATOM      4  C   UNL     1       1.108   8.802  20.585  0.00  0.00    +0.000 C 
ATOM      5  C   UNL     1       0.384   9.619  21.624  0.00  0.00    +0.000 C 
ATOM      6  O   UNL     1       1.452   7.690  20.951  0.00  0.00    +0.000 OA
ENDROOT
BRANCH   1   7
ATOM      7  O   UNL     1       2.374   7.090  18.742  0.00  0.00    +0.000 OA
BRANCH   7   8
ATOM      8  C   UNL     1       2.371   5.989  17.875  0.00  0.00    +0.000 C 
BRANCH   8  11
ATOM      9  C   UNL     1       5.369   5.204  18.451  0.00  0.00    +0.000 C 
ATOM     10  C   UNL     1       4.207   4.851  19.354  0.00  0.00    +0.000 C 
ATOM     11  C   UNL     1       3.088   4.686  18.366  0.00  0.00    +0.000 C 
ATOM     12  C   UNL     1       3.859   3.961  17.279  0.00  0.00    +0.000 C 
ATOM     13  O   UNL     1       5.132   4.576  17.196  0.00  0.00    +0.000 OA
BRANCH   9  14
ATOM     14  O   UNL     1       6.582   4.770  19.038  0.00  0.00    +0.000 OA
BRANCH  14  16
ATOM     15  C   UNL     1       7.841   6.697  18.359  0.00  0.00    +0.000 C 
ATOM     16  C   UNL     1       7.684   5.186  18.254  0.00  0.00    +0.000 C 
ENDBRANCH  14  16
ENDBRANCH   9  14
ENDBRANCH   8  11
ENDBRANCH   7   8
ENDBRANCH   1   7
BRANCH   3  17
ATOM     17  C   UNL     1       0.980  10.622  18.878  0.00  0.00    +0.000 C 
BRANCH  17  18
ATOM     18  C   UNL     1      -0.519  10.744  18.525  0.00  0.00    +0.000 A 
ATOM     19  C   UNL     1      -0.999   9.834  17.563  0.00  0.00    +0.000 A 
ATOM     20  C   UNL     1      -2.302   9.918  17.096  0.00  0.00    +0.000 A 
ATOM     21  C   UNL     1      -3.152  10.889  17.595  0.00  0.00    +0.000 A 
ATOM     22  C   UNL     1      -2.694  11.754  18.580  0.00  0.00    +0.000 A 
ATOM     23  N   UNL     1      -1.403  11.695  19.049  0.00  0.00    +0.000 N 
BRANCH  23  24
ATOM     24  C   UNL     1      -1.085  12.667  20.132  0.00  0.00    +0.000 C 
ATOM     25  C   UNL     1      -0.710  14.069  19.606  0.00  0.00    +0.000 C 
ENDBRANCH  23  24
ENDBRANCH  17  18
ENDBRANCH   3  17
TORSDOF 8
ENDMDL
MODEL 5
REMARK VINA RESULT:      -6.7      3.023      8.408
REMARK  Name = 
REMARK  11 active torsions:
REMARK  status: ('A' for Active; 'I' for Inactive)
REMARK    1  A    between atoms: C_1  and  C_2
REMARK    2  A    between atoms: C_2  and  O_3
REMARK    3  A    between atoms: O_3  and  C_4
REMARK    4  A    between atoms: C_6  and  C_7
REMARK    5  A    between atoms: C_7  and  O_8
REMARK    6  A    between atoms: O_8  and  C_9
REMARK    7  A    between atoms: N_11  and  C_12
REMARK    8  A    between atoms: C_12  and  C_13
REMARK    9  A    between atoms: N_18  and  C_19
REMARK   10  A    between atoms: C_19  and  C_20
REMARK   11  A    between atoms: C_21  and  C_22
REMARK                            x       y       z     vdW  Elec       q    Type
REMARK                         _______ _______ _______ _____ _____    ______ ____
ROOT
ATOM      1  C   UNL     1       2.459   5.965  19.386  0.00  0.00    +0.000 C 
ATOM      2  O   UNL     1       2.754   6.936  18.699  0.00  0.00    +0.000 OA
ATOM      3  N   UNL     1       2.838   4.687  18.966  0.00  0.00    +0.000 N 
ATOM      4  C   UNL     1       2.523   3.587  19.752  0.00  0.00    +0.000 C 
ATOM      5  C   UNL     1       2.911   2.168  19.421  0.00  0.00    +0.000 C 
ATOM      6  O   UNL     1       1.884   3.719  20.783  0.00  0.00    +0.000 OA
ENDROOT
BRANCH   1   7
ATOM      7  O   UNL     1       1.808   6.178  20.591  0.00  0.00    +0.000 OA
BRANCH   7   8
ATOM      8  C   UNL     1       0.854   7.172  20.845  0.00  0.00    +0.000 C 
BRANCH   8  11
ATOM      9  C   UNL     1      -0.263   9.647  22.447  0.00  0.00    +0.000 C 
ATOM     10  C   UNL     1       1.166   9.156  22.525  0.00  0.00    +0.000 C 
ATOM     11  C   UNL     1       1.383   8.617  21.140  0.00  0.00    +0.000 C 
ATOM     12  C   UNL     1       0.665   9.706  20.365  0.00  0.00    +0.000 C 
ATOM     13  O   UNL     1      -0.502  10.033  21.098  0.00  0.00    +0.000 OA
BRANCH   9  14
ATOM     14  O   UNL     1      -0.451  10.725  23.345  0.00  0.00    +0.000 OA
BRANCH  14  16
ATOM     15  C   UNL     1      -1.202  12.979  23.004  0.00  0.00    +0.000 C 
ATOM     16  C   UNL     1      -1.568  11.501  22.955  0.00  0.00    +0.000 C 
ENDBRANCH  14  16
ENDBRANCH   9  14
ENDBRANCH   8  11
ENDBRANCH   7   8
ENDBRANCH   1   7
BRANCH   3  17
ATOM     17  C   UNL     1       3.604   4.501  17.693  0.00  0.00    +0.000 C 
BRANCH  17  18
ATOM     18  C   UNL     1       5.133   4.653  17.857  0.00  0.00    +0.000 A 
ATOM     19  C   UNL     1       5.570   5.169  19.093  0.00  0.00    +0.000 A 
ATOM     20  C   UNL     1       6.911   5.442  19.313  0.00  0.00    +0.000 A 
ATOM     21  C   UNL     1       7.839   5.186  18.318  0.00  0.00    +0.000 A 
ATOM     22  C   UNL     1       7.415   4.631  17.118  0.00  0.00    +0.000 A 
ATOM     23  N   UNL     1       6.088   4.362  16.876  0.00  0.00    +0.000 N 
BRANCH  23  24
ATOM     24  C   UNL     1       5.808   3.732  15.556  0.00  0.00    +0.000 C 
ATOM     25  C   UNL     1       6.458   4.479  14.371  0.00  0.00    +0.000 C 
ENDBRANCH  23  24
ENDBRANCH  17  18
ENDBRANCH   3  17
TORSDOF 8
ENDMDL
MODEL 6
REMARK VINA RESULT:      -6.7      3.190      8.294
REMARK  Name = 
REMARK  11 active torsions:
REMARK  status: ('A' for Active; 'I' for Inactive)
REMARK    1  A    between atoms: C_1  and  C_2
REMARK    2  A    between atoms: C_2  and  O_3
REMARK    3  A    between atoms: O_3  and  C_4
REMARK    4  A    between atoms: C_6  and  C_7
REMARK    5  A    between atoms: C_7  and  O_8
REMARK    6  A    between atoms: O_8  and  C_9
REMARK    7  A    between atoms: N_11  and  C_12
REMARK    8  A    between atoms: C_12  and  C_13
REMARK    9  A    between atoms: N_18  and  C_19
REMARK   10  A    between atoms: C_19  and  C_20
REMARK   11  A    between atoms: C_21  and  C_22
REMARK                            x       y       z     vdW  Elec       q    Type
REMARK                         _______ _______ _______ _____ _____    ______ ____
ROOT
ATOM      1  C   UNL     1       2.655   6.081  19.555  0.00  0.00    +0.000 C 
ATOM      2  O   UNL     1       2.828   6.949  18.707  0.00  0.00    +0.000 OA
ATOM      3  N   UNL     1       3.236   4.821  19.373  0.00  0.00    +0.000 N 
ATOM      4  C   UNL     1       3.060   3.842  20.341  0.00  0.00    +0.000 C 
ATOM      5  C   UNL     1       3.667   2.463  20.273  0.00  0.00    +0.000 C 
ATOM      6  O   UNL     1       2.372   4.053  21.326  0.00  0.00    +0.000 OA
ENDROOT
BRANCH   1   7
ATOM      7  O   UNL     1       1.937   6.399  20.696  0.00  0.00    +0.000 OA
BRANCH   7   8
ATOM      8  C   UNL     1       0.903   7.341  20.779  0.00  0.00    +0.000 C 
BRANCH   8  11
ATOM      9  C   UNL     1      -0.497   9.618  22.450  0.00  0.00    +0.000 C 
ATOM     10  C   UNL     1       0.963   9.241  22.580  0.00  0.00    +0.000 C 
ATOM     11  C   UNL     1       1.293   8.804  21.182  0.00  0.00    +0.000 C 
ATOM     12  C   UNL     1       0.527   9.875  20.429  0.00  0.00    +0.000 C 
ATOM     13  O   UNL     1      -0.699  10.063  21.113  0.00  0.00    +0.000 OA
BRANCH   9  14
ATOM     14  O   UNL     1      -0.820  10.623  23.394  0.00  0.00    +0.000 OA
BRANCH  14  16
ATOM     15  C   UNL     1      -2.608  12.221  23.307  0.00  0.00    +0.000 C 
ATOM     16  C   UNL     1      -1.262  11.793  22.735  0.00  0.00    +0.000 C 
ENDBRANCH  14  16
ENDBRANCH   9  14
ENDBRANCH   8  11
ENDBRANCH   7   8
ENDBRANCH   1   7
BRANCH   3  17
ATOM     17  C   UNL     1       4.067   4.534  18.162  0.00  0.00    +0.000 C 
BRANCH  17  18
ATOM     18  C   UNL     1       5.437   5.249  18.161  0.00  0.00    +0.000 A 
ATOM     19  C   UNL     1       6.241   5.038  19.298  0.00  0.00    +0.000 A 
ATOM     20  C   UNL     1       7.445   5.709  19.449  0.00  0.00    +0.000 A 
ATOM     21  C   UNL     1       7.877   6.580  18.465  0.00  0.00    +0.000 A 
ATOM     22  C   UNL     1       7.109   6.750  17.321  0.00  0.00    +0.000 A 
ATOM     23  N   UNL     1       5.907   6.103  17.155  0.00  0.00    +0.000 N 
BRANCH  23  24
ATOM     24  C   UNL     1       5.229   6.364  15.856  0.00  0.00    +0.000 C 
ATOM     25  C   UNL     1       5.467   5.256  14.807  0.00  0.00    +0.000 C 
ENDBRANCH  23  24
ENDBRANCH  17  18
ENDBRANCH   3  17
TORSDOF 8
ENDMDL
MODEL 7
REMARK VINA RESULT:      -6.7      3.074      8.323
REMARK  Name = 
REMARK  11 active torsions:
REMARK  status: ('A' for Active; 'I' for Inactive)
REMARK    1  A    between atoms: C_1  and  C_2
REMARK    2  A    between atoms: C_2  and  O_3
REMARK    3  A    between atoms: O_3  and  C_4
REMARK    4  A    between atoms: C_6  and  C_7
REMARK    5  A    between atoms: C_7  and  O_8
REMARK    6  A    between atoms: O_8  and  C_9
REMARK    7  A    between atoms: N_11  and  C_12
REMARK    8  A    between atoms: C_12  and  C_13
REMARK    9  A    between atoms: N_18  and  C_19
REMARK   10  A    between atoms: C_19  and  C_20
REMARK   11  A    between atoms: C_21  and  C_22
REMARK                            x       y       z     vdW  Elec       q    Type
REMARK                         _______ _______ _______ _____ _____    ______ ____
ROOT
ATOM      1  C   UNL     1       2.375   6.012  19.218  0.00  0.00    +0.000 C 
ATOM      2  O   UNL     1       2.554   6.677  18.205  0.00  0.00    +0.000 OA
ATOM      3  N   UNL     1       2.875   4.707  19.277  0.00  0.00    +0.000 N 
ATOM      4  C   UNL     1       2.693   3.957  20.432  0.00  0.00    +0.000 C 
ATOM      5  C   UNL     1       3.217   2.557  20.625  0.00  0.00    +0.000 C 
ATOM      6  O   UNL     1       2.068   4.408  21.377  0.00  0.00    +0.000 OA
ENDROOT
BRANCH   1   7
ATOM      7  O   UNL     1       1.734   6.601  20.296  0.00  0.00    +0.000 OA
BRANCH   7   8
ATOM      8  C   UNL     1       1.674   7.975  20.565  0.00  0.00    +0.000 C 
BRANCH   8  11
ATOM      9  C   UNL     1       0.312  10.796  20.917  0.00  0.00    +0.000 C 
ATOM     10  C   UNL     1      -0.444   9.510  20.664  0.00  0.00    +0.000 C 
ATOM     11  C   UNL     1       0.426   8.499  21.353  0.00  0.00    +0.000 C 
ATOM     12  C   UNL     1       0.774   9.312  22.586  0.00  0.00    +0.000 C 
ATOM     13  O   UNL     1       1.001  10.641  22.153  0.00  0.00    +0.000 OA
BRANCH   9  14
ATOM     14  O   UNL     1      -0.591  11.886  20.950  0.00  0.00    +0.000 OA
BRANCH  14  16
ATOM     15  C   UNL     1      -2.066  12.301  22.797  0.00  0.00    +0.000 C 
ATOM     16  C   UNL     1      -0.650  12.437  22.251  0.00  0.00    +0.000 C 
ENDBRANCH  14  16
ENDBRANCH   9  14
ENDBRANCH   8  11
ENDBRANCH   7   8
ENDBRANCH   1   7
BRANCH   3  17
ATOM     17  C   UNL     1       3.627   4.127  18.120  0.00  0.00    +0.000 C 
BRANCH  17  18
ATOM     18  C   UNL     1       5.122   4.516  18.089  0.00  0.00    +0.000 A 
ATOM     19  C   UNL     1       5.636   5.073  19.276  0.00  0.00    +0.000 A 
ATOM     20  C   UNL     1       6.937   5.551  19.329  0.00  0.00    +0.000 A 
ATOM     21  C   UNL     1       7.751   5.460  18.213  0.00  0.00    +0.000 A 
ATOM     22  C   UNL     1       7.260   4.865  17.059  0.00  0.00    +0.000 A 
ATOM     23  N   UNL     1       5.970   4.395  16.982  0.00  0.00    +0.000 N 
BRANCH  23  24
ATOM     24  C   UNL     1       5.615   3.750  15.687  0.00  0.00    +0.000 C 
ATOM     25  C   UNL     1       6.431   4.288  14.491  0.00  0.00    +0.000 C 
ENDBRANCH  23  24
ENDBRANCH  17  18
ENDBRANCH   3  17
TORSDOF 8
ENDMDL
MODEL 8
REMARK VINA RESULT:      -6.6      3.036      8.156
REMARK  Name = 
REMARK  11 active torsions:
REMARK  status: ('A' for Active; 'I' for Inactive)
REMARK    1  A    between atoms: C_1  and  C_2
REMARK    2  A    between atoms: C_2  and  O_3
REMARK    3  A    between atoms: O_3  and  C_4
REMARK    4  A    between atoms: C_6  and  C_7
REMARK    5  A    between atoms: C_7  and  O_8
REMARK    6  A    between atoms: O_8  and  C_9
REMARK    7  A    between atoms: N_11  and  C_12
REMARK    8  A    between atoms: C_12  and  C_13
REMARK    9  A    between atoms: N_18  and  C_19
REMARK   10  A    between atoms: C_19  and  C_20
REMARK   11  A    between atoms: C_21  and  C_22
REMARK                            x       y       z     vdW  Elec       q    Type
REMARK                         _______ _______ _______ _____ _____    ______ ____
ROOT
ATOM      1  C   UNL     1       2.525   7.647  18.164  0.00  0.00    +0.000 C 
ATOM      2  O   UNL     1       3.018   7.922  17.077  0.00  0.00    +0.000 OA
ATOM      3  N   UNL     1       2.675   6.355  18.678  0.00  0.00    +0.000 N 
ATOM      4  C   UNL     1       2.136   6.046  19.920  0.00  0.00    +0.000 C 
ATOM      5  C   UNL     1       2.267   4.702  20.590  0.00  0.00    +0.000 C 
ATOM      6  O   UNL     1       1.497   6.875  20.547  0.00  0.00    +0.000 OA
ENDROOT
BRANCH   1   7
ATOM      7  O   UNL     1       1.883   8.649  18.875  0.00  0.00    +0.000 OA
BRANCH   7   8
ATOM      8  C   UNL     1       1.603   9.939  18.406  0.00  0.00    +0.000 C 
BRANCH   8  11
ATOM      9  C   UNL     1       0.771  10.083  21.443  0.00  0.00    +0.000 C 
ATOM     10  C   UNL     1       1.014  11.293  20.567  0.00  0.00    +0.000 C 
ATOM     11  C   UNL     1       0.574  10.793  19.222  0.00  0.00    +0.000 C 
ATOM     12  C   UNL     1      -0.654  10.020  19.665  0.00  0.00    +0.000 C 
ATOM     13  O   UNL     1      -0.314   9.361  20.871  0.00  0.00    +0.000 OA
BRANCH   9  14
ATOM     14  O   UNL     1       0.490  10.496  22.767  0.00  0.00    +0.000 OA
BRANCH  14  16
ATOM     15  C   UNL     1      -1.674  11.453  23.168  0.00  0.00    +0.000 C 
ATOM     16  C   UNL     1      -0.845  10.177  23.109  0.00  0.00    +0.000 C 
ENDBRANCH  14  16
ENDBRANCH   9  14
ENDBRANCH   8  11
ENDBRANCH   7   8
ENDBRANCH   1   7
BRANCH   3  17
ATOM     17  C   UNL     1       3.438   5.317  17.915  0.00  0.00    +0.000 C 
BRANCH  17  18
ATOM     18  C   UNL     1       4.971   5.498  17.975  0.00  0.00    +0.000 A 
ATOM     19  C   UNL     1       5.558   5.344  19.246  0.00  0.00    +0.000 A 
ATOM     20  C   UNL     1       6.911   5.583  19.436  0.00  0.00    +0.000 A 
ATOM     21  C   UNL     1       7.702   5.956  18.363  0.00  0.00    +0.000 A 
ATOM     22  C   UNL     1       7.133   6.059  17.100  0.00  0.00    +0.000 A 
ATOM     23  N   UNL     1       5.792   5.836  16.893  0.00  0.00    +0.000 N 
BRANCH  23  24
ATOM     24  C   UNL     1       5.351   5.950  15.475  0.00  0.00    +0.000 C 
ATOM     25  C   UNL     1       5.395   4.608  14.711  0.00  0.00    +0.000 C 
ENDBRANCH  23  24
ENDBRANCH  17  18
ENDBRANCH   3  17
TORSDOF 8
ENDMDL
MODEL 9
REMARK VINA RESULT:      -6.6      3.814      6.204
REMARK  Name = 
REMARK  11 active torsions:
REMARK  status: ('A' for Active; 'I' for Inactive)
REMARK    1  A    between atoms: C_1  and  C_2
REMARK    2  A    between atoms: C_2  and  O_3
REMARK    3  A    between atoms: O_3  and  C_4
REMARK    4  A    between atoms: C_6  and  C_7
REMARK    5  A    between atoms: C_7  and  O_8
REMARK    6  A    between atoms: O_8  and  C_9
REMARK    7  A    between atoms: N_11  and  C_12
REMARK    8  A    between atoms: C_12  and  C_13
REMARK    9  A    between atoms: N_18  and  C_19
REMARK   10  A    between atoms: C_19  and  C_20
REMARK   11  A    between atoms: C_21  and  C_22
REMARK                            x       y       z     vdW  Elec       q    Type
REMARK                         _______ _______ _______ _____ _____    ______ ____
ROOT
ATOM      1  C   UNL     1       1.851   9.370  18.440  0.00  0.00    +0.000 C 
ATOM      2  O   UNL     1       2.046   9.956  17.382  0.00  0.00    +0.000 OA
ATOM      3  N   UNL     1       0.981   9.928  19.382  0.00  0.00    +0.000 N 
ATOM      4  C   UNL     1       0.742   9.258  20.574  0.00  0.00    +0.000 C 
ATOM      5  C   UNL     1      -0.201   9.742  21.645  0.00  0.00    +0.000 C 
ATOM      6  O   UNL     1       1.312   8.208  20.825  0.00  0.00    +0.000 OA
ENDROOT
BRANCH   1   7
ATOM      7  O   UNL     1       2.456   8.139  18.639  0.00  0.00    +0.000 OA
BRANCH   7   8
ATOM      8  C   UNL     1       2.711   7.180  17.651  0.00  0.00    +0.000 C 
BRANCH   8  11
ATOM      9  C   UNL     1       1.852   4.495  19.061  0.00  0.00    +0.000 C 
ATOM     10  C   UNL     1       2.770   4.571  17.860  0.00  0.00    +0.000 C 
ATOM     11  C   UNL     1       3.469   5.880  18.089  0.00  0.00    +0.000 C 
ATOM     12  C   UNL     1       3.673   5.762  19.588  0.00  0.00    +0.000 C 
ATOM     13  O   UNL     1       2.489   5.198  20.123  0.00  0.00    +0.000 OA
BRANCH   9  14
ATOM     14  O   UNL     1       1.610   3.141  19.397  0.00  0.00    +0.000 OA
BRANCH  14  16
ATOM     15  C   UNL     1       1.931   2.491  21.684  0.00  0.00    +0.000 C 
ATOM     16  C   UNL     1       0.962   3.052  20.651  0.00  0.00    +0.000 C 
ENDBRANCH  14  16
ENDBRANCH   9  14
ENDBRANCH   8  11
ENDBRANCH   7   8
ENDBRANCH   1   7
BRANCH   3  17
ATOM     17  C   UNL     1       0.288  11.225  19.103  0.00  0.00    +0.000 C 
BRANCH  17  18
ATOM     18  C   UNL     1      -1.184  11.063  18.659  0.00  0.00    +0.000 A 
ATOM     19  C   UNL     1      -1.433  10.046  17.718  0.00  0.00    +0.000 A 
ATOM     20  C   UNL     1      -2.697   9.877  17.175  0.00  0.00    +0.000 A 
ATOM     21  C   UNL     1      -3.735  10.700  17.575  0.00  0.00    +0.000 A 
ATOM     22  C   UNL     1      -3.501  11.671  18.540  0.00  0.00    +0.000 A 
ATOM     23  N   UNL     1      -2.253  11.861  19.084  0.00  0.00    +0.000 N 
BRANCH  23  24
ATOM     24  C   UNL     1      -2.182  12.916  20.133  0.00  0.00    +0.000 C 
ATOM     25  C   UNL     1      -3.157  12.678  21.307  0.00  0.00    +0.000 C 
ENDBRANCH  23  24
ENDBRANCH  17  18
ENDBRANCH   3  17
TORSDOF 8
ENDMDL
