MODEL 1
REMARK VINA RESULT:      -8.6      0.000      0.000
REMARK  Name = 
REMARK  9 active torsions:
REMARK  status: ('A' for Active; 'I' for Inactive)
REMARK    1  A    between atoms: C_1  and  C_2
REMARK    2  A    between atoms: C_2  and  C_3
REMARK    3  A    between atoms: C_2  and  C_4
REMARK    4  A    between atoms: C_2  and  C_5
REMARK    5  A    between atoms: C_8  and  C_9
REMARK    6  A    between atoms: C_10  and  C_11
REMARK    7  A    between atoms: N_13  and  N_14
REMARK    8  A    between atoms: C_15  and  C_16
REMARK    9  A    between atoms: C_19  and  O_20
REMARK                            x       y       z     vdW  Elec       q    Type
REMARK                         _______ _______ _______ _____ _____    ______ ____
ROOT
ATOM      1  C   UNL     1       7.516   7.520  17.797  0.00  0.00    +0.000 C 
ATOM      2  O   UNL     1       7.944   6.733  18.637  0.00  0.00    +0.000 OA
ATOM      3  N   UNL     1       6.425   7.303  16.967  0.00  0.00    +0.000 N 
ATOM      4  H   UNL     1       6.115   7.996  16.301  0.00  0.00    +0.000 HD
ENDROOT
BRANCH   1   6
ATOM      5  C   UNL     1       8.686   9.504  18.624  0.00  0.00    +0.000 C 
ATOM      6  C   UNL     1       8.146   8.853  17.581  0.00  0.00    +0.000 C 
BRANCH   5  10
ATOM      7  C   UNL     1      10.535  13.418  18.530  0.00  0.00    +0.000 A 
ATOM      8  C   UNL     1      11.040  12.364  19.308  0.00  0.00    +0.000 A 
ATOM      9  C   UNL     1      10.430  11.101  19.320  0.00  0.00    +0.000 A 
ATOM     10  C   UNL     1       9.283  10.846  18.564  0.00  0.00    +0.000 A 
ATOM     11  C   UNL     1       8.785  11.876  17.762  0.00  0.00    +0.000 A 
ATOM     12  C   UNL     1       9.396  13.140  17.752  0.00  0.00    +0.000 A 
BRANCH   7  14
ATOM     13  C   UNL     1      10.158  15.961  18.374  0.00  0.00    +0.000 C 
ATOM     14  C   UNL     1      11.186  14.814  18.503  0.00  0.00    +0.000 C 
ATOM     15  C   UNL     1      12.153  14.935  17.305  0.00  0.00    +0.000 C 
ATOM     16  C   UNL     1      11.984  15.053  19.804  0.00  0.00    +0.000 C 
ENDBRANCH   7  14
ENDBRANCH   5  10
ENDBRANCH   1   6
BRANCH   3  17
ATOM     17  N   UNL     1       5.738   6.132  17.084  0.00  0.00    +0.000 NA
ATOM     18  C   UNL     1       4.548   6.190  17.589  0.00  0.00    +0.000 C 
BRANCH  18  19
ATOM     19  C   UNL     1       3.743   4.959  17.757  0.00  0.00    +0.000 A 
ATOM     20  C   UNL     1       4.366   3.705  17.757  0.00  0.00    +0.000 A 
ATOM     21  C   UNL     1       3.609   2.545  17.930  0.00  0.00    +0.000 A 
ATOM     22  C   UNL     1       2.232   2.652  18.103  0.00  0.00    +0.000 A 
ATOM     23  C   UNL     1       1.602   3.891  18.095  0.00  0.00    +0.000 A 
ATOM     24  C   UNL     1       2.357   5.056  17.924  0.00  0.00    +0.000 A 
BRANCH  22  25
ATOM     25  O   UNL     1       1.456   1.545  18.289  0.00  0.00    +0.000 OA
ATOM     26  H   UNL     1       1.926   0.932  18.880  0.00  0.00    +0.000 HD
ENDBRANCH  22  25
ENDBRANCH  18  19
ENDBRANCH   3  17
TORSDOF 6
ENDMDL
MODEL 2
REMARK VINA RESULT:      -8.4      0.409      1.321
REMARK  Name = 
REMARK  9 active torsions:
REMARK  status: ('A' for Active; 'I' for Inactive)
REMARK    1  A    between atoms: C_1  and  C_2
REMARK    2  A    between atoms: C_2  and  C_3
REMARK    3  A    between atoms: C_2  and  C_4
REMARK    4  A    between atoms: C_2  and  C_5
REMARK    5  A    between atoms: C_8  and  C_9
REMARK    6  A    between atoms: C_10  and  C_11
REMARK    7  A    between atoms: N_13  and  N_14
REMARK    8  A    between atoms: C_15  and  C_16
REMARK    9  A    between atoms: C_19  and  O_20
REMARK                            x       y       z     vdW  Elec       q    Type
REMARK                         _______ _______ _______ _____ _____    ______ ____
ROOT
ATOM      1  C   UNL     1       7.621   7.739  17.876  0.00  0.00    +0.000 C 
ATOM      2  O   UNL     1       8.094   6.884  18.618  0.00  0.00    +0.000 OA
ATOM      3  N   UNL     1       6.504   7.582  17.067  0.00  0.00    +0.000 N 
ATOM      4  H   UNL     1       6.156   8.330  16.484  0.00  0.00    +0.000 HD
ENDROOT
BRANCH   1   6
ATOM      5  C   UNL     1       8.883   9.612  18.819  0.00  0.00    +0.000 C 
ATOM      6  C   UNL     1       8.217   9.101  17.771  0.00  0.00    +0.000 C 
BRANCH   5  10
ATOM      7  C   UNL     1      10.537  13.612  18.870  0.00  0.00    +0.000 A 
ATOM      8  C   UNL     1       9.682  13.164  17.850  0.00  0.00    +0.000 A 
ATOM      9  C   UNL     1       9.152  11.865  17.855  0.00  0.00    +0.000 A 
ATOM     10  C   UNL     1       9.466  10.961  18.873  0.00  0.00    +0.000 A 
ATOM     11  C   UNL     1      10.292  11.402  19.910  0.00  0.00    +0.000 A 
ATOM     12  C   UNL     1      10.823  12.702  19.903  0.00  0.00    +0.000 A 
BRANCH   7  14
ATOM     13  C   UNL     1      11.678  15.449  20.270  0.00  0.00    +0.000 C 
ATOM     14  C   UNL     1      11.134  15.033  18.883  0.00  0.00    +0.000 C 
ATOM     15  C   UNL     1      10.063  16.072  18.485  0.00  0.00    +0.000 C 
ATOM     16  C   UNL     1      12.306  15.127  17.881  0.00  0.00    +0.000 C 
ENDBRANCH   7  14
ENDBRANCH   5  10
ENDBRANCH   1   6
BRANCH   3  17
ATOM     17  N   UNL     1       5.844   6.389  17.091  0.00  0.00    +0.000 NA
ATOM     18  C   UNL     1       4.636   6.390  17.555  0.00  0.00    +0.000 C 
BRANCH  18  19
ATOM     19  C   UNL     1       3.858   5.132  17.623  0.00  0.00    +0.000 A 
ATOM     20  C   UNL     1       4.493   3.899  17.429  0.00  0.00    +0.000 A 
ATOM     21  C   UNL     1       3.762   2.712  17.507  0.00  0.00    +0.000 A 
ATOM     22  C   UNL     1       2.399   2.771  17.780  0.00  0.00    +0.000 A 
ATOM     23  C   UNL     1       1.755   3.990  17.966  0.00  0.00    +0.000 A 
ATOM     24  C   UNL     1       2.485   5.181  17.891  0.00  0.00    +0.000 A 
BRANCH  22  25
ATOM     25  O   UNL     1       1.649   1.635  17.879  0.00  0.00    +0.000 OA
ATOM     26  H   UNL     1       1.110   1.548  17.074  0.00  0.00    +0.000 HD
ENDBRANCH  22  25
ENDBRANCH  18  19
ENDBRANCH   3  17
TORSDOF 6
ENDMDL
MODEL 3
REMARK VINA RESULT:      -8.0      0.578      1.132
REMARK  Name = 
REMARK  9 active torsions:
REMARK  status: ('A' for Active; 'I' for Inactive)
REMARK    1  A    between atoms: C_1  and  C_2
REMARK    2  A    between atoms: C_2  and  C_3
REMARK    3  A    between atoms: C_2  and  C_4
REMARK    4  A    between atoms: C_2  and  C_5
REMARK    5  A    between atoms: C_8  and  C_9
REMARK    6  A    between atoms: C_10  and  C_11
REMARK    7  A    between atoms: N_13  and  N_14
REMARK    8  A    between atoms: C_15  and  C_16
REMARK    9  A    between atoms: C_19  and  O_20
REMARK                            x       y       z     vdW  Elec       q    Type
REMARK                         _______ _______ _______ _____ _____    ______ ____
ROOT
ATOM      1  C   UNL     1       7.467   7.041  17.581  0.00  0.00    +0.000 C 
ATOM      2  O   UNL     1       8.082   6.056  17.979  0.00  0.00    +0.000 OA
ATOM      3  N   UNL     1       6.129   7.066  17.214  0.00  0.00    +0.000 N 
ATOM      4  H   UNL     1       5.676   7.914  16.903  0.00  0.00    +0.000 HD
ENDROOT
BRANCH   1   6
ATOM      5  C   UNL     1       8.493   9.032  18.567  0.00  0.00    +0.000 C 
ATOM      6  C   UNL     1       8.121   8.375  17.457  0.00  0.00    +0.000 C 
BRANCH   5  10
ATOM      7  C   UNL     1      10.168  13.025  18.549  0.00  0.00    +0.000 A 
ATOM      8  C   UNL     1       9.130  12.639  17.685  0.00  0.00    +0.000 A 
ATOM      9  C   UNL     1       8.597  11.342  17.711  0.00  0.00    +0.000 A 
ATOM     10  C   UNL     1       9.089  10.376  18.593  0.00  0.00    +0.000 A 
ATOM     11  C   UNL     1      10.102  10.753  19.479  0.00  0.00    +0.000 A 
ATOM     12  C   UNL     1      10.635  12.052  19.451  0.00  0.00    +0.000 A 
BRANCH   7  14
ATOM     13  C   UNL     1       9.741  15.544  18.881  0.00  0.00    +0.000 C 
ATOM     14  C   UNL     1      10.771  14.442  18.537  0.00  0.00    +0.000 C 
ATOM     15  C   UNL     1      11.341  14.774  17.140  0.00  0.00    +0.000 C 
ATOM     16  C   UNL     1      11.915  14.542  19.570  0.00  0.00    +0.000 C 
ENDBRANCH   7  14
ENDBRANCH   5  10
ENDBRANCH   1   6
BRANCH   3  17
ATOM     17  N   UNL     1       5.404   5.916  17.309  0.00  0.00    +0.000 NA
ATOM     18  C   UNL     1       4.277   5.975  17.943  0.00  0.00    +0.000 C 
BRANCH  18  19
ATOM     19  C   UNL     1       3.439   4.765  18.097  0.00  0.00    +0.000 A 
ATOM     20  C   UNL     1       4.035   3.517  18.315  0.00  0.00    +0.000 A 
ATOM     21  C   UNL     1       3.243   2.379  18.475  0.00  0.00    +0.000 A 
ATOM     22  C   UNL     1       1.858   2.500  18.415  0.00  0.00    +0.000 A 
ATOM     23  C   UNL     1       1.255   3.733  18.190  0.00  0.00    +0.000 A 
ATOM     24  C   UNL     1       2.045   4.877  18.032  0.00  0.00    +0.000 A 
BRANCH  22  25
ATOM     25  O   UNL     1       1.047   1.416  18.579  0.00  0.00    +0.000 OA
ATOM     26  H   UNL     1       0.571   1.510  19.422  0.00  0.00    +0.000 HD
ENDBRANCH  22  25
ENDBRANCH  18  19
ENDBRANCH   3  17
TORSDOF 6
ENDMDL
MODEL 4
REMARK VINA RESULT:      -8.0      0.607      1.123
REMARK  Name = 
REMARK  9 active torsions:
REMARK  status: ('A' for Active; 'I' for Inactive)
REMARK    1  A    between atoms: C_1  and  C_2
REMARK    2  A    between atoms: C_2  and  C_3
REMARK    3  A    between atoms: C_2  and  C_4
REMARK    4  A    between atoms: C_2  and  C_5
REMARK    5  A    between atoms: C_8  and  C_9
REMARK    6  A    between atoms: C_10  and  C_11
REMARK    7  A    between atoms: N_13  and  N_14
REMARK    8  A    between atoms: C_15  and  C_16
REMARK    9  A    between atoms: C_19  and  O_20
REMARK                            x       y       z     vdW  Elec       q    Type
REMARK                         _______ _______ _______ _____ _____    ______ ____
ROOT
ATOM      1  C   UNL     1       7.560   7.418  17.840  0.00  0.00    +0.000 C 
ATOM      2  O   UNL     1       8.104   6.512  18.464  0.00  0.00    +0.000 OA
ATOM      3  N   UNL     1       6.339   7.330  17.185  0.00  0.00    +0.000 N 
ATOM      4  H   UNL     1       5.938   8.116  16.696  0.00  0.00    +0.000 HD
ENDROOT
BRANCH   1   6
ATOM      5  C   UNL     1       8.659   9.370  18.824  0.00  0.00    +0.000 C 
ATOM      6  C   UNL     1       8.176   8.770  17.724  0.00  0.00    +0.000 C 
BRANCH   5  10
ATOM      7  C   UNL     1      10.383  13.334  19.067  0.00  0.00    +0.000 A 
ATOM      8  C   UNL     1      10.321  12.471  20.172  0.00  0.00    +0.000 A 
ATOM      9  C   UNL     1       9.763  11.187  20.071  0.00  0.00    +0.000 A 
ATOM     10  C   UNL     1       9.235  10.722  18.864  0.00  0.00    +0.000 A 
ATOM     11  C   UNL     1       9.316  11.558  17.748  0.00  0.00    +0.000 A 
ATOM     12  C   UNL     1       9.874  12.843  17.851  0.00  0.00    +0.000 A 
BRANCH   7  14
ATOM     13  C   UNL     1      10.062  15.841  18.572  0.00  0.00    +0.000 C 
ATOM     14  C   UNL     1      10.988  14.748  19.154  0.00  0.00    +0.000 C 
ATOM     15  C   UNL     1      12.318  14.816  18.371  0.00  0.00    +0.000 C 
ATOM     16  C   UNL     1      11.267  15.117  20.628  0.00  0.00    +0.000 C 
ENDBRANCH   7  14
ENDBRANCH   5  10
ENDBRANCH   1   6
BRANCH   3  17
ATOM     17  N   UNL     1       5.653   6.153  17.238  0.00  0.00    +0.000 NA
ATOM     18  C   UNL     1       4.631   6.096  18.030  0.00  0.00    +0.000 C 
BRANCH  18  19
ATOM     19  C   UNL     1       3.842   4.849  18.149  0.00  0.00    +0.000 A 
ATOM     20  C   UNL     1       2.490   4.833  17.788  0.00  0.00    +0.000 A 
ATOM     21  C   UNL     1       1.750   3.654  17.887  0.00  0.00    +0.000 A 
ATOM     22  C   UNL     1       2.374   2.497  18.347  0.00  0.00    +0.000 A 
ATOM     23  C   UNL     1       3.714   2.503  18.717  0.00  0.00    +0.000 A 
ATOM     24  C   UNL     1       4.459   3.683  18.617  0.00  0.00    +0.000 A 
BRANCH  22  25
ATOM     25  O   UNL     1       1.692   1.320  18.446  0.00  0.00    +0.000 OA
ATOM     26  H   UNL     1       2.248   0.679  18.922  0.00  0.00    +0.000 HD
ENDBRANCH  22  25
ENDBRANCH  18  19
ENDBRANCH   3  17
TORSDOF 6
ENDMDL
MODEL 5
REMARK VINA RESULT:      -7.7      0.836      1.572
REMARK  Name = 
REMARK  9 active torsions:
REMARK  status: ('A' for Active; 'I' for Inactive)
REMARK    1  A    between atoms: C_1  and  C_2
REMARK    2  A    between atoms: C_2  and  C_3
REMARK    3  A    between atoms: C_2  and  C_4
REMARK    4  A    between atoms: C_2  and  C_5
REMARK    5  A    between atoms: C_8  and  C_9
REMARK    6  A    between atoms: C_10  and  C_11
REMARK    7  A    between atoms: N_13  and  N_14
REMARK    8  A    between atoms: C_15  and  C_16
REMARK    9  A    between atoms: C_19  and  O_20
REMARK                            x       y       z     vdW  Elec       q    Type
REMARK                         _______ _______ _______ _____ _____    ______ ____
ROOT
ATOM      1  C   UNL     1       7.245   7.051  17.433  0.00  0.00    +0.000 C 
ATOM      2  O   UNL     1       7.800   5.997  17.136  0.00  0.00    +0.000 OA
ATOM      3  N   UNL     1       5.959   7.173  17.943  0.00  0.00    +0.000 N 
ATOM      4  H   UNL     1       5.561   8.070  18.178  0.00  0.00    +0.000 HD
ENDROOT
BRANCH   1   6
ATOM      5  C   UNL     1       8.330   9.030  18.378  0.00  0.00    +0.000 C 
ATOM      6  C   UNL     1       7.928   8.366  17.282  0.00  0.00    +0.000 C 
BRANCH   5  10
ATOM      7  C   UNL     1      10.083  12.988  18.302  0.00  0.00    +0.000 A 
ATOM      8  C   UNL     1       8.875  12.687  17.652  0.00  0.00    +0.000 A 
ATOM      9  C   UNL     1       8.321  11.399  17.694  0.00  0.00    +0.000 A 
ATOM     10  C   UNL     1       8.958  10.359  18.376  0.00  0.00    +0.000 A 
ATOM     11  C   UNL     1      10.146  10.651  19.052  0.00  0.00    +0.000 A 
ATOM     12  C   UNL     1      10.701  11.940  19.009  0.00  0.00    +0.000 A 
BRANCH   7  14
ATOM     13  C   UNL     1      11.787  14.552  17.168  0.00  0.00    +0.000 C 
ATOM     14  C   UNL     1      10.712  14.394  18.268  0.00  0.00    +0.000 C 
ATOM     15  C   UNL     1      11.393  14.713  19.617  0.00  0.00    +0.000 C 
ATOM     16  C   UNL     1       9.624  15.458  18.005  0.00  0.00    +0.000 C 
ENDBRANCH   7  14
ENDBRANCH   5  10
ENDBRANCH   1   6
BRANCH   3  17
ATOM     17  N   UNL     1       5.232   6.040  18.159  0.00  0.00    +0.000 NA
ATOM     18  C   UNL     1       4.008   6.031  17.738  0.00  0.00    +0.000 C 
BRANCH  18  19
ATOM     19  C   UNL     1       3.153   4.840  17.945  0.00  0.00    +0.000 A 
ATOM     20  C   UNL     1       3.441   3.642  17.281  0.00  0.00    +0.000 A 
ATOM     21  C   UNL     1       2.643   2.515  17.487  0.00  0.00    +0.000 A 
ATOM     22  C   UNL     1       1.562   2.599  18.359  0.00  0.00    +0.000 A 
ATOM     23  C   UNL     1       1.261   3.786  19.018  0.00  0.00    +0.000 A 
ATOM     24  C   UNL     1       2.060   4.917  18.815  0.00  0.00    +0.000 A 
BRANCH  22  25
ATOM     25  O   UNL     1       0.764   1.519  18.601  0.00  0.00    +0.000 OA
ATOM     26  H   UNL     1       0.958   1.184  19.493  0.00  0.00    +0.000 HD
ENDBRANCH  22  25
ENDBRANCH  18  19
ENDBRANCH   3  17
TORSDOF 6
ENDMDL
MODEL 6
REMARK VINA RESULT:      -7.7      0.899      1.193
REMARK  Name = 
REMARK  9 active torsions:
REMARK  status: ('A' for Active; 'I' for Inactive)
REMARK    1  A    between atoms: C_1  and  C_2
REMARK    2  A    between atoms: C_2  and  C_3
REMARK    3  A    between atoms: C_2  and  C_4
REMARK    4  A    between atoms: C_2  and  C_5
REMARK    5  A    between atoms: C_8  and  C_9
REMARK    6  A    between atoms: C_10  and  C_11
REMARK    7  A    between atoms: N_13  and  N_14
REMARK    8  A    between atoms: C_15  and  C_16
REMARK    9  A    between atoms: C_19  and  O_20
REMARK                            x       y       z     vdW  Elec       q    Type
REMARK                         _______ _______ _______ _____ _____    ______ ____
ROOT
ATOM      1  C   UNL     1       7.440   7.218  17.553  0.00  0.00    +0.000 C 
ATOM      2  O   UNL     1       8.094   6.190  17.698  0.00  0.00    +0.000 OA
ATOM      3  N   UNL     1       6.063   7.285  17.385  0.00  0.00    +0.000 N 
ATOM      4  H   UNL     1       5.580   8.165  17.280  0.00  0.00    +0.000 HD
ENDROOT
BRANCH   1   6
ATOM      5  C   UNL     1       8.577   9.057  18.699  0.00  0.00    +0.000 C 
ATOM      6  C   UNL     1       8.083   8.562  17.552  0.00  0.00    +0.000 C 
BRANCH   5  10
ATOM      7  C   UNL     1      10.308  12.983  19.276  0.00  0.00    +0.000 A 
ATOM      8  C   UNL     1       9.583  12.324  20.282  0.00  0.00    +0.000 A 
ATOM      9  C   UNL     1       9.035  11.049  20.077  0.00  0.00    +0.000 A 
ATOM     10  C   UNL     1       9.180  10.389  18.854  0.00  0.00    +0.000 A 
ATOM     11  C   UNL     1       9.923  11.019  17.853  0.00  0.00    +0.000 A 
ATOM     12  C   UNL     1      10.470  12.296  18.059  0.00  0.00    +0.000 A 
BRANCH   7  14
ATOM     13  C   UNL     1      11.041  14.784  20.965  0.00  0.00    +0.000 C 
ATOM     14  C   UNL     1      10.916  14.384  19.477  0.00  0.00    +0.000 C 
ATOM     15  C   UNL     1      10.041  15.456  18.790  0.00  0.00    +0.000 C 
ATOM     16  C   UNL     1      12.333  14.442  18.864  0.00  0.00    +0.000 C 
ENDBRANCH   7  14
ENDBRANCH   5  10
ENDBRANCH   1   6
BRANCH   3  17
ATOM     17  N   UNL     1       5.348   6.125  17.396  0.00  0.00    +0.000 NA
ATOM     18  C   UNL     1       4.317   6.071  18.178  0.00  0.00    +0.000 C 
BRANCH  18  19
ATOM     19  C   UNL     1       3.496   4.841  18.253  0.00  0.00    +0.000 A 
ATOM     20  C   UNL     1       4.077   3.628  18.639  0.00  0.00    +0.000 A 
ATOM     21  C   UNL     1       3.299   2.472  18.723  0.00  0.00    +0.000 A 
ATOM     22  C   UNL     1       1.943   2.542  18.420  0.00  0.00    +0.000 A 
ATOM     23  C   UNL     1       1.356   3.740  18.026  0.00  0.00    +0.000 A 
ATOM     24  C   UNL     1       2.132   4.901  17.943  0.00  0.00    +0.000 A 
BRANCH  22  25
ATOM     25  O   UNL     1       1.143   1.440  18.502  0.00  0.00    +0.000 OA
ATOM     26  H   UNL     1       1.575   0.786  19.077  0.00  0.00    +0.000 HD
ENDBRANCH  22  25
ENDBRANCH  18  19
ENDBRANCH   3  17
TORSDOF 6
ENDMDL
MODEL 7
REMARK VINA RESULT:      -7.7      1.189      1.732
REMARK  Name = 
REMARK  9 active torsions:
REMARK  status: ('A' for Active; 'I' for Inactive)
REMARK    1  A    between atoms: C_1  and  C_2
REMARK    2  A    between atoms: C_2  and  C_3
REMARK    3  A    between atoms: C_2  and  C_4
REMARK    4  A    between atoms: C_2  and  C_5
REMARK    5  A    between atoms: C_8  and  C_9
REMARK    6  A    between atoms: C_10  and  C_11
REMARK    7  A    between atoms: N_13  and  N_14
REMARK    8  A    between atoms: C_15  and  C_16
REMARK    9  A    between atoms: C_19  and  O_20
REMARK                            x       y       z     vdW  Elec       q    Type
REMARK                         _______ _______ _______ _____ _____    ______ ____
ROOT
ATOM      1  C   UNL     1       7.259   6.780  17.396  0.00  0.00    +0.000 C 
ATOM      2  O   UNL     1       7.520   5.948  16.533  0.00  0.00    +0.000 OA
ATOM      3  N   UNL     1       6.107   6.808  18.172  0.00  0.00    +0.000 N 
ATOM      4  H   UNL     1       5.955   7.516  18.876  0.00  0.00    +0.000 HD
ENDROOT
BRANCH   1   6
ATOM      5  C   UNL     1       7.721   9.135  17.873  0.00  0.00    +0.000 C 
ATOM      6  C   UNL     1       8.199   7.889  17.725  0.00  0.00    +0.000 C 
BRANCH   5  10
ATOM      7  C   UNL     1      10.053  12.715  18.574  0.00  0.00    +0.000 A 
ATOM      8  C   UNL     1       8.906  12.710  17.766  0.00  0.00    +0.000 A 
ATOM      9  C   UNL     1       8.160  11.540  17.556  0.00  0.00    +0.000 A 
ATOM     10  C   UNL     1       8.541  10.327  18.136  0.00  0.00    +0.000 A 
ATOM     11  C   UNL     1       9.664  10.322  18.967  0.00  0.00    +0.000 A 
ATOM     12  C   UNL     1      10.410  11.494  19.175  0.00  0.00    +0.000 A 
BRANCH   7  14
ATOM     13  C   UNL     1      10.319  15.233  18.102  0.00  0.00    +0.000 C 
ATOM     14  C   UNL     1      10.890  13.986  18.817  0.00  0.00    +0.000 C 
ATOM     15  C   UNL     1      12.333  13.788  18.303  0.00  0.00    +0.000 C 
ATOM     16  C   UNL     1      10.945  14.305  20.327  0.00  0.00    +0.000 C 
ENDBRANCH   7  14
ENDBRANCH   5  10
ENDBRANCH   1   6
BRANCH   3  17
ATOM     17  N   UNL     1       5.175   5.830  17.992  0.00  0.00    +0.000 NA
ATOM     18  C   UNL     1       4.278   5.689  18.914  0.00  0.00    +0.000 C 
BRANCH  18  19
ATOM     19  C   UNL     1       3.238   4.642  18.795  0.00  0.00    +0.000 A 
ATOM     20  C   UNL     1       2.405   4.350  19.881  0.00  0.00    +0.000 A 
ATOM     21  C   UNL     1       1.415   3.373  19.764  0.00  0.00    +0.000 A 
ATOM     22  C   UNL     1       1.268   2.696  18.556  0.00  0.00    +0.000 A 
ATOM     23  C   UNL     1       2.096   2.972  17.473  0.00  0.00    +0.000 A 
ATOM     24  C   UNL     1       3.088   3.952  17.586  0.00  0.00    +0.000 A 
BRANCH  22  25
ATOM     25  O   UNL     1       0.305   1.744  18.394  0.00  0.00    +0.000 OA
ATOM     26  H   UNL     1       0.255   1.511  17.451  0.00  0.00    +0.000 HD
ENDBRANCH  22  25
ENDBRANCH  18  19
ENDBRANCH   3  17
TORSDOF 6
ENDMDL
MODEL 8
REMARK VINA RESULT:      -7.7      0.901      1.497
REMARK  Name = 
REMARK  9 active torsions:
REMARK  status: ('A' for Active; 'I' for Inactive)
REMARK    1  A    between atoms: C_1  and  C_2
REMARK    2  A    between atoms: C_2  and  C_3
REMARK    3  A    between atoms: C_2  and  C_4
REMARK    4  A    between atoms: C_2  and  C_5
REMARK    5  A    between atoms: C_8  and  C_9
REMARK    6  A    between atoms: C_10  and  C_11
REMARK    7  A    between atoms: N_13  and  N_14
REMARK    8  A    between atoms: C_15  and  C_16
REMARK    9  A    between atoms: C_19  and  O_20
REMARK                            x       y       z     vdW  Elec       q    Type
REMARK                         _______ _______ _______ _____ _____    ______ ____
ROOT
ATOM      1  C   UNL     1       7.251   7.113  17.714  0.00  0.00    +0.000 C 
ATOM      2  O   UNL     1       7.901   6.105  17.971  0.00  0.00    +0.000 OA
ATOM      3  N   UNL     1       5.878   7.161  17.512  0.00  0.00    +0.000 N 
ATOM      4  H   UNL     1       5.397   8.027  17.313  0.00  0.00    +0.000 HD
ENDROOT
BRANCH   1   6
ATOM      5  C   UNL     1       8.546   8.964  18.653  0.00  0.00    +0.000 C 
ATOM      6  C   UNL     1       7.895   8.452  17.597  0.00  0.00    +0.000 C 
BRANCH   5  10
ATOM      7  C   UNL     1      10.380  12.877  18.907  0.00  0.00    +0.000 A 
ATOM      8  C   UNL     1       9.978  12.159  20.044  0.00  0.00    +0.000 A 
ATOM      9  C   UNL     1       9.391  10.890  19.941  0.00  0.00    +0.000 A 
ATOM     10  C   UNL     1       9.171  10.294  18.696  0.00  0.00    +0.000 A 
ATOM     11  C   UNL     1       9.593  10.984  17.556  0.00  0.00    +0.000 A 
ATOM     12  C   UNL     1      10.180  12.256  17.661  0.00  0.00    +0.000 A 
BRANCH   7  14
ATOM     13  C   UNL     1      11.830  14.653  17.731  0.00  0.00    +0.000 C 
ATOM     14  C   UNL     1      11.025  14.274  18.995  0.00  0.00    +0.000 C 
ATOM     15  C   UNL     1      11.998  14.345  20.192  0.00  0.00    +0.000 C 
ATOM     16  C   UNL     1       9.934  15.351  19.186  0.00  0.00    +0.000 C 
ENDBRANCH   7  14
ENDBRANCH   5  10
ENDBRANCH   1   6
BRANCH   3  17
ATOM     17  N   UNL     1       5.161   6.007  17.621  0.00  0.00    +0.000 NA
ATOM     18  C   UNL     1       3.947   6.101  18.061  0.00  0.00    +0.000 C 
BRANCH  18  19
ATOM     19  C   UNL     1       3.110   4.890  18.215  0.00  0.00    +0.000 A 
ATOM     20  C   UNL     1       2.100   4.851  19.184  0.00  0.00    +0.000 A 
ATOM     21  C   UNL     1       1.301   3.715  19.320  0.00  0.00    +0.000 A 
ATOM     22  C   UNL     1       1.520   2.626  18.482  0.00  0.00    +0.000 A 
ATOM     23  C   UNL     1       2.526   2.650  17.522  0.00  0.00    +0.000 A 
ATOM     24  C   UNL     1       3.328   3.788  17.381  0.00  0.00    +0.000 A 
BRANCH  22  25
ATOM     25  O   UNL     1       0.754   1.501  18.571  0.00  0.00    +0.000 OA
ATOM     26  H   UNL     1       0.014   1.578  17.944  0.00  0.00    +0.000 HD
ENDBRANCH  22  25
ENDBRANCH  18  19
ENDBRANCH   3  17
TORSDOF 6
ENDMDL
MODEL 9
REMARK VINA RESULT:      -7.4      1.139      2.023
REMARK  Name = 
REMARK  9 active torsions:
REMARK  status: ('A' for Active; 'I' for Inactive)
REMARK    1  A    between atoms: C_1  and  C_2
REMARK    2  A    between atoms: C_2  and  C_3
REMARK    3  A    between atoms: C_2  and  C_4
REMARK    4  A    between atoms: C_2  and  C_5
REMARK    5  A    between atoms: C_8  and  C_9
REMARK    6  A    between atoms: C_10  and  C_11
REMARK    7  A    between atoms: N_13  and  N_14
REMARK    8  A    between atoms: C_15  and  C_16
REMARK    9  A    between atoms: C_19  and  O_20
REMARK                            x       y       z     vdW  Elec       q    Type
REMARK                         _______ _______ _______ _____ _____    ______ ____
ROOT
ATOM      1  C   UNL     1       6.902   7.048  17.182  0.00  0.00    +0.000 C 
ATOM      2  O   UNL     1       6.175   6.962  16.197  0.00  0.00    +0.000 OA
ATOM      3  N   UNL     1       6.868   6.211  18.289  0.00  0.00    +0.000 N 
ATOM      4  H   UNL     1       7.502   6.328  19.066  0.00  0.00    +0.000 HD
ENDROOT
BRANCH   1   6
ATOM      5  C   UNL     1       7.747   9.154  18.098  0.00  0.00    +0.000 C 
ATOM      6  C   UNL     1       7.952   8.101  17.291  0.00  0.00    +0.000 C 
BRANCH   5  10
ATOM      7  C   UNL     1      10.388  12.565  18.467  0.00  0.00    +0.000 A 
ATOM      8  C   UNL     1       9.290  12.554  17.593  0.00  0.00    +0.000 A 
ATOM      9  C   UNL     1       8.443  11.441  17.492  0.00  0.00    +0.000 A 
ATOM     10  C   UNL     1       8.668  10.290  18.253  0.00  0.00    +0.000 A 
ATOM     11  C   UNL     1       9.740  10.297  19.148  0.00  0.00    +0.000 A 
ATOM     12  C   UNL     1      10.588  11.411  19.248  0.00  0.00    +0.000 A 
BRANCH   7  14
ATOM     13  C   UNL     1      12.333  13.645  19.767  0.00  0.00    +0.000 C 
ATOM     14  C   UNL     1      11.335  13.774  18.592  0.00  0.00    +0.000 C 
ATOM     15  C   UNL     1      10.527  15.070  18.823  0.00  0.00    +0.000 C 
ATOM     16  C   UNL     1      12.163  13.937  17.299  0.00  0.00    +0.000 C 
ENDBRANCH   7  14
ENDBRANCH   5  10
ENDBRANCH   1   6
BRANCH   3  17
ATOM     17  N   UNL     1       5.971   5.185  18.304  0.00  0.00    +0.000 NA
ATOM     18  C   UNL     1       4.721   5.492  18.446  0.00  0.00    +0.000 C 
BRANCH  18  19
ATOM     19  C   UNL     1       3.688   4.432  18.481  0.00  0.00    +0.000 A 
ATOM     20  C   UNL     1       2.354   4.738  18.187  0.00  0.00    +0.000 A 
ATOM     21  C   UNL     1       1.383   3.735  18.207  0.00  0.00    +0.000 A 
ATOM     22  C   UNL     1       1.758   2.432  18.520  0.00  0.00    +0.000 A 
ATOM     23  C   UNL     1       3.079   2.118  18.822  0.00  0.00    +0.000 A 
ATOM     24  C   UNL     1       4.055   3.120  18.802  0.00  0.00    +0.000 A 
BRANCH  22  25
ATOM     25  O   UNL     1       0.844   1.419  18.537  0.00  0.00    +0.000 OA
ATOM     26  H   UNL     1      -0.005   1.762  18.210  0.00  0.00    +0.000 HD
ENDBRANCH  22  25
ENDBRANCH  18  19
ENDBRANCH   3  17
TORSDOF 6
ENDMDL
