MODEL 1
REMARK VINA RESULT:      -9.5      0.000      0.000
REMARK  Name = 
REMARK  3 active torsions:
REMARK  status: ('A' for Active; 'I' for Inactive)
REMARK    1  A    between atoms: C_6  and  C_7
REMARK    2  A    between atoms: C_13  and  C_14
REMARK    3  A    between atoms: C_20  and  C_21
REMARK                            x       y       z     vdW  Elec       q    Type
REMARK                         _______ _______ _______ _____ _____    ______ ____
ROOT
ATOM      1  C   UNL     1       3.679   4.952  19.106  0.00  0.00    +0.000 A 
ATOM      2  C   UNL     1       3.368   3.588  19.096  0.00  0.00    +0.000 A 
ATOM      3  N   UNL     1       2.252   3.009  19.618  0.00  0.00    +0.000 NA
ATOM      4  C   UNL     1       1.339   3.785  20.239  0.00  0.00    +0.000 A 
ATOM      5  C   UNL     1       1.570   5.146  20.301  0.00  0.00    +0.000 A 
ATOM      6  N   UNL     1       0.882   6.179  20.881  0.00  0.00    +0.000 N 
ATOM      7  C   UNL     1       1.550   7.342  20.614  0.00  0.00    +0.000 A 
ATOM      8  N   UNL     1       2.627   7.112  19.895  0.00  0.00    +0.000 NA
ATOM      9  C   UNL     1       2.691   5.742  19.729  0.00  0.00    +0.000 A 
ATOM     10  H   UNL     1       0.028   6.127  21.422  0.00  0.00    +0.000 HD
ENDROOT
BRANCH   7  11
ATOM     11  C   UNL     1       1.115   8.679  21.098  0.00  0.00    +0.000 A 
ATOM     12  N   UNL     1       1.531   9.179  22.274  0.00  0.00    +0.000 NA
ATOM     13  N   UNL     1       0.947  10.401  22.308  0.00  0.00    +0.000 N 
ATOM     14  C   UNL     1       0.150  10.664  21.232  0.00  0.00    +0.000 A 
ATOM     15  N   UNL     1      -0.573  11.778  21.028  0.00  0.00    +0.000 NA
ATOM     16  C   UNL     1      -1.308  11.714  19.883  0.00  0.00    +0.000 A 
ATOM     17  C   UNL     1      -1.349  10.662  18.951  0.00  0.00    +0.000 A 
ATOM     18  C   UNL     1      -0.521   9.560  19.227  0.00  0.00    +0.000 A 
ATOM     19  C   UNL     1       0.235   9.555  20.412  0.00  0.00    +0.000 A 
ATOM     20  H   UNL     1       1.118  11.012  23.096  0.00  0.00    +0.000 HD
BRANCH  17  21
ATOM     21  C   UNL     1      -2.238  10.687  17.770  0.00  0.00    +0.000 A 
ATOM     22  C   UNL     1      -1.994   9.891  16.638  0.00  0.00    +0.000 A 
ATOM     23  C   UNL     1      -2.858   9.916  15.542  0.00  0.00    +0.000 A 
ATOM     24  C   UNL     1      -3.967  10.738  15.602  0.00  0.00    +0.000 A 
ATOM     25  N   UNL     1      -4.252  11.525  16.658  0.00  0.00    +0.000 NA
ATOM     26  C   UNL     1      -3.385  11.482  17.703  0.00  0.00    +0.000 A 
ENDBRANCH  17  21
ENDBRANCH   7  11
BRANCH   1  32
ATOM     27  F   UNL     1       8.473   5.802  19.347  0.00  0.00    +0.000 F 
ATOM     28  C   UNL     1       7.315   5.955  18.690  0.00  0.00    +0.000 A 
ATOM     29  C   UNL     1       7.297   6.671  17.502  0.00  0.00    +0.000 A 
ATOM     30  C   UNL     1       6.094   6.832  16.829  0.00  0.00    +0.000 A 
ATOM     31  C   UNL     1       4.923   6.276  17.357  0.00  0.00    +0.000 A 
ATOM     32  C   UNL     1       4.919   5.531  18.556  0.00  0.00    +0.000 A 
ATOM     33  C   UNL     1       6.154   5.387  19.214  0.00  0.00    +0.000 A 
ENDBRANCH   1  32
TORSDOF 3
ENDMDL
MODEL 2
REMARK VINA RESULT:      -9.2      1.066      1.341
REMARK  Name = 
REMARK  3 active torsions:
REMARK  status: ('A' for Active; 'I' for Inactive)
REMARK    1  A    between atoms: C_6  and  C_7
REMARK    2  A    between atoms: C_13  and  C_14
REMARK    3  A    between atoms: C_20  and  C_21
REMARK                            x       y       z     vdW  Elec       q    Type
REMARK                         _______ _______ _______ _____ _____    ______ ____
ROOT
ATOM      1  C   UNL     1       3.510   4.532  18.821  0.00  0.00    +0.000 A 
ATOM      2  C   UNL     1       3.146   3.182  18.847  0.00  0.00    +0.000 A 
ATOM      3  N   UNL     1       2.064   2.648  19.476  0.00  0.00    +0.000 NA
ATOM      4  C   UNL     1       1.246   3.460  20.179  0.00  0.00    +0.000 A 
ATOM      5  C   UNL     1       1.536   4.810  20.212  0.00  0.00    +0.000 A 
ATOM      6  N   UNL     1       0.947   5.870  20.852  0.00  0.00    +0.000 N 
ATOM      7  C   UNL     1       1.632   7.005  20.518  0.00  0.00    +0.000 A 
ATOM      8  N   UNL     1       2.625   6.732  19.699  0.00  0.00    +0.000 NA
ATOM      9  C   UNL     1       2.619   5.361  19.534  0.00  0.00    +0.000 A 
ATOM     10  H   UNL     1       0.148   5.851  21.473  0.00  0.00    +0.000 HD
ENDROOT
BRANCH   7  11
ATOM     11  C   UNL     1       1.298   8.358  21.036  0.00  0.00    +0.000 A 
ATOM     12  N   UNL     1       1.793   8.815  22.199  0.00  0.00    +0.000 NA
ATOM     13  N   UNL     1       1.286  10.070  22.273  0.00  0.00    +0.000 N 
ATOM     14  C   UNL     1       0.462  10.395  21.235  0.00  0.00    +0.000 A 
ATOM     15  N   UNL     1      -0.202  11.553  21.076  0.00  0.00    +0.000 NA
ATOM     16  C   UNL     1      -0.987  11.550  19.962  0.00  0.00    +0.000 A 
ATOM     17  C   UNL     1      -1.130  10.516  19.020  0.00  0.00    +0.000 A 
ATOM     18  C   UNL     1      -0.358   9.363  19.247  0.00  0.00    +0.000 A 
ATOM     19  C   UNL     1       0.445   9.295  20.399  0.00  0.00    +0.000 A 
ATOM     20  H   UNL     1       1.526  10.657  23.060  0.00  0.00    +0.000 HD
BRANCH  17  21
ATOM     21  C   UNL     1      -2.064  10.611  17.879  0.00  0.00    +0.000 A 
ATOM     22  C   UNL     1      -1.897   9.842  16.714  0.00  0.00    +0.000 A 
ATOM     23  C   UNL     1      -2.803   9.933  15.657  0.00  0.00    +0.000 A 
ATOM     24  C   UNL     1      -3.876  10.794  15.787  0.00  0.00    +0.000 A 
ATOM     25  N   UNL     1      -4.087  11.557  16.878  0.00  0.00    +0.000 NA
ATOM     26  C   UNL     1      -3.182  11.450  17.883  0.00  0.00    +0.000 A 
ENDBRANCH  17  21
ENDBRANCH   7  11
BRANCH   1  32
ATOM     27  F   UNL     1       5.932   5.863  14.806  0.00  0.00    +0.000 F 
ATOM     28  C   UNL     1       5.916   5.720  16.138  0.00  0.00    +0.000 A 
ATOM     29  C   UNL     1       7.043   6.061  16.872  0.00  0.00    +0.000 A 
ATOM     30  C   UNL     1       7.023   5.904  18.250  0.00  0.00    +0.000 A 
ATOM     31  C   UNL     1       5.876   5.403  18.876  0.00  0.00    +0.000 A 
ATOM     32  C   UNL     1       4.714   5.062  18.152  0.00  0.00    +0.000 A 
ATOM     33  C   UNL     1       4.766   5.232  16.757  0.00  0.00    +0.000 A 
ENDBRANCH   1  32
TORSDOF 3
ENDMDL
MODEL 3
REMARK VINA RESULT:      -8.5      3.731      8.835
REMARK  Name = 
REMARK  3 active torsions:
REMARK  status: ('A' for Active; 'I' for Inactive)
REMARK    1  A    between atoms: C_6  and  C_7
REMARK    2  A    between atoms: C_13  and  C_14
REMARK    3  A    between atoms: C_20  and  C_21
REMARK                            x       y       z     vdW  Elec       q    Type
REMARK                         _______ _______ _______ _____ _____    ______ ____
ROOT
ATOM      1  C   UNL     1       0.422  11.499  19.808  0.00  0.00    +0.000 A 
ATOM      2  C   UNL     1       0.809  12.564  18.989  0.00  0.00    +0.000 A 
ATOM      3  N   UNL     1       1.714  12.516  17.974  0.00  0.00    +0.000 NA
ATOM      4  C   UNL     1       2.345  11.353  17.710  0.00  0.00    +0.000 A 
ATOM      5  C   UNL     1       2.027  10.248  18.477  0.00  0.00    +0.000 A 
ATOM      6  N   UNL     1       2.503   8.963  18.496  0.00  0.00    +0.000 N 
ATOM      7  C   UNL     1       1.814   8.266  19.449  0.00  0.00    +0.000 A 
ATOM      8  N   UNL     1       0.922   9.031  20.040  0.00  0.00    +0.000 NA
ATOM      9  C   UNL     1       1.070  10.288  19.488  0.00  0.00    +0.000 A 
ATOM     10  H   UNL     1       3.238   8.567  17.923  0.00  0.00    +0.000 HD
ENDROOT
BRANCH   7  11
ATOM     11  C   UNL     1       2.066   6.837  19.775  0.00  0.00    +0.000 A 
ATOM     12  N   UNL     1       1.521   6.248  20.853  0.00  0.00    +0.000 NA
ATOM     13  N   UNL     1       1.962   4.970  20.756  0.00  0.00    +0.000 N 
ATOM     14  C   UNL     1       2.792   4.749  19.696  0.00  0.00    +0.000 A 
ATOM     15  N   UNL     1       3.399   3.592  19.384  0.00  0.00    +0.000 NA
ATOM     16  C   UNL     1       4.209   3.709  18.295  0.00  0.00    +0.000 A 
ATOM     17  C   UNL     1       4.427   4.856  17.512  0.00  0.00    +0.000 A 
ATOM     18  C   UNL     1       3.710   6.006  17.888  0.00  0.00    +0.000 A 
ATOM     19  C   UNL     1       2.885   5.954  19.025  0.00  0.00    +0.000 A 
ATOM     20  H   UNL     1       1.673   4.291  21.447  0.00  0.00    +0.000 HD
BRANCH  17  21
ATOM     21  C   UNL     1       5.381   4.873  16.384  0.00  0.00    +0.000 A 
ATOM     22  C   UNL     1       5.153   4.144  15.204  0.00  0.00    +0.000 A 
ATOM     23  C   UNL     1       6.059   4.192  14.143  0.00  0.00    +0.000 A 
ATOM     24  C   UNL     1       7.185   4.982  14.279  0.00  0.00    +0.000 A 
ATOM     25  N   UNL     1       7.458   5.700  15.386  0.00  0.00    +0.000 NA
ATOM     26  C   UNL     1       6.560   5.624  16.401  0.00  0.00    +0.000 A 
ENDBRANCH  17  21
ENDBRANCH   7  11
BRANCH   1  32
ATOM     27  F   UNL     1      -3.635  13.336  21.790  0.00  0.00    +0.000 F 
ATOM     28  C   UNL     1      -2.567  12.534  21.904  0.00  0.00    +0.000 A 
ATOM     29  C   UNL     1      -2.375  11.821  23.079  0.00  0.00    +0.000 A 
ATOM     30  C   UNL     1      -1.264  10.998  23.193  0.00  0.00    +0.000 A 
ATOM     31  C   UNL     1      -0.358  10.901  22.131  0.00  0.00    +0.000 A 
ATOM     32  C   UNL     1      -0.540  11.605  20.921  0.00  0.00    +0.000 A 
ATOM     33  C   UNL     1      -1.675  12.431  20.837  0.00  0.00    +0.000 A 
ENDBRANCH   1  32
TORSDOF 3
ENDMDL
MODEL 4
REMARK VINA RESULT:      -8.2      4.006      7.219
REMARK  Name = 
REMARK  3 active torsions:
REMARK  status: ('A' for Active; 'I' for Inactive)
REMARK    1  A    between atoms: C_6  and  C_7
REMARK    2  A    between atoms: C_13  and  C_14
REMARK    3  A    between atoms: C_20  and  C_21
REMARK                            x       y       z     vdW  Elec       q    Type
REMARK                         _______ _______ _______ _____ _____    ______ ____
ROOT
ATOM      1  C   UNL     1       1.105  11.072  19.521  0.00  0.00    +0.000 A 
ATOM      2  C   UNL     1       2.003  12.036  19.993  0.00  0.00    +0.000 A 
ATOM      3  N   UNL     1       1.733  13.350  20.222  0.00  0.00    +0.000 NA
ATOM      4  C   UNL     1       0.496  13.822  19.957  0.00  0.00    +0.000 A 
ATOM      5  C   UNL     1      -0.453  12.938  19.480  0.00  0.00    +0.000 A 
ATOM      6  N   UNL     1      -1.754  13.100  19.082  0.00  0.00    +0.000 N 
ATOM      7  C   UNL     1      -2.245  11.877  18.718  0.00  0.00    +0.000 A 
ATOM      8  N   UNL     1      -1.332  10.941  18.862  0.00  0.00    +0.000 NA
ATOM      9  C   UNL     1      -0.187  11.586  19.287  0.00  0.00    +0.000 A 
ATOM     10  H   UNL     1      -2.288  13.959  19.047  0.00  0.00    +0.000 HD
ENDROOT
BRANCH   7  11
ATOM     11  C   UNL     1      -3.625  11.655  18.210  0.00  0.00    +0.000 A 
ATOM     12  N   UNL     1      -3.860  11.211  16.963  0.00  0.00    +0.000 NA
ATOM     13  N   UNL     1      -5.211  11.111  16.926  0.00  0.00    +0.000 N 
ATOM     14  C   UNL     1      -5.828  11.516  18.074  0.00  0.00    +0.000 A 
ATOM     15  N   UNL     1      -7.153  11.557  18.296  0.00  0.00    +0.000 NA
ATOM     16  C   UNL     1      -7.455  12.062  19.525  0.00  0.00    +0.000 A 
ATOM     17  C   UNL     1      -6.556  12.490  20.518  0.00  0.00    +0.000 A 
ATOM     18  C   UNL     1      -5.190  12.363  20.211  0.00  0.00    +0.000 A 
ATOM     19  C   UNL     1      -4.818  11.881  18.944  0.00  0.00    +0.000 A 
ATOM     20  H   UNL     1      -5.661  10.770  16.087  0.00  0.00    +0.000 HD
BRANCH  17  21
ATOM     21  C   UNL     1      -7.011  13.077  21.796  0.00  0.00    +0.000 A 
ATOM     22  C   UNL     1      -7.157  14.464  21.968  0.00  0.00    +0.000 A 
ATOM     23  C   UNL     1      -7.608  14.995  23.177  0.00  0.00    +0.000 A 
ATOM     24  C   UNL     1      -7.916  14.120  24.202  0.00  0.00    +0.000 A 
ATOM     25  N   UNL     1      -7.794  12.782  24.096  0.00  0.00    +0.000 NA
ATOM     26  C   UNL     1      -7.345  12.301  22.909  0.00  0.00    +0.000 A 
ENDBRANCH  17  21
ENDBRANCH   7  11
BRANCH   1  32
ATOM     27  F   UNL     1       1.767   6.480  21.014  0.00  0.00    +0.000 F 
ATOM     28  C   UNL     1       1.785   7.372  20.014  0.00  0.00    +0.000 A 
ATOM     29  C   UNL     1       2.146   6.958  18.740  0.00  0.00    +0.000 A 
ATOM     30  C   UNL     1       2.169   7.888  17.711  0.00  0.00    +0.000 A 
ATOM     31  C   UNL     1       1.835   9.222  17.971  0.00  0.00    +0.000 A 
ATOM     32  C   UNL     1       1.453   9.663  19.256  0.00  0.00    +0.000 A 
ATOM     33  C   UNL     1       1.439   8.697  20.277  0.00  0.00    +0.000 A 
ENDBRANCH   1  32
TORSDOF 3
ENDMDL
MODEL 5
REMARK VINA RESULT:      -8.2      2.592      3.557
REMARK  Name = 
REMARK  3 active torsions:
REMARK  status: ('A' for Active; 'I' for Inactive)
REMARK    1  A    between atoms: C_6  and  C_7
REMARK    2  A    between atoms: C_13  and  C_14
REMARK    3  A    between atoms: C_20  and  C_21
REMARK                            x       y       z     vdW  Elec       q    Type
REMARK                         _______ _______ _______ _____ _____    ______ ____
ROOT
ATOM      1  C   UNL     1       3.434   5.650  18.762  0.00  0.00    +0.000 A 
ATOM      2  C   UNL     1       3.047   4.658  19.670  0.00  0.00    +0.000 A 
ATOM      3  N   UNL     1       2.126   4.787  20.663  0.00  0.00    +0.000 NA
ATOM      4  C   UNL     1       1.519   5.978  20.846  0.00  0.00    +0.000 A 
ATOM      5  C   UNL     1       1.848   7.018  19.997  0.00  0.00    +0.000 A 
ATOM      6  N   UNL     1       1.457   8.329  19.940  0.00  0.00    +0.000 N 
ATOM      7  C   UNL     1       2.078   8.915  18.873  0.00  0.00    +0.000 A 
ATOM      8  N   UNL     1       2.844   8.052  18.241  0.00  0.00    +0.000 NA
ATOM      9  C   UNL     1       2.759   6.872  18.954  0.00  0.00    +0.000 A 
ATOM     10  H   UNL     1       0.824   8.814  20.565  0.00  0.00    +0.000 HD
ENDROOT
BRANCH   7  11
ATOM     11  C   UNL     1       1.914  10.346  18.500  0.00  0.00    +0.000 A 
ATOM     12  N   UNL     1       2.741  10.953  17.633  0.00  0.00    +0.000 NA
ATOM     13  N   UNL     1       2.226  12.204  17.547  0.00  0.00    +0.000 N 
ATOM     14  C   UNL     1       1.148  12.415  18.355  0.00  0.00    +0.000 A 
ATOM     15  N   UNL     1       0.469  13.566  18.495  0.00  0.00    +0.000 NA
ATOM     16  C   UNL     1      -0.526  13.470  19.421  0.00  0.00    +0.000 A 
ATOM     17  C   UNL     1      -0.889  12.338  20.171  0.00  0.00    +0.000 A 
ATOM     18  C   UNL     1      -0.151  11.167  19.920  0.00  0.00    +0.000 A 
ATOM     19  C   UNL     1       0.910  11.215  18.999  0.00  0.00    +0.000 A 
ATOM     20  H   UNL     1       2.657  12.877  16.928  0.00  0.00    +0.000 HD
BRANCH  17  21
ATOM     21  C   UNL     1      -1.955  12.376  21.195  0.00  0.00    +0.000 A 
ATOM     22  C   UNL     1      -1.726  11.983  22.524  0.00  0.00    +0.000 A 
ATOM     23  C   UNL     1      -2.742  12.047  23.478  0.00  0.00    +0.000 A 
ATOM     24  C   UNL     1      -3.981  12.515  23.084  0.00  0.00    +0.000 A 
ATOM     25  N   UNL     1      -4.261  12.903  21.824  0.00  0.00    +0.000 NA
ATOM     26  C   UNL     1      -3.252  12.820  20.920  0.00  0.00    +0.000 A 
ENDBRANCH  17  21
ENDBRANCH   7  11
BRANCH   1  32
ATOM     27  F   UNL     1       7.736   6.784  16.769  0.00  0.00    +0.000 F 
ATOM     28  C   UNL     1       6.613   6.053  16.730  0.00  0.00    +0.000 A 
ATOM     29  C   UNL     1       6.429   5.146  15.696  0.00  0.00    +0.000 A 
ATOM     30  C   UNL     1       5.261   4.397  15.656  0.00  0.00    +0.000 A 
ATOM     31  C   UNL     1       4.292   4.569  16.651  0.00  0.00    +0.000 A 
ATOM     32  C   UNL     1       4.464   5.474  17.720  0.00  0.00    +0.000 A 
ATOM     33  C   UNL     1       5.657   6.218  17.731  0.00  0.00    +0.000 A 
ENDBRANCH   1  32
TORSDOF 3
ENDMDL
MODEL 6
REMARK VINA RESULT:      -8.2      3.377      4.572
REMARK  Name = 
REMARK  3 active torsions:
REMARK  status: ('A' for Active; 'I' for Inactive)
REMARK    1  A    between atoms: C_6  and  C_7
REMARK    2  A    between atoms: C_13  and  C_14
REMARK    3  A    between atoms: C_20  and  C_21
REMARK                            x       y       z     vdW  Elec       q    Type
REMARK                         _______ _______ _______ _____ _____    ______ ____
ROOT
ATOM      1  C   UNL     1       2.671   6.004  19.165  0.00  0.00    +0.000 A 
ATOM      2  C   UNL     1       3.316   6.102  17.927  0.00  0.00    +0.000 A 
ATOM      3  N   UNL     1       3.435   7.222  17.163  0.00  0.00    +0.000 NA
ATOM      4  C   UNL     1       2.868   8.370  17.589  0.00  0.00    +0.000 A 
ATOM      5  C   UNL     1       2.204   8.362  18.801  0.00  0.00    +0.000 A 
ATOM      6  N   UNL     1       1.502   9.323  19.481  0.00  0.00    +0.000 N 
ATOM      7  C   UNL     1       1.067   8.782  20.658  0.00  0.00    +0.000 A 
ATOM      8  N   UNL     1       1.453   7.529  20.772  0.00  0.00    +0.000 NA
ATOM      9  C   UNL     1       2.120   7.227  19.601  0.00  0.00    +0.000 A 
ATOM     10  H   UNL     1       1.315  10.274  19.190  0.00  0.00    +0.000 HD
ENDROOT
BRANCH   7  11
ATOM     11  C   UNL     1       0.250   9.519  21.659  0.00  0.00    +0.000 A 
ATOM     12  N   UNL     1      -0.361   8.892  22.678  0.00  0.00    +0.000 NA
ATOM     13  N   UNL     1      -0.946   9.910  23.354  0.00  0.00    +0.000 N 
ATOM     14  C   UNL     1      -0.766  11.134  22.777  0.00  0.00    +0.000 A 
ATOM     15  N   UNL     1      -1.264  12.303  23.213  0.00  0.00    +0.000 NA
ATOM     16  C   UNL     1      -0.950  13.339  22.386  0.00  0.00    +0.000 A 
ATOM     17  C   UNL     1      -0.181  13.291  21.210  0.00  0.00    +0.000 A 
ATOM     18  C   UNL     1       0.337  12.032  20.861  0.00  0.00    +0.000 A 
ATOM     19  C   UNL     1       0.018  10.919  21.659  0.00  0.00    +0.000 A 
ATOM     20  H   UNL     1      -1.465   9.712  24.199  0.00  0.00    +0.000 HD
BRANCH  17  21
ATOM     21  C   UNL     1       0.041  14.482  20.362  0.00  0.00    +0.000 A 
ATOM     22  C   UNL     1       1.292  14.766  19.790  0.00  0.00    +0.000 A 
ATOM     23  C   UNL     1       1.473  15.885  18.976  0.00  0.00    +0.000 A 
ATOM     24  C   UNL     1       0.386  16.704  18.739  0.00  0.00    +0.000 A 
ATOM     25  N   UNL     1      -0.837  16.484  19.260  0.00  0.00    +0.000 NA
ATOM     26  C   UNL     1      -0.975  15.391  20.054  0.00  0.00    +0.000 A 
ENDBRANCH  17  21
ENDBRANCH   7  11
BRANCH   1  32
ATOM     27  F   UNL     1       4.536   1.892  21.000  0.00  0.00    +0.000 F 
ATOM     28  C   UNL     1       3.480   2.703  20.852  0.00  0.00    +0.000 A 
ATOM     29  C   UNL     1       2.266   2.350  21.425  0.00  0.00    +0.000 A 
ATOM     30  C   UNL     1       1.175   3.191  21.261  0.00  0.00    +0.000 A 
ATOM     31  C   UNL     1       1.311   4.372  20.523  0.00  0.00    +0.000 A 
ATOM     32  C   UNL     1       2.538   4.758  19.943  0.00  0.00    +0.000 A 
ATOM     33  C   UNL     1       3.625   3.885  20.126  0.00  0.00    +0.000 A 
ENDBRANCH   1  32
TORSDOF 3
ENDMDL
MODEL 7
REMARK VINA RESULT:      -8.1      0.986      1.324
REMARK  Name = 
REMARK  3 active torsions:
REMARK  status: ('A' for Active; 'I' for Inactive)
REMARK    1  A    between atoms: C_6  and  C_7
REMARK    2  A    between atoms: C_13  and  C_14
REMARK    3  A    between atoms: C_20  and  C_21
REMARK                            x       y       z     vdW  Elec       q    Type
REMARK                         _______ _______ _______ _____ _____    ______ ____
ROOT
ATOM      1  C   UNL     1       4.226   5.091  18.585  0.00  0.00    +0.000 A 
ATOM      2  C   UNL     1       3.901   3.816  18.107  0.00  0.00    +0.000 A 
ATOM      3  N   UNL     1       2.675   3.227  18.147  0.00  0.00    +0.000 NA
ATOM      4  C   UNL     1       1.646   3.889  18.717  0.00  0.00    +0.000 A 
ATOM      5  C   UNL     1       1.881   5.154  19.222  0.00  0.00    +0.000 A 
ATOM      6  N   UNL     1       1.084   6.052  19.883  0.00  0.00    +0.000 N 
ATOM      7  C   UNL     1       1.823   7.174  20.136  0.00  0.00    +0.000 A 
ATOM      8  N   UNL     1       3.048   7.046  19.672  0.00  0.00    +0.000 NA
ATOM      9  C   UNL     1       3.125   5.773  19.142  0.00  0.00    +0.000 A 
ATOM     10  H   UNL     1       0.117   5.936  20.157  0.00  0.00    +0.000 HD
ENDROOT
BRANCH   7  11
ATOM     11  C   UNL     1       1.302   8.365  20.859  0.00  0.00    +0.000 A 
ATOM     12  N   UNL     1       1.704   8.672  22.104  0.00  0.00    +0.000 NA
ATOM     13  N   UNL     1       1.035   9.821  22.364  0.00  0.00    +0.000 N 
ATOM     14  C   UNL     1       0.202  10.216  21.358  0.00  0.00    +0.000 A 
ATOM     15  N   UNL     1      -0.603  11.292  21.365  0.00  0.00    +0.000 NA
ATOM     16  C   UNL     1      -1.353  11.384  20.231  0.00  0.00    +0.000 A 
ATOM     17  C   UNL     1      -1.336  10.519  19.123  0.00  0.00    +0.000 A 
ATOM     18  C   UNL     1      -0.426   9.449  19.188  0.00  0.00    +0.000 A 
ATOM     19  C   UNL     1       0.350   9.284  20.349  0.00  0.00    +0.000 A 
ATOM     20  H   UNL     1       1.177  10.289  23.249  0.00  0.00    +0.000 HD
BRANCH  17  21
ATOM     21  C   UNL     1      -2.246  10.693  17.971  0.00  0.00    +0.000 A 
ATOM     22  C   UNL     1      -2.023  10.048  16.743  0.00  0.00    +0.000 A 
ATOM     23  C   UNL     1      -2.908  10.211  15.675  0.00  0.00    +0.000 A 
ATOM     24  C   UNL     1      -4.014  11.018  15.859  0.00  0.00    +0.000 A 
ATOM     25  N   UNL     1      -4.279  11.663  17.012  0.00  0.00    +0.000 NA
ATOM     26  C   UNL     1      -3.393  11.489  18.027  0.00  0.00    +0.000 A 
ENDBRANCH  17  21
ENDBRANCH   7  11
BRANCH   1  32
ATOM     27  F   UNL     1       7.500   8.180  16.712  0.00  0.00    +0.000 F 
ATOM     28  C   UNL     1       7.209   7.222  17.603  0.00  0.00    +0.000 A 
ATOM     29  C   UNL     1       8.194   6.783  18.476  0.00  0.00    +0.000 A 
ATOM     30  C   UNL     1       7.889   5.786  19.391  0.00  0.00    +0.000 A 
ATOM     31  C   UNL     1       6.601   5.238  19.419  0.00  0.00    +0.000 A 
ATOM     32  C   UNL     1       5.579   5.677  18.550  0.00  0.00    +0.000 A 
ATOM     33  C   UNL     1       5.921   6.688  17.634  0.00  0.00    +0.000 A 
ENDBRANCH   1  32
TORSDOF 3
ENDMDL
MODEL 8
REMARK VINA RESULT:      -8.1      3.651      4.883
REMARK  Name = 
REMARK  3 active torsions:
REMARK  status: ('A' for Active; 'I' for Inactive)
REMARK    1  A    between atoms: C_6  and  C_7
REMARK    2  A    between atoms: C_13  and  C_14
REMARK    3  A    between atoms: C_20  and  C_21
REMARK                            x       y       z     vdW  Elec       q    Type
REMARK                         _______ _______ _______ _____ _____    ______ ____
ROOT
ATOM      1  C   UNL     1       2.410   6.160  19.029  0.00  0.00    +0.000 A 
ATOM      2  C   UNL     1       3.155   6.292  17.852  0.00  0.00    +0.000 A 
ATOM      3  N   UNL     1       3.450   7.454  17.209  0.00  0.00    +0.000 NA
ATOM      4  C   UNL     1       2.976   8.617  17.702  0.00  0.00    +0.000 A 
ATOM      5  C   UNL     1       2.222   8.578  18.860  0.00  0.00    +0.000 A 
ATOM      6  N   UNL     1       1.574   9.548  19.579  0.00  0.00    +0.000 N 
ATOM      7  C   UNL     1       0.995   8.958  20.668  0.00  0.00    +0.000 A 
ATOM      8  N   UNL     1       1.236   7.665  20.687  0.00  0.00    +0.000 NA
ATOM      9  C   UNL     1       1.957   7.393  19.541  0.00  0.00    +0.000 A 
ATOM     10  H   UNL     1       1.511  10.536  19.368  0.00  0.00    +0.000 HD
ENDROOT
BRANCH   7  11
ATOM     11  C   UNL     1       0.185   9.692  21.676  0.00  0.00    +0.000 A 
ATOM     12  N   UNL     1      -0.395   9.066  22.714  0.00  0.00    +0.000 NA
ATOM     13  N   UNL     1      -0.984  10.081  23.391  0.00  0.00    +0.000 N 
ATOM     14  C   UNL     1      -0.838  11.301  22.797  0.00  0.00    +0.000 A 
ATOM     15  N   UNL     1      -1.349  12.466  23.230  0.00  0.00    +0.000 NA
ATOM     16  C   UNL     1      -1.070  13.498  22.385  0.00  0.00    +0.000 A 
ATOM     17  C   UNL     1      -0.325  13.451  21.194  0.00  0.00    +0.000 A 
ATOM     18  C   UNL     1       0.209  12.196  20.849  0.00  0.00    +0.000 A 
ATOM     19  C   UNL     1      -0.073  11.087  21.665  0.00  0.00    +0.000 A 
ATOM     20  H   UNL     1      -1.483   9.883  24.248  0.00  0.00    +0.000 HD
BRANCH  17  21
ATOM     21  C   UNL     1      -0.141  14.635  20.329  0.00  0.00    +0.000 A 
ATOM     22  C   UNL     1       1.046  14.856  19.611  0.00  0.00    +0.000 A 
ATOM     23  C   UNL     1       1.189  15.971  18.784  0.00  0.00    +0.000 A 
ATOM     24  C   UNL     1       0.127  16.850  18.681  0.00  0.00    +0.000 A 
ATOM     25  N   UNL     1      -1.034  16.691  19.346  0.00  0.00    +0.000 NA
ATOM     26  C   UNL     1      -1.135  15.601  20.148  0.00  0.00    +0.000 A 
ENDBRANCH  17  21
ENDBRANCH   7  11
BRANCH   1  32
ATOM     27  F   UNL     1       0.469   1.690  18.917  0.00  0.00    +0.000 F 
ATOM     28  C   UNL     1       1.109   2.643  19.609  0.00  0.00    +0.000 A 
ATOM     29  C   UNL     1       1.448   2.409  20.934  0.00  0.00    +0.000 A 
ATOM     30  C   UNL     1       2.104   3.402  21.647  0.00  0.00    +0.000 A 
ATOM     31  C   UNL     1       2.409   4.618  21.024  0.00  0.00    +0.000 A 
ATOM     32  C   UNL     1       2.086   4.873  19.675  0.00  0.00    +0.000 A 
ATOM     33  C   UNL     1       1.421   3.847  18.980  0.00  0.00    +0.000 A 
ENDBRANCH   1  32
TORSDOF 3
ENDMDL
MODEL 9
REMARK VINA RESULT:      -8.1      4.245      7.196
REMARK  Name = 
REMARK  3 active torsions:
REMARK  status: ('A' for Active; 'I' for Inactive)
REMARK    1  A    between atoms: C_6  and  C_7
REMARK    2  A    between atoms: C_13  and  C_14
REMARK    3  A    between atoms: C_20  and  C_21
REMARK                            x       y       z     vdW  Elec       q    Type
REMARK                         _______ _______ _______ _____ _____    ______ ____
ROOT
ATOM      1  C   UNL     1       6.362   4.257  13.869  0.00  0.00    +0.000 A 
ATOM      2  C   UNL     1       7.447   5.131  13.737  0.00  0.00    +0.000 A 
ATOM      3  N   UNL     1       8.025   5.858  14.732  0.00  0.00    +0.000 NA
ATOM      4  C   UNL     1       7.520   5.780  15.981  0.00  0.00    +0.000 A 
ATOM      5  C   UNL     1       6.442   4.944  16.200  0.00  0.00    +0.000 A 
ATOM      6  N   UNL     1       5.686   4.677  17.311  0.00  0.00    +0.000 N 
ATOM      7  C   UNL     1       4.747   3.741  16.975  0.00  0.00    +0.000 A 
ATOM      8  N   UNL     1       4.860   3.394  15.711  0.00  0.00    +0.000 NA
ATOM      9  C   UNL     1       5.878   4.169  15.191  0.00  0.00    +0.000 A 
ATOM     10  H   UNL     1       5.776   5.084  18.233  0.00  0.00    +0.000 HD
ENDROOT
BRANCH   7  11
ATOM     11  C   UNL     1       3.727   3.213  17.919  0.00  0.00    +0.000 A 
ATOM     12  N   UNL     1       3.456   1.899  18.009  0.00  0.00    +0.000 NA
ATOM     13  N   UNL     1       2.524   1.849  18.991  0.00  0.00    +0.000 N 
ATOM     14  C   UNL     1       2.169   3.072  19.481  0.00  0.00    +0.000 A 
ATOM     15  N   UNL     1       1.246   3.315  20.427  0.00  0.00    +0.000 NA
ATOM     16  C   UNL     1       1.083   4.648  20.660  0.00  0.00    +0.000 A 
ATOM     17  C   UNL     1       1.770   5.712  20.050  0.00  0.00    +0.000 A 
ATOM     18  C   UNL     1       2.751   5.355  19.107  0.00  0.00    +0.000 A 
ATOM     19  C   UNL     1       2.940   3.996  18.802  0.00  0.00    +0.000 A 
ATOM     20  H   UNL     1       2.155   0.953  19.281  0.00  0.00    +0.000 HD
BRANCH  17  21
ATOM     21  C   UNL     1       1.459   7.127  20.346  0.00  0.00    +0.000 A 
ATOM     22  C   UNL     1       0.907   7.527  21.574  0.00  0.00    +0.000 A 
ATOM     23  C   UNL     1       0.641   8.871  21.839  0.00  0.00    +0.000 A 
ATOM     24  C   UNL     1       0.942   9.802  20.863  0.00  0.00    +0.000 A 
ATOM     25  N   UNL     1       1.471   9.478  19.667  0.00  0.00    +0.000 NA
ATOM     26  C   UNL     1       1.709   8.161  19.440  0.00  0.00    +0.000 A 
ENDBRANCH  17  21
ENDBRANCH   7  11
BRANCH   1  32
ATOM     27  F   UNL     1       6.333   0.554  10.700  0.00  0.00    +0.000 F 
ATOM     28  C   UNL     1       5.744   1.661  11.171  0.00  0.00    +0.000 A 
ATOM     29  C   UNL     1       4.563   2.102  10.591  0.00  0.00    +0.000 A 
ATOM     30  C   UNL     1       3.962   3.254  11.080  0.00  0.00    +0.000 A 
ATOM     31  C   UNL     1       4.553   3.951  12.140  0.00  0.00    +0.000 A 
ATOM     32  C   UNL     1       5.745   3.514  12.754  0.00  0.00    +0.000 A 
ATOM     33  C   UNL     1       6.331   2.344  12.236  0.00  0.00    +0.000 A 
ENDBRANCH   1  32
TORSDOF 3
ENDMDL
