MODEL 1
REMARK VINA RESULT:      -7.7      0.000      0.000
REMARK  Name = 
REMARK  10 active torsions:
REMARK  status: ('A' for Active; 'I' for Inactive)
REMARK    1  A    between atoms: C_1  and  C_2
REMARK    2  A    between atoms: C_2  and  O_3
REMARK    3  A    between atoms: O_3  and  C_4
REMARK    4  A    between atoms: C_4  and  C_6
REMARK    5  A    between atoms: C_8  and  O_9
REMARK    6  A    between atoms: O_9  and  C_10
REMARK    7  A    between atoms: C_10  and  C_11
REMARK    8  A    between atoms: C_13  and  C_14
REMARK    9  A    between atoms: C_15  and  C_16
REMARK   10  A    between atoms: C_19  and  C_20
REMARK                            x       y       z     vdW  Elec       q    Type
REMARK                         _______ _______ _______ _____ _____    ______ ____
ROOT
ATOM      1  C   UNL     1       2.760   4.293  18.063  0.00  0.00    +0.000 A 
ATOM      2  C   UNL     1       2.186   5.486  18.508  0.00  0.00    +0.000 A 
ATOM      3  C   UNL     1       2.787   6.708  18.210  0.00  0.00    +0.000 A 
ATOM      4  C   UNL     1       3.953   6.726  17.447  0.00  0.00    +0.000 A 
ATOM      5  C   UNL     1       4.569   5.542  17.013  0.00  0.00    +0.000 A 
ATOM      6  C   UNL     1       3.964   4.326  17.344  0.00  0.00    +0.000 A 
ENDROOT
BRANCH   5   7
ATOM      7  C   UNL     1       5.798   5.577  16.227  0.00  0.00    +0.000 A 
ATOM      8  C   UNL     1       6.128   4.991  14.967  0.00  0.00    +0.000 A 
ATOM      9  C   UNL     1       5.320   4.158  14.046  0.00  0.00    +0.000 C 
ATOM     10  N   UNL     1       7.385   5.287  14.608  0.00  0.00    +0.000 NA
ATOM     11  O   UNL     1       7.897   6.063  15.622  0.00  0.00    +0.000 OA
ATOM     12  C   UNL     1       6.960   6.235  16.592  0.00  0.00    +0.000 A 
ATOM     13  C   UNL     1       7.409   7.035  17.750  0.00  0.00    +0.000 C 
ENDBRANCH   5   7
BRANCH   1  14
ATOM     14  C   UNL     1       2.088   3.013  18.415  0.00  0.00    +0.000 C 
ATOM     15  O   UNL     1       2.276   1.963  17.824  0.00  0.00    +0.000 OA
BRANCH  14  16
ATOM     16  O   UNL     1       1.203   3.220  19.421  0.00  0.00    +0.000 OA
BRANCH  16  18
ATOM     17  C   UNL     1       2.123   3.363  21.619  0.00  0.00    +0.000 C 
ATOM     18  C   UNL     1       1.437   2.458  20.612  0.00  0.00    +0.000 C 
ENDBRANCH  16  18
ENDBRANCH  14  16
ENDBRANCH   1  14
BRANCH   3  19
ATOM     19  O   UNL     1       2.151   7.813  18.712  0.00  0.00    +0.000 OA
BRANCH  19  20
ATOM     20  C   UNL     1       2.175   8.985  17.896  0.00  0.00    +0.000 C 
ATOM     21  C   UNL     1       0.849   9.709  18.040  0.00  0.00    +0.000 C 
ENDBRANCH  19  20
ENDBRANCH   3  19
TORSDOF 6
ENDMDL
MODEL 2
REMARK VINA RESULT:      -7.6      1.458      4.053
REMARK  Name = 
REMARK  10 active torsions:
REMARK  status: ('A' for Active; 'I' for Inactive)
REMARK    1  A    between atoms: C_1  and  C_2
REMARK    2  A    between atoms: C_2  and  O_3
REMARK    3  A    between atoms: O_3  and  C_4
REMARK    4  A    between atoms: C_4  and  C_6
REMARK    5  A    between atoms: C_8  and  O_9
REMARK    6  A    between atoms: O_9  and  C_10
REMARK    7  A    between atoms: C_10  and  C_11
REMARK    8  A    between atoms: C_13  and  C_14
REMARK    9  A    between atoms: C_15  and  C_16
REMARK   10  A    between atoms: C_19  and  C_20
REMARK                            x       y       z     vdW  Elec       q    Type
REMARK                         _______ _______ _______ _____ _____    ______ ____
ROOT
ATOM      1  C   UNL     1       2.636   6.865  18.023  0.00  0.00    +0.000 A 
ATOM      2  C   UNL     1       1.702   5.827  18.069  0.00  0.00    +0.000 A 
ATOM      3  C   UNL     1       2.093   4.518  17.794  0.00  0.00    +0.000 A 
ATOM      4  C   UNL     1       3.428   4.254  17.492  0.00  0.00    +0.000 A 
ATOM      5  C   UNL     1       4.381   5.280  17.408  0.00  0.00    +0.000 A 
ATOM      6  C   UNL     1       3.963   6.589  17.662  0.00  0.00    +0.000 A 
ENDROOT
BRANCH   5   7
ATOM      7  C   UNL     1       5.772   4.990  17.077  0.00  0.00    +0.000 A 
ATOM      8  C   UNL     1       6.380   4.545  15.863  0.00  0.00    +0.000 A 
ATOM      9  C   UNL     1       5.788   4.239  14.539  0.00  0.00    +0.000 C 
ATOM     10  N   UNL     1       7.706   4.411  16.003  0.00  0.00    +0.000 NA
ATOM     11  O   UNL     1       7.987   4.759  17.305  0.00  0.00    +0.000 OA
ATOM     12  C   UNL     1       6.840   5.099  17.951  0.00  0.00    +0.000 A 
ATOM     13  C   UNL     1       7.018   5.469  19.370  0.00  0.00    +0.000 C 
ENDBRANCH   5   7
BRANCH   1  14
ATOM     14  C   UNL     1       2.169   8.247  18.314  0.00  0.00    +0.000 C 
ATOM     15  O   UNL     1       2.144   9.142  17.486  0.00  0.00    +0.000 OA
BRANCH  14  16
ATOM     16  O   UNL     1       1.860   8.361  19.629  0.00  0.00    +0.000 OA
BRANCH  16  18
ATOM     17  C   UNL     1       0.179   8.938  21.223  0.00  0.00    +0.000 C 
ATOM     18  C   UNL     1       0.882   9.360  19.946  0.00  0.00    +0.000 C 
ENDBRANCH  16  18
ENDBRANCH  14  16
ENDBRANCH   1  14
BRANCH   3  19
ATOM     19  O   UNL     1       1.094   3.583  17.849  0.00  0.00    +0.000 OA
BRANCH  19  20
ATOM     20  C   UNL     1       1.280   2.506  18.769  0.00  0.00    +0.000 C 
ATOM     21  C   UNL     1       1.047   3.018  20.177  0.00  0.00    +0.000 C 
ENDBRANCH  19  20
ENDBRANCH   3  19
TORSDOF 6
ENDMDL
MODEL 3
REMARK VINA RESULT:      -7.6      1.491      4.417
REMARK  Name = 
REMARK  10 active torsions:
REMARK  status: ('A' for Active; 'I' for Inactive)
REMARK    1  A    between atoms: C_1  and  C_2
REMARK    2  A    between atoms: C_2  and  O_3
REMARK    3  A    between atoms: O_3  and  C_4
REMARK    4  A    between atoms: C_4  and  C_6
REMARK    5  A    between atoms: C_8  and  O_9
REMARK    6  A    between atoms: O_9  and  C_10
REMARK    7  A    between atoms: C_10  and  C_11
REMARK    8  A    between atoms: C_13  and  C_14
REMARK    9  A    between atoms: C_15  and  C_16
REMARK   10  A    between atoms: C_19  and  C_20
REMARK                            x       y       z     vdW  Elec       q    Type
REMARK                         _______ _______ _______ _____ _____    ______ ____
ROOT
ATOM      1  C   UNL     1       2.693   6.840  17.969  0.00  0.00    +0.000 A 
ATOM      2  C   UNL     1       1.754   5.808  18.020  0.00  0.00    +0.000 A 
ATOM      3  C   UNL     1       2.142   4.492  17.775  0.00  0.00    +0.000 A 
ATOM      4  C   UNL     1       3.480   4.216  17.498  0.00  0.00    +0.000 A 
ATOM      5  C   UNL     1       4.440   5.236  17.408  0.00  0.00    +0.000 A 
ATOM      6  C   UNL     1       4.024   6.552  17.633  0.00  0.00    +0.000 A 
ENDROOT
BRANCH   5   7
ATOM      7  C   UNL     1       5.834   4.933  17.103  0.00  0.00    +0.000 A 
ATOM      8  C   UNL     1       7.014   5.016  17.903  0.00  0.00    +0.000 A 
ATOM      9  C   UNL     1       7.200   5.434  19.313  0.00  0.00    +0.000 C 
ATOM     10  N   UNL     1       8.096   4.629  17.215  0.00  0.00    +0.000 NA
ATOM     11  O   UNL     1       7.648   4.293  15.958  0.00  0.00    +0.000 OA
ATOM     12  C   UNL     1       6.303   4.477  15.883  0.00  0.00    +0.000 A 
ATOM     13  C   UNL     1       5.710   4.170  14.564  0.00  0.00    +0.000 C 
ENDBRANCH   5   7
BRANCH   1  14
ATOM     14  C   UNL     1       2.230   8.229  18.228  0.00  0.00    +0.000 C 
ATOM     15  O   UNL     1       2.219   9.109  17.384  0.00  0.00    +0.000 OA
BRANCH  14  16
ATOM     16  O   UNL     1       1.904   8.369  19.537  0.00  0.00    +0.000 OA
BRANCH  16  18
ATOM     17  C   UNL     1       0.235   9.029  21.111  0.00  0.00    +0.000 C 
ATOM     18  C   UNL     1       0.952   9.401  19.826  0.00  0.00    +0.000 C 
ENDBRANCH  16  18
ENDBRANCH  14  16
ENDBRANCH   1  14
BRANCH   3  19
ATOM     19  O   UNL     1       1.137   3.563  17.832  0.00  0.00    +0.000 OA
BRANCH  19  20
ATOM     20  C   UNL     1       1.346   2.453  18.708  0.00  0.00    +0.000 C 
ATOM     21  C   UNL     1       0.992   2.873  20.122  0.00  0.00    +0.000 C 
ENDBRANCH  19  20
ENDBRANCH   3  19
TORSDOF 6
ENDMDL
MODEL 4
REMARK VINA RESULT:      -7.3      1.153      1.242
REMARK  Name = 
REMARK  10 active torsions:
REMARK  status: ('A' for Active; 'I' for Inactive)
REMARK    1  A    between atoms: C_1  and  C_2
REMARK    2  A    between atoms: C_2  and  O_3
REMARK    3  A    between atoms: O_3  and  C_4
REMARK    4  A    between atoms: C_4  and  C_6
REMARK    5  A    between atoms: C_8  and  O_9
REMARK    6  A    between atoms: O_9  and  C_10
REMARK    7  A    between atoms: C_10  and  C_11
REMARK    8  A    between atoms: C_13  and  C_14
REMARK    9  A    between atoms: C_15  and  C_16
REMARK   10  A    between atoms: C_19  and  C_20
REMARK                            x       y       z     vdW  Elec       q    Type
REMARK                         _______ _______ _______ _____ _____    ______ ____
ROOT
ATOM      1  C   UNL     1       2.437   5.142  18.322  0.00  0.00    +0.000 A 
ATOM      2  C   UNL     1       2.162   6.512  18.341  0.00  0.00    +0.000 A 
ATOM      3  C   UNL     1       3.107   7.424  17.877  0.00  0.00    +0.000 A 
ATOM      4  C   UNL     1       4.321   6.954  17.377  0.00  0.00    +0.000 A 
ATOM      5  C   UNL     1       4.638   5.587  17.376  0.00  0.00    +0.000 A 
ATOM      6  C   UNL     1       3.685   4.690  17.869  0.00  0.00    +0.000 A 
ENDROOT
BRANCH   5   7
ATOM      7  C   UNL     1       5.918   5.111  16.863  0.00  0.00    +0.000 A 
ATOM      8  C   UNL     1       6.282   4.567  15.593  0.00  0.00    +0.000 A 
ATOM      9  C   UNL     1       5.469   4.314  14.380  0.00  0.00    +0.000 C 
ATOM     10  N   UNL     1       7.586   4.264  15.549  0.00  0.00    +0.000 NA
ATOM     11  O   UNL     1       8.095   4.598  16.783  0.00  0.00    +0.000 OA
ATOM     12  C   UNL     1       7.107   5.098  17.572  0.00  0.00    +0.000 A 
ATOM     13  C   UNL     1       7.534   5.469  18.937  0.00  0.00    +0.000 C 
ENDBRANCH   5   7
BRANCH   1  14
ATOM     14  C   UNL     1       1.401   4.207  18.837  0.00  0.00    +0.000 C 
ATOM     15  O   UNL     1       0.877   3.337  18.163  0.00  0.00    +0.000 OA
BRANCH  14  16
ATOM     16  O   UNL     1       1.091   4.525  20.119  0.00  0.00    +0.000 OA
BRANCH  16  18
ATOM     17  C   UNL     1       2.219   2.742  21.236  0.00  0.00    +0.000 C 
ATOM     18  C   UNL     1       2.114   4.248  21.085  0.00  0.00    +0.000 C 
ENDBRANCH  16  18
ENDBRANCH  14  16
ENDBRANCH   1  14
BRANCH   3  19
ATOM     19  O   UNL     1       2.741   8.741  17.959  0.00  0.00    +0.000 OA
BRANCH  19  20
ATOM     20  C   UNL     1       1.346   9.022  17.843  0.00  0.00    +0.000 C 
ATOM     21  C   UNL     1       1.046  10.322  18.565  0.00  0.00    +0.000 C 
ENDBRANCH  19  20
ENDBRANCH   3  19
TORSDOF 6
ENDMDL
MODEL 5
REMARK VINA RESULT:      -7.3      2.658      6.302
REMARK  Name = 
REMARK  10 active torsions:
REMARK  status: ('A' for Active; 'I' for Inactive)
REMARK    1  A    between atoms: C_1  and  C_2
REMARK    2  A    between atoms: C_2  and  O_3
REMARK    3  A    between atoms: O_3  and  C_4
REMARK    4  A    between atoms: C_4  and  C_6
REMARK    5  A    between atoms: C_8  and  O_9
REMARK    6  A    between atoms: O_9  and  C_10
REMARK    7  A    between atoms: C_10  and  C_11
REMARK    8  A    between atoms: C_13  and  C_14
REMARK    9  A    between atoms: C_15  and  C_16
REMARK   10  A    between atoms: C_19  and  C_20
REMARK                            x       y       z     vdW  Elec       q    Type
REMARK                         _______ _______ _______ _____ _____    ______ ____
ROOT
ATOM      1  C   UNL     1       6.036   4.339  15.183  0.00  0.00    +0.000 A 
ATOM      2  C   UNL     1       7.125   4.774  15.941  0.00  0.00    +0.000 A 
ATOM      3  C   UNL     1       7.003   4.928  17.321  0.00  0.00    +0.000 A 
ATOM      4  C   UNL     1       5.790   4.625  17.937  0.00  0.00    +0.000 A 
ATOM      5  C   UNL     1       4.670   4.216  17.197  0.00  0.00    +0.000 A 
ATOM      6  C   UNL     1       4.806   4.092  15.811  0.00  0.00    +0.000 A 
ENDROOT
BRANCH   5   7
ATOM      7  C   UNL     1       3.403   3.916  17.854  0.00  0.00    +0.000 A 
ATOM      8  C   UNL     1       2.318   4.760  18.242  0.00  0.00    +0.000 A 
ATOM      9  C   UNL     1       2.130   6.223  18.096  0.00  0.00    +0.000 C 
ATOM     10  N   UNL     1       1.335   4.056  18.819  0.00  0.00    +0.000 NA
ATOM     11  O   UNL     1       1.759   2.747  18.823  0.00  0.00    +0.000 OA
ATOM     12  C   UNL     1       2.990   2.656  18.255  0.00  0.00    +0.000 A 
ATOM     13  C   UNL     1       3.559   1.293  18.227  0.00  0.00    +0.000 C 
ENDBRANCH   5   7
BRANCH   1  14
ATOM     14  C   UNL     1       6.211   4.200  13.712  0.00  0.00    +0.000 C 
ATOM     15  O   UNL     1       7.213   4.549  13.112  0.00  0.00    +0.000 OA
BRANCH  14  16
ATOM     16  O   UNL     1       5.075   3.706  13.159  0.00  0.00    +0.000 OA
BRANCH  16  18
ATOM     17  C   UNL     1       3.918   3.164  11.142  0.00  0.00    +0.000 C 
ATOM     18  C   UNL     1       5.239   3.071  11.884  0.00  0.00    +0.000 C 
ENDBRANCH  16  18
ENDBRANCH  14  16
ENDBRANCH   1  14
BRANCH   3  19
ATOM     19  O   UNL     1       8.127   5.378  17.963  0.00  0.00    +0.000 OA
BRANCH  19  20
ATOM     20  C   UNL     1       7.977   6.556  18.757  0.00  0.00    +0.000 C 
ATOM     21  C   UNL     1       7.831   7.752  17.837  0.00  0.00    +0.000 C 
ENDBRANCH  19  20
ENDBRANCH   3  19
TORSDOF 6
ENDMDL
MODEL 6
REMARK VINA RESULT:      -7.3      1.454      1.931
REMARK  Name = 
REMARK  10 active torsions:
REMARK  status: ('A' for Active; 'I' for Inactive)
REMARK    1  A    between atoms: C_1  and  C_2
REMARK    2  A    between atoms: C_2  and  O_3
REMARK    3  A    between atoms: O_3  and  C_4
REMARK    4  A    between atoms: C_4  and  C_6
REMARK    5  A    between atoms: C_8  and  O_9
REMARK    6  A    between atoms: O_9  and  C_10
REMARK    7  A    between atoms: C_10  and  C_11
REMARK    8  A    between atoms: C_13  and  C_14
REMARK    9  A    between atoms: C_15  and  C_16
REMARK   10  A    between atoms: C_19  and  C_20
REMARK                            x       y       z     vdW  Elec       q    Type
REMARK                         _______ _______ _______ _____ _____    ______ ____
ROOT
ATOM      1  C   UNL     1       2.877   5.776  19.254  0.00  0.00    +0.000 A 
ATOM      2  C   UNL     1       2.381   6.972  18.730  0.00  0.00    +0.000 A 
ATOM      3  C   UNL     1       3.065   7.628  17.709  0.00  0.00    +0.000 A 
ATOM      4  C   UNL     1       4.238   7.068  17.203  0.00  0.00    +0.000 A 
ATOM      5  C   UNL     1       4.776   5.885  17.731  0.00  0.00    +0.000 A 
ATOM      6  C   UNL     1       4.088   5.256  18.772  0.00  0.00    +0.000 A 
ENDROOT
BRANCH   5   7
ATOM      7  C   UNL     1       6.012   5.319  17.202  0.00  0.00    +0.000 A 
ATOM      8  C   UNL     1       6.305   4.704  15.946  0.00  0.00    +0.000 A 
ATOM      9  C   UNL     1       5.442   4.447  14.769  0.00  0.00    +0.000 C 
ATOM     10  N   UNL     1       7.589   4.328  15.877  0.00  0.00    +0.000 NA
ATOM     11  O   UNL     1       8.154   4.683  17.080  0.00  0.00    +0.000 OA
ATOM     12  C   UNL     1       7.220   5.269  17.875  0.00  0.00    +0.000 A 
ATOM     13  C   UNL     1       7.710   5.671  19.210  0.00  0.00    +0.000 C 
ENDBRANCH   5   7
BRANCH   1  14
ATOM     14  C   UNL     1       2.118   5.117  20.350  0.00  0.00    +0.000 C 
ATOM     15  O   UNL     1       1.489   5.725  21.200  0.00  0.00    +0.000 OA
BRANCH  14  16
ATOM     16  O   UNL     1       2.299   3.775  20.293  0.00  0.00    +0.000 OA
BRANCH  16  18
ATOM     17  C   UNL     1       0.921   2.518  18.802  0.00  0.00    +0.000 C 
ATOM     18  C   UNL     1       1.098   2.995  20.232  0.00  0.00    +0.000 C 
ENDBRANCH  16  18
ENDBRANCH  14  16
ENDBRANCH   1  14
BRANCH   3  19
ATOM     19  O   UNL     1       2.500   8.802  17.283  0.00  0.00    +0.000 OA
BRANCH  19  20
ATOM     20  C   UNL     1       1.907   9.624  18.289  0.00  0.00    +0.000 C 
ATOM     21  C   UNL     1       0.425   9.765  17.995  0.00  0.00    +0.000 C 
ENDBRANCH  19  20
ENDBRANCH   3  19
TORSDOF 6
ENDMDL
MODEL 7
REMARK VINA RESULT:      -7.3      1.054      4.141
REMARK  Name = 
REMARK  10 active torsions:
REMARK  status: ('A' for Active; 'I' for Inactive)
REMARK    1  A    between atoms: C_1  and  C_2
REMARK    2  A    between atoms: C_2  and  O_3
REMARK    3  A    between atoms: O_3  and  C_4
REMARK    4  A    between atoms: C_4  and  C_6
REMARK    5  A    between atoms: C_8  and  O_9
REMARK    6  A    between atoms: O_9  and  C_10
REMARK    7  A    between atoms: C_10  and  C_11
REMARK    8  A    between atoms: C_13  and  C_14
REMARK    9  A    between atoms: C_15  and  C_16
REMARK   10  A    between atoms: C_19  and  C_20
REMARK                            x       y       z     vdW  Elec       q    Type
REMARK                         _______ _______ _______ _____ _____    ______ ____
ROOT
ATOM      1  C   UNL     1       2.683   7.360  18.090  0.00  0.00    +0.000 A 
ATOM      2  C   UNL     1       2.088   6.227  18.649  0.00  0.00    +0.000 A 
ATOM      3  C   UNL     1       2.675   4.974  18.488  0.00  0.00    +0.000 A 
ATOM      4  C   UNL     1       3.872   4.866  17.781  0.00  0.00    +0.000 A 
ATOM      5  C   UNL     1       4.475   5.983  17.181  0.00  0.00    +0.000 A 
ATOM      6  C   UNL     1       3.857   7.227  17.333  0.00  0.00    +0.000 A 
ENDROOT
BRANCH   5   7
ATOM      7  C   UNL     1       5.720   5.853  16.431  0.00  0.00    +0.000 A 
ATOM      8  C   UNL     1       6.030   5.138  15.234  0.00  0.00    +0.000 A 
ATOM      9  C   UNL     1       5.178   4.297  14.360  0.00  0.00    +0.000 C 
ATOM     10  N   UNL     1       7.314   5.301  14.889  0.00  0.00    +0.000 NA
ATOM     11  O   UNL     1       7.866   6.116  15.850  0.00  0.00    +0.000 OA
ATOM     12  C   UNL     1       6.924   6.444  16.774  0.00  0.00    +0.000 A 
ATOM     13  C   UNL     1       7.411   7.301  17.875  0.00  0.00    +0.000 C 
ENDBRANCH   5   7
BRANCH   1  14
ATOM     14  C   UNL     1       2.014   8.675  18.279  0.00  0.00    +0.000 C 
ATOM     15  O   UNL     1       2.023   9.567  17.448  0.00  0.00    +0.000 OA
BRANCH  14  16
ATOM     16  O   UNL     1       1.474   8.741  19.522  0.00  0.00    +0.000 OA
BRANCH  16  18
ATOM     17  C   UNL     1      -0.529  10.025  19.719  0.00  0.00    +0.000 C 
ATOM     18  C   UNL     1       0.977  10.029  19.908  0.00  0.00    +0.000 C 
ENDBRANCH  16  18
ENDBRANCH  14  16
ENDBRANCH   1  14
BRANCH   3  19
ATOM     19  O   UNL     1       1.998   3.930  19.061  0.00  0.00    +0.000 OA
BRANCH  19  20
ATOM     20  C   UNL     1       1.352   4.197  20.307  0.00  0.00    +0.000 C 
ATOM     21  C   UNL     1       1.342   2.927  21.135  0.00  0.00    +0.000 C 
ENDBRANCH  19  20
ENDBRANCH   3  19
TORSDOF 6
ENDMDL
MODEL 8
REMARK VINA RESULT:      -7.2      0.727      4.198
REMARK  Name = 
REMARK  10 active torsions:
REMARK  status: ('A' for Active; 'I' for Inactive)
REMARK    1  A    between atoms: C_1  and  C_2
REMARK    2  A    between atoms: C_2  and  O_3
REMARK    3  A    between atoms: O_3  and  C_4
REMARK    4  A    between atoms: C_4  and  C_6
REMARK    5  A    between atoms: C_8  and  O_9
REMARK    6  A    between atoms: O_9  and  C_10
REMARK    7  A    between atoms: C_10  and  C_11
REMARK    8  A    between atoms: C_13  and  C_14
REMARK    9  A    between atoms: C_15  and  C_16
REMARK   10  A    between atoms: C_19  and  C_20
REMARK                            x       y       z     vdW  Elec       q    Type
REMARK                         _______ _______ _______ _____ _____    ______ ____
ROOT
ATOM      1  C   UNL     1       2.779   6.560  18.256  0.00  0.00    +0.000 A 
ATOM      2  C   UNL     1       2.180   5.324  18.513  0.00  0.00    +0.000 A 
ATOM      3  C   UNL     1       2.749   4.152  18.019  0.00  0.00    +0.000 A 
ATOM      4  C   UNL     1       3.931   4.224  17.283  0.00  0.00    +0.000 A 
ATOM      5  C   UNL     1       4.537   5.454  16.982  0.00  0.00    +0.000 A 
ATOM      6  C   UNL     1       3.937   6.619  17.466  0.00  0.00    +0.000 A 
ENDROOT
BRANCH   5   7
ATOM      7  C   UNL     1       5.766   5.515  16.199  0.00  0.00    +0.000 A 
ATOM      8  C   UNL     1       6.094   4.981  14.915  0.00  0.00    +0.000 A 
ATOM      9  C   UNL     1       5.281   4.193  13.958  0.00  0.00    +0.000 C 
ATOM     10  N   UNL     1       7.352   5.284  14.569  0.00  0.00    +0.000 NA
ATOM     11  O   UNL     1       7.869   6.013  15.615  0.00  0.00    +0.000 OA
ATOM     12  C   UNL     1       6.933   6.149  16.591  0.00  0.00    +0.000 A 
ATOM     13  C   UNL     1       7.386   6.897  17.782  0.00  0.00    +0.000 C 
ENDBRANCH   5   7
BRANCH   1  14
ATOM     14  C   UNL     1       2.130   7.784  18.795  0.00  0.00    +0.000 C 
ATOM     15  O   UNL     1       1.952   7.991  19.984  0.00  0.00    +0.000 OA
BRANCH  14  16
ATOM     16  O   UNL     1       1.712   8.571  17.772  0.00  0.00    +0.000 OA
BRANCH  16  18
ATOM     17  C   UNL     1      -0.034  10.132  18.237  0.00  0.00    +0.000 C 
ATOM     18  C   UNL     1       1.467   9.942  18.113  0.00  0.00    +0.000 C 
ENDBRANCH  16  18
ENDBRANCH  14  16
ENDBRANCH   1  14
BRANCH   3  19
ATOM     19  O   UNL     1       2.070   3.000  18.315  0.00  0.00    +0.000 OA
BRANCH  19  20
ATOM     20  C   UNL     1       2.430   2.343  19.531  0.00  0.00    +0.000 C 
ATOM     21  C   UNL     1       1.375   2.640  20.579  0.00  0.00    +0.000 C 
ENDBRANCH  19  20
ENDBRANCH   3  19
TORSDOF 6
ENDMDL
MODEL 9
REMARK VINA RESULT:      -7.2      2.568      6.180
REMARK  Name = 
REMARK  10 active torsions:
REMARK  status: ('A' for Active; 'I' for Inactive)
REMARK    1  A    between atoms: C_1  and  C_2
REMARK    2  A    between atoms: C_2  and  O_3
REMARK    3  A    between atoms: O_3  and  C_4
REMARK    4  A    between atoms: C_4  and  C_6
REMARK    5  A    between atoms: C_8  and  O_9
REMARK    6  A    between atoms: O_9  and  C_10
REMARK    7  A    between atoms: C_10  and  C_11
REMARK    8  A    between atoms: C_13  and  C_14
REMARK    9  A    between atoms: C_15  and  C_16
REMARK   10  A    between atoms: C_19  and  C_20
REMARK                            x       y       z     vdW  Elec       q    Type
REMARK                         _______ _______ _______ _____ _____    ______ ____
ROOT
ATOM      1  C   UNL     1       6.309   5.102  15.664  0.00  0.00    +0.000 A 
ATOM      2  C   UNL     1       7.193   5.914  16.380  0.00  0.00    +0.000 A 
ATOM      3  C   UNL     1       6.900   6.284  17.691  0.00  0.00    +0.000 A 
ATOM      4  C   UNL     1       5.727   5.820  18.286  0.00  0.00    +0.000 A 
ATOM      5  C   UNL     1       4.806   5.031  17.580  0.00  0.00    +0.000 A 
ATOM      6  C   UNL     1       5.107   4.692  16.258  0.00  0.00    +0.000 A 
ENDROOT
BRANCH   5   7
ATOM      7  C   UNL     1       3.576   4.565  18.211  0.00  0.00    +0.000 A 
ATOM      8  C   UNL     1       2.512   5.278  18.845  0.00  0.00    +0.000 A 
ATOM      9  C   UNL     1       2.315   6.730  19.061  0.00  0.00    +0.000 C 
ATOM     10  N   UNL     1       1.563   4.442  19.287  0.00  0.00    +0.000 NA
ATOM     11  O   UNL     1       1.987   3.176  18.957  0.00  0.00    +0.000 OA
ATOM     12  C   UNL     1       3.187   3.241  18.321  0.00  0.00    +0.000 A 
ATOM     13  C   UNL     1       3.756   1.931  17.940  0.00  0.00    +0.000 C 
ENDBRANCH   5   7
BRANCH   1  14
ATOM     14  C   UNL     1       6.659   4.743  14.264  0.00  0.00    +0.000 C 
ATOM     15  O   UNL     1       7.510   5.320  13.608  0.00  0.00    +0.000 OA
BRANCH  14  16
ATOM     16  O   UNL     1       5.847   3.748  13.828  0.00  0.00    +0.000 OA
BRANCH  16  18
ATOM     17  C   UNL     1       4.673   3.352  11.788  0.00  0.00    +0.000 C 
ATOM     18  C   UNL     1       6.033   3.358  12.461  0.00  0.00    +0.000 C 
ENDBRANCH  16  18
ENDBRANCH  14  16
ENDBRANCH   1  14
BRANCH   3  19
ATOM     19  O   UNL     1       7.825   7.095  18.293  0.00  0.00    +0.000 OA
BRANCH  19  20
ATOM     20  C   UNL     1       8.015   8.385  17.710  0.00  0.00    +0.000 C 
ATOM     21  C   UNL     1       8.739   9.271  18.707  0.00  0.00    +0.000 C 
ENDBRANCH  19  20
ENDBRANCH   3  19
TORSDOF 6
ENDMDL
