MODEL 1
REMARK VINA RESULT:      -8.4      0.000      0.000
REMARK  Name = 
REMARK  5 active torsions:
REMARK  status: ('A' for Active; 'I' for Inactive)
REMARK    1  A    between atoms: C_1  and  O_2
REMARK    2  A    between atoms: O_2  and  C_3
REMARK    3  A    between atoms: C_6  and  C_7
REMARK    4  A    between atoms: N_9  and  C_10
REMARK    5  A    between atoms: C_22  and  O_23
REMARK                            x       y       z     vdW  Elec       q    Type
REMARK                         _______ _______ _______ _____ _____    ______ ____
ROOT
ATOM      1  C   UNL     1       3.183   5.717  18.146  0.00  0.00    +0.000 A 
ATOM      2  N   UNL     1       4.211   5.823  17.289  0.00  0.00    +0.000 NA
ATOM      3  N   UNL     1       4.589   4.552  17.045  0.00  0.00    +0.000 N 
ATOM      4  C   UNL     1       3.812   3.624  17.698  0.00  0.00    +0.000 A 
ATOM      5  N   UNL     1       3.927   2.284  17.666  0.00  0.00    +0.000 NA
ATOM      6  C   UNL     1       3.016   1.687  18.448  0.00  0.00    +0.000 A 
ATOM      7  N   UNL     1       2.063   2.270  19.202  0.00  0.00    +0.000 NA
ATOM      8  C   UNL     1       1.971   3.613  19.207  0.00  0.00    +0.000 A 
ATOM      9  N   UNL     1       0.961   4.150  19.993  0.00  0.00    +0.000 N 
ATOM     10  C   UNL     1       2.881   4.351  18.434  0.00  0.00    +0.000 A 
ATOM     11  H   UNL     1       0.313   3.422  20.276  0.00  0.00    +0.000 HD
ATOM     12  H   UNL     1       0.523   4.979  19.610  0.00  0.00    +0.000 HD
ENDROOT
BRANCH   1  16
ATOM     13  C   UNL     1       1.342   9.288  19.632  0.00  0.00    +0.000 A 
ATOM     14  C   UNL     1       1.560   8.188  20.473  0.00  0.00    +0.000 A 
ATOM     15  C   UNL     1       2.167   7.023  19.995  0.00  0.00    +0.000 A 
ATOM     16  C   UNL     1       2.548   6.931  18.651  0.00  0.00    +0.000 A 
ATOM     17  C   UNL     1       2.290   8.009  17.802  0.00  0.00    +0.000 A 
ATOM     18  C   UNL     1       1.727   9.189  18.292  0.00  0.00    +0.000 A 
BRANCH  13  20
ATOM     19  C   UNL     1      -0.643  10.516  20.114  0.00  0.00    +0.000 C 
ATOM     20  O   UNL     1       0.757  10.343  20.273  0.00  0.00    +0.000 OA
ENDBRANCH  13  20
BRANCH  18  21
ATOM     21  O   UNL     1       1.581  10.231  17.417  0.00  0.00    +0.000 OA
ATOM     22  H   UNL     1       2.393  10.330  16.893  0.00  0.00    +0.000 HD
ENDBRANCH  18  21
ENDBRANCH   1  16
BRANCH   3  23
ATOM     23  C   UNL     1       5.702   4.221  16.202  0.00  0.00    +0.000 C 
ATOM     24  C   UNL     1       5.924   5.203  15.020  0.00  0.00    +0.000 C 
ATOM     25  N   UNL     1       7.377   5.154  15.316  0.00  0.00    +0.000 NA
ATOM     26  C   UNL     1       7.023   4.851  16.724  0.00  0.00    +0.000 C 
ATOM     27  H   UNL     1       7.863   6.038  15.185  0.00  0.00    +0.000 HD
ENDBRANCH   3  23
TORSDOF 4
ENDMDL
MODEL 2
REMARK VINA RESULT:      -8.4      0.593      1.425
REMARK  Name = 
REMARK  5 active torsions:
REMARK  status: ('A' for Active; 'I' for Inactive)
REMARK    1  A    between atoms: C_1  and  O_2
REMARK    2  A    between atoms: O_2  and  C_3
REMARK    3  A    between atoms: C_6  and  C_7
REMARK    4  A    between atoms: N_9  and  C_10
REMARK    5  A    between atoms: C_22  and  O_23
REMARK                            x       y       z     vdW  Elec       q    Type
REMARK                         _______ _______ _______ _____ _____    ______ ____
ROOT
ATOM      1  C   UNL     1       3.101   5.782  18.135  0.00  0.00    +0.000 A 
ATOM      2  N   UNL     1       4.106   5.886  17.251  0.00  0.00    +0.000 NA
ATOM      3  N   UNL     1       4.492   4.616  17.016  0.00  0.00    +0.000 N 
ATOM      4  C   UNL     1       3.741   3.689  17.701  0.00  0.00    +0.000 A 
ATOM      5  N   UNL     1       3.871   2.350  17.686  0.00  0.00    +0.000 NA
ATOM      6  C   UNL     1       2.985   1.755  18.499  0.00  0.00    +0.000 A 
ATOM      7  N   UNL     1       2.045   2.338  19.267  0.00  0.00    +0.000 NA
ATOM      8  C   UNL     1       1.938   3.681  19.255  0.00  0.00    +0.000 A 
ATOM      9  N   UNL     1       0.942   4.219  20.059  0.00  0.00    +0.000 N 
ATOM     10  C   UNL     1       2.821   4.417  18.449  0.00  0.00    +0.000 A 
ATOM     11  H   UNL     1       0.309   3.488  20.368  0.00  0.00    +0.000 HD
ATOM     12  H   UNL     1       0.485   5.037  19.674  0.00  0.00    +0.000 HD
ENDROOT
BRANCH   1  16
ATOM     13  C   UNL     1       1.214   9.333  19.608  0.00  0.00    +0.000 A 
ATOM     14  C   UNL     1       1.460   9.165  18.239  0.00  0.00    +0.000 A 
ATOM     15  C   UNL     1       2.069   8.005  17.752  0.00  0.00    +0.000 A 
ATOM     16  C   UNL     1       2.465   6.997  18.638  0.00  0.00    +0.000 A 
ATOM     17  C   UNL     1       2.262   7.183  20.007  0.00  0.00    +0.000 A 
ATOM     18  C   UNL     1       1.611   8.321  20.487  0.00  0.00    +0.000 A 
BRANCH  13  20
ATOM     19  C   UNL     1      -0.782  10.636  19.581  0.00  0.00    +0.000 C 
ATOM     20  O   UNL     1       0.596  10.517  19.899  0.00  0.00    +0.000 OA
ENDBRANCH  13  20
BRANCH  18  21
ATOM     21  O   UNL     1       1.374   8.394  21.832  0.00  0.00    +0.000 OA
ATOM     22  H   UNL     1       1.746   7.610  22.269  0.00  0.00    +0.000 HD
ENDBRANCH  18  21
ENDBRANCH   1  16
BRANCH   3  23
ATOM     23  C   UNL     1       5.588   4.284  16.151  0.00  0.00    +0.000 C 
ATOM     24  C   UNL     1       5.862   5.330  15.036  0.00  0.00    +0.000 C 
ATOM     25  N   UNL     1       7.310   5.185  15.326  0.00  0.00    +0.000 NA
ATOM     26  C   UNL     1       6.939   4.808  16.711  0.00  0.00    +0.000 C 
ATOM     27  H   UNL     1       7.842   6.050  15.253  0.00  0.00    +0.000 HD
ENDBRANCH   3  23
TORSDOF 4
ENDMDL
MODEL 3
REMARK VINA RESULT:      -8.0      1.172      1.751
REMARK  Name = 
REMARK  5 active torsions:
REMARK  status: ('A' for Active; 'I' for Inactive)
REMARK    1  A    between atoms: C_1  and  O_2
REMARK    2  A    between atoms: O_2  and  C_3
REMARK    3  A    between atoms: C_6  and  C_7
REMARK    4  A    between atoms: N_9  and  C_10
REMARK    5  A    between atoms: C_22  and  O_23
REMARK                            x       y       z     vdW  Elec       q    Type
REMARK                         _______ _______ _______ _____ _____    ______ ____
ROOT
ATOM      1  C   UNL     1       3.352   6.274  18.718  0.00  0.00    +0.000 A 
ATOM      2  N   UNL     1       4.475   6.400  17.993  0.00  0.00    +0.000 NA
ATOM      3  N   UNL     1       5.065   5.190  18.056  0.00  0.00    +0.000 N 
ATOM      4  C   UNL     1       4.336   4.273  18.777  0.00  0.00    +0.000 A 
ATOM      5  N   UNL     1       4.646   2.988  19.027  0.00  0.00    +0.000 NA
ATOM      6  C   UNL     1       3.718   2.391  19.791  0.00  0.00    +0.000 A 
ATOM      7  N   UNL     1       2.586   2.926  20.286  0.00  0.00    +0.000 NA
ATOM      8  C   UNL     1       2.303   4.214  20.013  0.00  0.00    +0.000 A 
ATOM      9  N   UNL     1       1.116   4.702  20.543  0.00  0.00    +0.000 N 
ATOM     10  C   UNL     1       3.207   4.949  19.230  0.00  0.00    +0.000 A 
ATOM     11  H   UNL     1       0.542   3.935  20.881  0.00  0.00    +0.000 HD
ATOM     12  H   UNL     1       0.629   5.363  19.950  0.00  0.00    +0.000 HD
ENDROOT
BRANCH   1  16
ATOM     13  C   UNL     1       0.770   9.656  19.210  0.00  0.00    +0.000 A 
ATOM     14  C   UNL     1       1.304   9.337  17.955  0.00  0.00    +0.000 A 
ATOM     15  C   UNL     1       2.142   8.230  17.787  0.00  0.00    +0.000 A 
ATOM     16  C   UNL     1       2.478   7.432  18.887  0.00  0.00    +0.000 A 
ATOM     17  C   UNL     1       1.984   7.776  20.146  0.00  0.00    +0.000 A 
ATOM     18  C   UNL     1       1.109   8.854  20.304  0.00  0.00    +0.000 A 
BRANCH  13  20
ATOM     19  C   UNL     1      -1.353  10.595  18.669  0.00  0.00    +0.000 C 
ATOM     20  O   UNL     1      -0.040  10.756  19.182  0.00  0.00    +0.000 OA
ENDBRANCH  13  20
BRANCH  18  21
ATOM     21  O   UNL     1       0.601   9.078  21.554  0.00  0.00    +0.000 OA
ATOM     22  H   UNL     1      -0.210   8.556  21.671  0.00  0.00    +0.000 HD
ENDBRANCH  18  21
ENDBRANCH   1  16
BRANCH   3  23
ATOM     23  C   UNL     1       6.332   4.910  17.444  0.00  0.00    +0.000 C 
ATOM     24  C   UNL     1       6.254   4.610  15.921  0.00  0.00    +0.000 C 
ATOM     25  N   UNL     1       7.449   5.470  15.741  0.00  0.00    +0.000 NA
ATOM     26  C   UNL     1       7.033   6.209  16.957  0.00  0.00    +0.000 C 
ATOM     27  H   UNL     1       7.443   6.025  14.888  0.00  0.00    +0.000 HD
ENDBRANCH   3  23
TORSDOF 4
ENDMDL
MODEL 4
REMARK VINA RESULT:      -7.7      3.059      6.094
REMARK  Name = 
REMARK  5 active torsions:
REMARK  status: ('A' for Active; 'I' for Inactive)
REMARK    1  A    between atoms: C_1  and  O_2
REMARK    2  A    between atoms: O_2  and  C_3
REMARK    3  A    between atoms: C_6  and  C_7
REMARK    4  A    between atoms: N_9  and  C_10
REMARK    5  A    between atoms: C_22  and  O_23
REMARK                            x       y       z     vdW  Elec       q    Type
REMARK                         _______ _______ _______ _____ _____    ______ ____
ROOT
ATOM      1  C   UNL     1       3.817   5.533  18.684  0.00  0.00    +0.000 A 
ATOM      2  N   UNL     1       3.094   6.652  18.849  0.00  0.00    +0.000 NA
ATOM      3  N   UNL     1       2.242   6.368  19.854  0.00  0.00    +0.000 N 
ATOM      4  C   UNL     1       2.416   5.103  20.366  0.00  0.00    +0.000 A 
ATOM      5  N   UNL     1       1.731   4.518  21.365  0.00  0.00    +0.000 NA
ATOM      6  C   UNL     1       2.148   3.262  21.586  0.00  0.00    +0.000 A 
ATOM      7  N   UNL     1       3.125   2.590  20.945  0.00  0.00    +0.000 NA
ATOM      8  C   UNL     1       3.794   3.207  19.953  0.00  0.00    +0.000 A 
ATOM      9  N   UNL     1       4.796   2.465  19.342  0.00  0.00    +0.000 N 
ATOM     10  C   UNL     1       3.439   4.524  19.621  0.00  0.00    +0.000 A 
ATOM     11  H   UNL     1       5.004   1.638  19.892  0.00  0.00    +0.000 HD
ATOM     12  H   UNL     1       5.609   3.001  19.063  0.00  0.00    +0.000 HD
ENDROOT
BRANCH   1  16
ATOM     13  C   UNL     1       6.774   5.414  15.588  0.00  0.00    +0.000 A 
ATOM     14  C   UNL     1       5.670   4.551  15.561  0.00  0.00    +0.000 A 
ATOM     15  C   UNL     1       4.699   4.591  16.565  0.00  0.00    +0.000 A 
ATOM     16  C   UNL     1       4.830   5.487  17.633  0.00  0.00    +0.000 A 
ATOM     17  C   UNL     1       5.952   6.315  17.684  0.00  0.00    +0.000 A 
ATOM     18  C   UNL     1       6.897   6.307  16.656  0.00  0.00    +0.000 A 
BRANCH  13  20
ATOM     19  C   UNL     1       7.104   4.550  13.391  0.00  0.00    +0.000 C 
ATOM     20  O   UNL     1       7.608   5.248  14.519  0.00  0.00    +0.000 OA
ENDBRANCH  13  20
BRANCH  18  21
ATOM     21  O   UNL     1       7.926   7.206  16.736  0.00  0.00    +0.000 OA
ATOM     22  H   UNL     1       8.687   6.871  16.232  0.00  0.00    +0.000 HD
ENDBRANCH  18  21
ENDBRANCH   1  16
BRANCH   3  23
ATOM     23  C   UNL     1       1.249   7.294  20.316  0.00  0.00    +0.000 C 
ATOM     24  C   UNL     1       1.683   8.136  21.547  0.00  0.00    +0.000 C 
ATOM     25  N   UNL     1       1.088   9.322  20.884  0.00  0.00    +0.000 NA
ATOM     26  C   UNL     1       1.355   8.661  19.585  0.00  0.00    +0.000 C 
ATOM     27  H   UNL     1       1.603  10.188  21.030  0.00  0.00    +0.000 HD
ENDBRANCH   3  23
TORSDOF 4
ENDMDL
MODEL 5
REMARK VINA RESULT:      -7.4      3.188      6.474
REMARK  Name = 
REMARK  5 active torsions:
REMARK  status: ('A' for Active; 'I' for Inactive)
REMARK    1  A    between atoms: C_1  and  O_2
REMARK    2  A    between atoms: O_2  and  C_3
REMARK    3  A    between atoms: C_6  and  C_7
REMARK    4  A    between atoms: N_9  and  C_10
REMARK    5  A    between atoms: C_22  and  O_23
REMARK                            x       y       z     vdW  Elec       q    Type
REMARK                         _______ _______ _______ _____ _____    ______ ____
ROOT
ATOM      1  C   UNL     1       3.700   5.317  18.611  0.00  0.00    +0.000 A 
ATOM      2  N   UNL     1       3.527   4.285  19.451  0.00  0.00    +0.000 NA
ATOM      3  N   UNL     1       2.661   4.737  20.380  0.00  0.00    +0.000 N 
ATOM      4  C   UNL     1       2.244   6.026  20.145  0.00  0.00    +0.000 A 
ATOM      5  N   UNL     1       1.389   6.762  20.879  0.00  0.00    +0.000 NA
ATOM      6  C   UNL     1       1.230   7.994  20.371  0.00  0.00    +0.000 A 
ATOM      7  N   UNL     1       1.804   8.515  19.269  0.00  0.00    +0.000 NA
ATOM      8  C   UNL     1       2.650   7.750  18.554  0.00  0.00    +0.000 A 
ATOM      9  N   UNL     1       3.198   8.342  17.424  0.00  0.00    +0.000 N 
ATOM     10  C   UNL     1       2.907   6.442  18.994  0.00  0.00    +0.000 A 
ATOM     11  H   UNL     1       2.701   9.198  17.202  0.00  0.00    +0.000 HD
ATOM     12  H   UNL     1       3.329   7.714  16.640  0.00  0.00    +0.000 HD
ENDROOT
BRANCH   1  16
ATOM     13  C   UNL     1       6.390   4.919  15.301  0.00  0.00    +0.000 A 
ATOM     14  C   UNL     1       5.238   4.125  15.391  0.00  0.00    +0.000 A 
ATOM     15  C   UNL     1       4.353   4.257  16.465  0.00  0.00    +0.000 A 
ATOM     16  C   UNL     1       4.621   5.175  17.486  0.00  0.00    +0.000 A 
ATOM     17  C   UNL     1       5.792   5.934  17.421  0.00  0.00    +0.000 A 
ATOM     18  C   UNL     1       6.650   5.835  16.324  0.00  0.00    +0.000 A 
BRANCH  13  20
ATOM     19  C   UNL     1       6.509   3.923  13.139  0.00  0.00    +0.000 C 
ATOM     20  O   UNL     1       7.125   4.668  14.178  0.00  0.00    +0.000 OA
ENDBRANCH  13  20
BRANCH  18  21
ATOM     21  O   UNL     1       7.734   6.670  16.292  0.00  0.00    +0.000 OA
ATOM     22  H   UNL     1       8.254   6.493  15.491  0.00  0.00    +0.000 HD
ENDBRANCH  18  21
ENDBRANCH   1  16
BRANCH   3  23
ATOM     23  C   UNL     1       2.243   3.947  21.503  0.00  0.00    +0.000 C 
ATOM     24  C   UNL     1       1.023   3.029  21.219  0.00  0.00    +0.000 C 
ATOM     25  N   UNL     1       1.727   1.950  21.955  0.00  0.00    +0.000 NA
ATOM     26  C   UNL     1       3.004   2.594  21.566  0.00  0.00    +0.000 C 
ATOM     27  H   UNL     1       1.590   1.019  21.568  0.00  0.00    +0.000 HD
ENDBRANCH   3  23
TORSDOF 4
ENDMDL
MODEL 6
REMARK VINA RESULT:      -7.3      0.928      1.049
REMARK  Name = 
REMARK  5 active torsions:
REMARK  status: ('A' for Active; 'I' for Inactive)
REMARK    1  A    between atoms: C_1  and  O_2
REMARK    2  A    between atoms: O_2  and  C_3
REMARK    3  A    between atoms: C_6  and  C_7
REMARK    4  A    between atoms: N_9  and  C_10
REMARK    5  A    between atoms: C_22  and  O_23
REMARK                            x       y       z     vdW  Elec       q    Type
REMARK                         _______ _______ _______ _____ _____    ______ ____
ROOT
ATOM      1  C   UNL     1       3.007   6.435  18.204  0.00  0.00    +0.000 A 
ATOM      2  N   UNL     1       3.995   6.767  17.359  0.00  0.00    +0.000 NA
ATOM      3  N   UNL     1       4.501   5.591  16.939  0.00  0.00    +0.000 N 
ATOM      4  C   UNL     1       3.844   4.503  17.466  0.00  0.00    +0.000 A 
ATOM      5  N   UNL     1       4.101   3.201  17.248  0.00  0.00    +0.000 NA
ATOM      6  C   UNL     1       3.279   2.407  17.951  0.00  0.00    +0.000 A 
ATOM      7  N   UNL     1       2.288   2.775  18.787  0.00  0.00    +0.000 NA
ATOM      8  C   UNL     1       2.053   4.087  18.977  0.00  0.00    +0.000 A 
ATOM      9  N   UNL     1       1.012   4.399  19.841  0.00  0.00    +0.000 N 
ATOM     10  C   UNL     1       2.859   5.018  18.304  0.00  0.00    +0.000 A 
ATOM     11  H   UNL     1       0.452   3.573  20.027  0.00  0.00    +0.000 HD
ATOM     12  H   UNL     1       0.478   5.219  19.579  0.00  0.00    +0.000 HD
ENDROOT
BRANCH   1  16
ATOM     13  C   UNL     1       0.833   9.550  20.184  0.00  0.00    +0.000 A 
ATOM     14  C   UNL     1       1.303   8.438  20.895  0.00  0.00    +0.000 A 
ATOM     15  C   UNL     1       2.020   7.422  20.255  0.00  0.00    +0.000 A 
ATOM     16  C   UNL     1       2.258   7.493  18.878  0.00  0.00    +0.000 A 
ATOM     17  C   UNL     1       1.750   8.577  18.160  0.00  0.00    +0.000 A 
ATOM     18  C   UNL     1       1.076   9.614  18.808  0.00  0.00    +0.000 A 
BRANCH  13  20
ATOM     19  C   UNL     1      -0.194  10.034  22.280  0.00  0.00    +0.000 C 
ATOM     20  O   UNL     1       0.172  10.448  20.973  0.00  0.00    +0.000 OA
ENDBRANCH  13  20
BRANCH  18  21
ATOM     21  O   UNL     1       0.681  10.683  18.051  0.00  0.00    +0.000 OA
ATOM     22  H   UNL     1       1.393  10.924  17.436  0.00  0.00    +0.000 HD
ENDBRANCH  18  21
ENDBRANCH   1  16
BRANCH   3  23
ATOM     23  C   UNL     1       5.622   5.500  16.047  0.00  0.00    +0.000 C 
ATOM     24  C   UNL     1       6.956   6.029  16.641  0.00  0.00    +0.000 C 
ATOM     25  N   UNL     1       7.629   4.844  16.055  0.00  0.00    +0.000 NA
ATOM     26  C   UNL     1       6.337   4.125  16.164  0.00  0.00    +0.000 C 
ATOM     27  H   UNL     1       8.375   4.457  16.630  0.00  0.00    +0.000 HD
ENDBRANCH   3  23
TORSDOF 4
ENDMDL
MODEL 7
REMARK VINA RESULT:      -7.1      1.355      3.894
REMARK  Name = 
REMARK  5 active torsions:
REMARK  status: ('A' for Active; 'I' for Inactive)
REMARK    1  A    between atoms: C_1  and  O_2
REMARK    2  A    between atoms: O_2  and  C_3
REMARK    3  A    between atoms: C_6  and  C_7
REMARK    4  A    between atoms: N_9  and  C_10
REMARK    5  A    between atoms: C_22  and  O_23
REMARK                            x       y       z     vdW  Elec       q    Type
REMARK                         _______ _______ _______ _____ _____    ______ ____
ROOT
ATOM      1  C   UNL     1       3.461   6.083  18.013  0.00  0.00    +0.000 A 
ATOM      2  N   UNL     1       2.889   4.884  18.204  0.00  0.00    +0.000 NA
ATOM      3  N   UNL     1       3.778   3.996  17.714  0.00  0.00    +0.000 N 
ATOM      4  C   UNL     1       4.925   4.588  17.240  0.00  0.00    +0.000 A 
ATOM      5  N   UNL     1       5.996   3.986  16.691  0.00  0.00    +0.000 NA
ATOM      6  C   UNL     1       6.926   4.875  16.311  0.00  0.00    +0.000 A 
ATOM      7  N   UNL     1       6.886   6.217  16.429  0.00  0.00    +0.000 NA
ATOM      8  C   UNL     1       5.801   6.787  16.988  0.00  0.00    +0.000 A 
ATOM      9  N   UNL     1       5.826   8.171  17.091  0.00  0.00    +0.000 N 
ATOM     10  C   UNL     1       4.752   5.958  17.416  0.00  0.00    +0.000 A 
ATOM     11  H   UNL     1       6.764   8.518  16.917  0.00  0.00    +0.000 HD
ATOM     12  H   UNL     1       5.390   8.540  17.927  0.00  0.00    +0.000 HD
ENDROOT
BRANCH   1  16
ATOM     13  C   UNL     1       1.317   9.609  19.162  0.00  0.00    +0.000 A 
ATOM     14  C   UNL     1       1.838   9.474  17.869  0.00  0.00    +0.000 A 
ATOM     15  C   UNL     1       2.532   8.322  17.486  0.00  0.00    +0.000 A 
ATOM     16  C   UNL     1       2.737   7.289  18.407  0.00  0.00    +0.000 A 
ATOM     17  C   UNL     1       2.258   7.441  19.710  0.00  0.00    +0.000 A 
ATOM     18  C   UNL     1       1.524   8.571  20.077  0.00  0.00    +0.000 A 
BRANCH  13  20
ATOM     19  C   UNL     1      -0.745  10.804  19.114  0.00  0.00    +0.000 C 
ATOM     20  O   UNL     1       0.654  10.788  19.352  0.00  0.00    +0.000 OA
ENDBRANCH  13  20
BRANCH  18  21
ATOM     21  O   UNL     1       1.017   8.611  21.347  0.00  0.00    +0.000 OA
ATOM     22  H   UNL     1       1.683   8.280  21.971  0.00  0.00    +0.000 HD
ENDBRANCH  18  21
ENDBRANCH   1  16
BRANCH   3  23
ATOM     23  C   UNL     1       3.528   2.583  17.682  0.00  0.00    +0.000 C 
ATOM     24  C   UNL     1       3.837   1.849  19.016  0.00  0.00    +0.000 C 
ATOM     25  N   UNL     1       2.570   1.097  18.838  0.00  0.00    +0.000 NA
ATOM     26  C   UNL     1       2.058   2.252  18.063  0.00  0.00    +0.000 C 
ATOM     27  H   UNL     1       2.065   0.913  19.702  0.00  0.00    +0.000 HD
ENDBRANCH   3  23
TORSDOF 4
ENDMDL
MODEL 8
REMARK VINA RESULT:      -7.1      3.428      6.203
REMARK  Name = 
REMARK  5 active torsions:
REMARK  status: ('A' for Active; 'I' for Inactive)
REMARK    1  A    between atoms: C_1  and  O_2
REMARK    2  A    between atoms: O_2  and  C_3
REMARK    3  A    between atoms: C_6  and  C_7
REMARK    4  A    between atoms: N_9  and  C_10
REMARK    5  A    between atoms: C_22  and  O_23
REMARK                            x       y       z     vdW  Elec       q    Type
REMARK                         _______ _______ _______ _____ _____    ______ ____
ROOT
ATOM      1  C   UNL     1       3.891   5.474  18.539  0.00  0.00    +0.000 A 
ATOM      2  N   UNL     1       3.160   6.594  18.644  0.00  0.00    +0.000 NA
ATOM      3  N   UNL     1       2.301   6.353  19.655  0.00  0.00    +0.000 N 
ATOM      4  C   UNL     1       2.479   5.115  20.228  0.00  0.00    +0.000 A 
ATOM      5  N   UNL     1       1.790   4.573  21.249  0.00  0.00    +0.000 NA
ATOM      6  C   UNL     1       2.214   3.332  21.532  0.00  0.00    +0.000 A 
ATOM      7  N   UNL     1       3.199   2.637  20.932  0.00  0.00    +0.000 NA
ATOM      8  C   UNL     1       3.873   3.211  19.917  0.00  0.00    +0.000 A 
ATOM      9  N   UNL     1       4.884   2.447  19.349  0.00  0.00    +0.000 N 
ATOM     10  C   UNL     1       3.512   4.508  19.520  0.00  0.00    +0.000 A 
ATOM     11  H   UNL     1       5.092   1.648  19.940  0.00  0.00    +0.000 HD
ATOM     12  H   UNL     1       5.695   2.975  19.052  0.00  0.00    +0.000 HD
ENDROOT
BRANCH   1  16
ATOM     13  C   UNL     1       6.901   5.198  15.503  0.00  0.00    +0.000 A 
ATOM     14  C   UNL     1       6.879   6.276  16.398  0.00  0.00    +0.000 A 
ATOM     15  C   UNL     1       5.904   6.367  17.395  0.00  0.00    +0.000 A 
ATOM     16  C   UNL     1       4.912   5.384  17.498  0.00  0.00    +0.000 A 
ATOM     17  C   UNL     1       4.905   4.334  16.579  0.00  0.00    +0.000 A 
ATOM     18  C   UNL     1       5.908   4.219  15.614  0.00  0.00    +0.000 A 
BRANCH  13  20
ATOM     19  C   UNL     1       7.610   5.272  13.229  0.00  0.00    +0.000 C 
ATOM     20  O   UNL     1       7.933   5.263  14.611  0.00  0.00    +0.000 OA
ENDBRANCH  13  20
BRANCH  18  21
ATOM     21  O   UNL     1       5.882   3.118  14.802  0.00  0.00    +0.000 OA
ATOM     22  H   UNL     1       6.268   3.343  13.939  0.00  0.00    +0.000 HD
ENDBRANCH  18  21
ENDBRANCH   1  16
BRANCH   3  23
ATOM     23  C   UNL     1       1.299   7.294  20.065  0.00  0.00    +0.000 C 
ATOM     24  C   UNL     1       1.662   8.099  21.343  0.00  0.00    +0.000 C 
ATOM     25  N   UNL     1       1.144   9.313  20.666  0.00  0.00    +0.000 NA
ATOM     26  C   UNL     1       1.490   8.672  19.374  0.00  0.00    +0.000 C 
ATOM     27  H   UNL     1       1.666  10.162  20.868  0.00  0.00    +0.000 HD
ENDBRANCH   3  23
TORSDOF 4
ENDMDL
MODEL 9
REMARK VINA RESULT:      -7.0      1.277      3.620
REMARK  Name = 
REMARK  5 active torsions:
REMARK  status: ('A' for Active; 'I' for Inactive)
REMARK    1  A    between atoms: C_1  and  O_2
REMARK    2  A    between atoms: O_2  and  C_3
REMARK    3  A    between atoms: C_6  and  C_7
REMARK    4  A    between atoms: N_9  and  C_10
REMARK    5  A    between atoms: C_22  and  O_23
REMARK                            x       y       z     vdW  Elec       q    Type
REMARK                         _______ _______ _______ _____ _____    ______ ____
ROOT
ATOM      1  C   UNL     1       3.124   6.174  18.115  0.00  0.00    +0.000 A 
ATOM      2  N   UNL     1       2.450   5.023  18.263  0.00  0.00    +0.000 NA
ATOM      3  N   UNL     1       3.239   4.086  17.701  0.00  0.00    +0.000 N 
ATOM      4  C   UNL     1       4.423   4.596  17.221  0.00  0.00    +0.000 A 
ATOM      5  N   UNL     1       5.419   3.931  16.608  0.00  0.00    +0.000 NA
ATOM      6  C   UNL     1       6.416   4.751  16.244  0.00  0.00    +0.000 A 
ATOM      7  N   UNL     1       6.502   6.083  16.432  0.00  0.00    +0.000 NA
ATOM      8  C   UNL     1       5.490   6.717  17.053  0.00  0.00    +0.000 A 
ATOM      9  N   UNL     1       5.645   8.086  17.226  0.00  0.00    +0.000 N 
ATOM     10  C   UNL     1       4.381   5.965  17.472  0.00  0.00    +0.000 A 
ATOM     11  H   UNL     1       6.606   8.356  17.039  0.00  0.00    +0.000 HD
ATOM     12  H   UNL     1       5.267   8.448  18.093  0.00  0.00    +0.000 HD
ENDROOT
BRANCH   1  16
ATOM     13  C   UNL     1       1.389   9.828  19.526  0.00  0.00    +0.000 A 
ATOM     14  C   UNL     1       1.412   8.684  20.335  0.00  0.00    +0.000 A 
ATOM     15  C   UNL     1       1.984   7.491  19.882  0.00  0.00    +0.000 A 
ATOM     16  C   UNL     1       2.525   7.418  18.593  0.00  0.00    +0.000 A 
ATOM     17  C   UNL     1       2.462   8.543  17.770  0.00  0.00    +0.000 A 
ATOM     18  C   UNL     1       1.934   9.747  18.240  0.00  0.00    +0.000 A 
BRANCH  13  20
ATOM     19  C   UNL     1      -0.580  11.105  19.938  0.00  0.00    +0.000 C 
ATOM     20  O   UNL     1       0.811  10.903  20.137  0.00  0.00    +0.000 OA
ENDBRANCH  13  20
BRANCH  18  21
ATOM     21  O   UNL     1       1.982  10.829  17.404  0.00  0.00    +0.000 OA
ATOM     22  H   UNL     1       2.561  11.508  17.787  0.00  0.00    +0.000 HD
ENDBRANCH  18  21
ENDBRANCH   1  16
BRANCH   3  23
ATOM     23  C   UNL     1       2.860   2.705  17.605  0.00  0.00    +0.000 C 
ATOM     24  C   UNL     1       3.470   1.797  18.708  0.00  0.00    +0.000 C 
ATOM     25  N   UNL     1       2.141   1.150  18.840  0.00  0.00    +0.000 NA
ATOM     26  C   UNL     1       1.538   2.420  18.369  0.00  0.00    +0.000 C 
ATOM     27  H   UNL     1       1.891   0.893  19.792  0.00  0.00    +0.000 HD
ENDBRANCH   3  23
TORSDOF 4
ENDMDL
