MODEL 1
REMARK VINA RESULT:      -7.9      0.000      0.000
REMARK  Name = 
REMARK  5 active torsions:
REMARK  status: ('A' for Active; 'I' for Inactive)
REMARK    1  A    between atoms: C_1  and  N_2
REMARK    2  A    between atoms: N_2  and  C_3
REMARK    3  A    between atoms: C_3  and  C_4
REMARK    4  A    between atoms: N_6  and  C_7
REMARK    5  A    between atoms: C_16  and  C_18
REMARK                            x       y       z     vdW  Elec       q    Type
REMARK                         _______ _______ _______ _____ _____    ______ ____
ROOT
ATOM      1  C   UNL     1      -0.158   8.768  22.611  0.00  0.00    +0.000 C 
ATOM      2  N   UNL     1       0.298   9.388  21.371  0.00  0.00    +0.000 N 
ATOM      3  C   UNL     1      -0.283  10.645  21.115  0.00  0.00    +0.000 C 
ATOM      4  O   UNL     1      -1.142  11.101  21.873  0.00  0.00    +0.000 OA
ENDROOT
BRANCH   3   5
ATOM      5  C   UNL     1       0.220  11.464  19.897  0.00  0.00    +0.000 C 
ATOM      6  C   UNL     1      -0.448  12.841  19.823  0.00  0.00    +0.000 C 
ATOM      7  O   UNL     1      -1.857  12.757  19.579  0.00  0.00    +0.000 OA
ATOM      8  C   UNL     1      -2.169  11.756  18.694  0.00  0.00    +0.000 A 
ATOM      9  C   UNL     1      -3.497  11.672  18.295  0.00  0.00    +0.000 A 
ATOM     10  C   UNL     1      -3.887  10.693  17.380  0.00  0.00    +0.000 A 
ATOM     11  C   UNL     1      -2.942   9.806  16.859  0.00  0.00    +0.000 A 
ATOM     12  C   UNL     1      -1.615   9.877  17.277  0.00  0.00    +0.000 A 
ATOM     13  C   UNL     1      -1.238  10.829  18.219  0.00  0.00    +0.000 A 
ATOM     14  O   UNL     1       0.064  10.786  18.651  0.00  0.00    +0.000 OA
ENDBRANCH   3   5
BRANCH   2  15
ATOM     15  C   UNL     1       1.651   9.064  20.909  0.00  0.00    +0.000 C 
BRANCH  15  16
ATOM     16  C   UNL     1       1.844   7.741  20.152  0.00  0.00    +0.000 C 
ATOM     17  O   UNL     1       1.733   7.709  18.925  0.00  0.00    +0.000 OA
ATOM     18  N   UNL     1       1.959   6.611  20.946  0.00  0.00    +0.000 N 
ATOM     19  H   UNL     1       1.569   6.676  21.881  0.00  0.00    +0.000 HD
BRANCH  18  20
ATOM     20  C   UNL     1       2.068   5.317  20.378  0.00  0.00    +0.000 A 
ATOM     21  C   UNL     1       0.999   4.411  20.407  0.00  0.00    +0.000 A 
ATOM     22  C   UNL     1       1.172   3.106  19.938  0.00  0.00    +0.000 A 
ATOM     23  C   UNL     1       2.416   2.712  19.456  0.00  0.00    +0.000 A 
ATOM     24  F   UNL     1       2.592   1.442  19.065  0.00  0.00    +0.000 F 
ATOM     25  C   UNL     1       3.468   3.618  19.386  0.00  0.00    +0.000 A 
ATOM     26  F   UNL     1       4.666   3.221  18.937  0.00  0.00    +0.000 F 
ATOM     27  C   UNL     1       3.284   4.926  19.816  0.00  0.00    +0.000 A 
ATOM     28  F   UNL     1       4.304   5.798  19.772  0.00  0.00    +0.000 F 
ENDBRANCH  18  20
ENDBRANCH  15  16
ENDBRANCH   2  15
TORSDOF 4
ENDMDL
MODEL 2
REMARK VINA RESULT:      -7.8      1.225      1.648
REMARK  Name = 
REMARK  5 active torsions:
REMARK  status: ('A' for Active; 'I' for Inactive)
REMARK    1  A    between atoms: C_1  and  N_2
REMARK    2  A    between atoms: N_2  and  C_3
REMARK    3  A    between atoms: C_3  and  C_4
REMARK    4  A    between atoms: N_6  and  C_7
REMARK    5  A    between atoms: C_16  and  C_18
REMARK                            x       y       z     vdW  Elec       q    Type
REMARK                         _______ _______ _______ _____ _____    ______ ____
ROOT
ATOM      1  C   UNL     1      -0.172   8.627  22.473  0.00  0.00    +0.000 C 
ATOM      2  N   UNL     1       0.312   9.239  21.241  0.00  0.00    +0.000 N 
ATOM      3  C   UNL     1      -0.298  10.472  20.938  0.00  0.00    +0.000 C 
ATOM      4  O   UNL     1      -1.202  10.911  21.653  0.00  0.00    +0.000 OA
ENDROOT
BRANCH   3   5
ATOM      5  C   UNL     1       0.227  11.285  19.726  0.00  0.00    +0.000 C 
ATOM      6  C   UNL     1      -0.369  12.696  19.688  0.00  0.00    +0.000 C 
ATOM      7  O   UNL     1      -1.785  12.692  19.468  0.00  0.00    +0.000 OA
ATOM      8  C   UNL     1      -2.164  11.725  18.572  0.00  0.00    +0.000 A 
ATOM      9  C   UNL     1      -3.502  11.718  18.195  0.00  0.00    +0.000 A 
ATOM     10  C   UNL     1      -3.958  10.779  17.270  0.00  0.00    +0.000 A 
ATOM     11  C   UNL     1      -3.071   9.853  16.716  0.00  0.00    +0.000 A 
ATOM     12  C   UNL     1      -1.735   9.846  17.112  0.00  0.00    +0.000 A 
ATOM     13  C   UNL     1      -1.291  10.759  18.064  0.00  0.00    +0.000 A 
ATOM     14  O   UNL     1       0.013  10.640  18.470  0.00  0.00    +0.000 OA
ENDBRANCH   3   5
BRANCH   2  15
ATOM     15  C   UNL     1       1.694   8.953  20.839  0.00  0.00    +0.000 C 
BRANCH  15  16
ATOM     16  C   UNL     1       1.919   7.798  19.853  0.00  0.00    +0.000 C 
ATOM     17  O   UNL     1       1.716   7.964  18.648  0.00  0.00    +0.000 OA
ATOM     18  N   UNL     1       2.176   6.563  20.428  0.00  0.00    +0.000 N 
ATOM     19  H   UNL     1       1.858   6.437  21.384  0.00  0.00    +0.000 HD
BRANCH  18  20
ATOM     20  C   UNL     1       2.332   5.398  19.637  0.00  0.00    +0.000 A 
ATOM     21  C   UNL     1       3.391   5.263  18.729  0.00  0.00    +0.000 A 
ATOM     22  C   UNL     1       3.457   4.152  17.885  0.00  0.00    +0.000 A 
ATOM     23  C   UNL     1       2.454   3.189  17.944  0.00  0.00    +0.000 A 
ATOM     24  F   UNL     1       2.489   2.157  17.089  0.00  0.00    +0.000 F 
ATOM     25  C   UNL     1       1.424   3.295  18.871  0.00  0.00    +0.000 A 
ATOM     26  F   UNL     1       0.454   2.371  18.905  0.00  0.00    +0.000 F 
ATOM     27  C   UNL     1       1.382   4.381  19.737  0.00  0.00    +0.000 A 
ATOM     28  F   UNL     1       0.374   4.500  20.617  0.00  0.00    +0.000 F 
ENDBRANCH  18  20
ENDBRANCH  15  16
ENDBRANCH   2  15
TORSDOF 4
ENDMDL
MODEL 3
REMARK VINA RESULT:      -7.7      1.383      1.557
REMARK  Name = 
REMARK  5 active torsions:
REMARK  status: ('A' for Active; 'I' for Inactive)
REMARK    1  A    between atoms: C_1  and  N_2
REMARK    2  A    between atoms: N_2  and  C_3
REMARK    3  A    between atoms: C_3  and  C_4
REMARK    4  A    between atoms: N_6  and  C_7
REMARK    5  A    between atoms: C_16  and  C_18
REMARK                            x       y       z     vdW  Elec       q    Type
REMARK                         _______ _______ _______ _____ _____    ______ ____
ROOT
ATOM      1  C   UNL     1      -0.122   9.520  23.413  0.00  0.00    +0.000 C 
ATOM      2  N   UNL     1       0.434   9.758  22.086  0.00  0.00    +0.000 N 
ATOM      3  C   UNL     1       0.267  11.078  21.626  0.00  0.00    +0.000 C 
ATOM      4  O   UNL     1      -0.359  11.898  22.301  0.00  0.00    +0.000 OA
ENDROOT
BRANCH   3   5
ATOM      5  C   UNL     1       0.933  11.490  20.287  0.00  0.00    +0.000 C 
ATOM      6  C   UNL     1       0.570  12.925  19.889  0.00  0.00    +0.000 C 
ATOM      7  O   UNL     1      -0.826  13.081  19.602  0.00  0.00    +0.000 OA
ATOM      8  C   UNL     1      -1.340  11.996  18.938  0.00  0.00    +0.000 A 
ATOM      9  C   UNL     1      -2.656  12.101  18.503  0.00  0.00    +0.000 A 
ATOM     10  C   UNL     1      -3.242  11.048  17.801  0.00  0.00    +0.000 A 
ATOM     11  C   UNL     1      -2.504   9.894  17.526  0.00  0.00    +0.000 A 
ATOM     12  C   UNL     1      -1.192   9.780  17.981  0.00  0.00    +0.000 A 
ATOM     13  C   UNL     1      -0.624  10.817  18.716  0.00  0.00    +0.000 A 
ATOM     14  O   UNL     1       0.639  10.603  19.207  0.00  0.00    +0.000 OA
ENDBRANCH   3   5
BRANCH   2  15
ATOM     15  C   UNL     1       1.588   8.948  21.679  0.00  0.00    +0.000 C 
BRANCH  15  16
ATOM     16  C   UNL     1       1.305   7.645  20.916  0.00  0.00    +0.000 C 
ATOM     17  O   UNL     1       0.175   7.153  20.931  0.00  0.00    +0.000 OA
ATOM     18  N   UNL     1       2.418   7.007  20.393  0.00  0.00    +0.000 N 
ATOM     19  H   UNL     1       3.308   7.225  20.829  0.00  0.00    +0.000 HD
BRANCH  18  20
ATOM     20  C   UNL     1       2.310   5.760  19.728  0.00  0.00    +0.000 A 
ATOM     21  C   UNL     1       2.202   5.680  18.333  0.00  0.00    +0.000 A 
ATOM     22  C   UNL     1       1.986   4.445  17.715  0.00  0.00    +0.000 A 
ATOM     23  C   UNL     1       1.865   3.301  18.497  0.00  0.00    +0.000 A 
ATOM     24  F   UNL     1       1.596   2.130  17.903  0.00  0.00    +0.000 F 
ATOM     25  C   UNL     1       2.013   3.368  19.878  0.00  0.00    +0.000 A 
ATOM     26  F   UNL     1       1.877   2.262  20.622  0.00  0.00    +0.000 F 
ATOM     27  C   UNL     1       2.267   4.590  20.487  0.00  0.00    +0.000 A 
ATOM     28  F   UNL     1       2.387   4.663  21.823  0.00  0.00    +0.000 F 
ENDBRANCH  18  20
ENDBRANCH  15  16
ENDBRANCH   2  15
TORSDOF 4
ENDMDL
MODEL 4
REMARK VINA RESULT:      -7.4      4.316      8.629
REMARK  Name = 
REMARK  5 active torsions:
REMARK  status: ('A' for Active; 'I' for Inactive)
REMARK    1  A    between atoms: C_1  and  N_2
REMARK    2  A    between atoms: N_2  and  C_3
REMARK    3  A    between atoms: C_3  and  C_4
REMARK    4  A    between atoms: N_6  and  C_7
REMARK    5  A    between atoms: C_16  and  C_18
REMARK                            x       y       z     vdW  Elec       q    Type
REMARK                         _______ _______ _______ _____ _____    ______ ____
ROOT
ATOM      1  C   UNL     1       1.985   7.732  20.254  0.00  0.00    +0.000 C 
ATOM      2  N   UNL     1       2.620   7.386  18.987  0.00  0.00    +0.000 N 
ATOM      3  C   UNL     1       2.931   6.019  18.859  0.00  0.00    +0.000 C 
ATOM      4  O   UNL     1       2.722   5.242  19.794  0.00  0.00    +0.000 OA
ENDROOT
BRANCH   3   5
ATOM      5  C   UNL     1       3.486   5.505  17.505  0.00  0.00    +0.000 C 
ATOM      6  C   UNL     1       4.121   4.117  17.641  0.00  0.00    +0.000 C 
ATOM      7  O   UNL     1       5.288   4.123  18.472  0.00  0.00    +0.000 OA
ATOM      8  C   UNL     1       6.050   5.249  18.283  0.00  0.00    +0.000 A 
ATOM      9  C   UNL     1       7.268   5.294  18.950  0.00  0.00    +0.000 A 
ATOM     10  C   UNL     1       8.107   6.396  18.790  0.00  0.00    +0.000 A 
ATOM     11  C   UNL     1       7.729   7.449  17.953  0.00  0.00    +0.000 A 
ATOM     12  C   UNL     1       6.498   7.413  17.301  0.00  0.00    +0.000 A 
ATOM     13  C   UNL     1       5.646   6.330  17.494  0.00  0.00    +0.000 A 
ATOM     14  O   UNL     1       4.415   6.400  16.893  0.00  0.00    +0.000 OA
ENDBRANCH   3   5
BRANCH   2  15
ATOM     15  C   UNL     1       2.289   8.207  17.817  0.00  0.00    +0.000 C 
BRANCH  15  16
ATOM     16  C   UNL     1       1.431   9.459  18.051  0.00  0.00    +0.000 C 
ATOM     17  O   UNL     1       1.957  10.574  18.073  0.00  0.00    +0.000 OA
ATOM     18  N   UNL     1       0.112   9.221  18.404  0.00  0.00    +0.000 N 
ATOM     19  H   UNL     1      -0.088   8.315  18.815  0.00  0.00    +0.000 HD
BRANCH  18  20
ATOM     20  C   UNL     1      -0.771  10.284  18.719  0.00  0.00    +0.000 A 
ATOM     21  C   UNL     1      -0.700  10.959  19.946  0.00  0.00    +0.000 A 
ATOM     22  C   UNL     1      -1.653  11.927  20.273  0.00  0.00    +0.000 A 
ATOM     23  C   UNL     1      -2.680  12.204  19.376  0.00  0.00    +0.000 A 
ATOM     24  F   UNL     1      -3.626  13.088  19.721  0.00  0.00    +0.000 F 
ATOM     25  C   UNL     1      -2.733  11.568  18.141  0.00  0.00    +0.000 A 
ATOM     26  F   UNL     1      -3.738  11.830  17.294  0.00  0.00    +0.000 F 
ATOM     27  C   UNL     1      -1.762  10.635  17.801  0.00  0.00    +0.000 A 
ATOM     28  F   UNL     1      -1.823  10.001  16.619  0.00  0.00    +0.000 F 
ENDBRANCH  18  20
ENDBRANCH  15  16
ENDBRANCH   2  15
TORSDOF 4
ENDMDL
MODEL 5
REMARK VINA RESULT:      -7.3      5.087      7.862
REMARK  Name = 
REMARK  5 active torsions:
REMARK  status: ('A' for Active; 'I' for Inactive)
REMARK    1  A    between atoms: C_1  and  N_2
REMARK    2  A    between atoms: N_2  and  C_3
REMARK    3  A    between atoms: C_3  and  C_4
REMARK    4  A    between atoms: N_6  and  C_7
REMARK    5  A    between atoms: C_16  and  C_18
REMARK                            x       y       z     vdW  Elec       q    Type
REMARK                         _______ _______ _______ _____ _____    ______ ____
ROOT
ATOM      1  C   UNL     1       7.185   5.532  19.418  0.00  0.00    +0.000 C 
ATOM      2  N   UNL     1       6.086   5.879  18.524  0.00  0.00    +0.000 N 
ATOM      3  C   UNL     1       4.810   5.687  19.087  0.00  0.00    +0.000 C 
ATOM      4  O   UNL     1       4.693   5.203  20.215  0.00  0.00    +0.000 OA
ENDROOT
BRANCH   3   5
ATOM      5  C   UNL     1       3.565   6.146  18.284  0.00  0.00    +0.000 C 
ATOM      6  C   UNL     1       2.547   6.865  19.176  0.00  0.00    +0.000 C 
ATOM      7  O   UNL     1       1.975   6.002  20.166  0.00  0.00    +0.000 OA
ATOM      8  C   UNL     1       1.743   4.740  19.679  0.00  0.00    +0.000 A 
ATOM      9  C   UNL     1       1.076   3.862  20.524  0.00  0.00    +0.000 A 
ATOM     10  C   UNL     1       0.784   2.568  20.091  0.00  0.00    +0.000 A 
ATOM     11  C   UNL     1       1.153   2.160  18.807  0.00  0.00    +0.000 A 
ATOM     12  C   UNL     1       1.842   3.034  17.968  0.00  0.00    +0.000 A 
ATOM     13  C   UNL     1       2.166   4.311  18.419  0.00  0.00    +0.000 A 
ATOM     14  O   UNL     1       2.920   5.087  17.576  0.00  0.00    +0.000 OA
ENDBRANCH   3   5
BRANCH   2  15
ATOM     15  C   UNL     1       6.330   6.926  17.525  0.00  0.00    +0.000 C 
BRANCH  15  16
ATOM     16  C   UNL     1       6.293   6.515  16.046  0.00  0.00    +0.000 C 
ATOM     17  O   UNL     1       5.402   6.942  15.308  0.00  0.00    +0.000 OA
ATOM     18  N   UNL     1       7.191   5.526  15.678  0.00  0.00    +0.000 N 
ATOM     19  H   UNL     1       7.529   4.925  16.423  0.00  0.00    +0.000 HD
BRANCH  18  20
ATOM     20  C   UNL     1       7.214   5.002  14.362  0.00  0.00    +0.000 A 
ATOM     21  C   UNL     1       8.013   5.570  13.360  0.00  0.00    +0.000 A 
ATOM     22  C   UNL     1       7.932   5.101  12.046  0.00  0.00    +0.000 A 
ATOM     23  C   UNL     1       7.042   4.076  11.739  0.00  0.00    +0.000 A 
ATOM     24  F   UNL     1       6.924   3.674  10.467  0.00  0.00    +0.000 F 
ATOM     25  C   UNL     1       6.277   3.481  12.736  0.00  0.00    +0.000 A 
ATOM     26  F   UNL     1       5.410   2.508  12.425  0.00  0.00    +0.000 F 
ATOM     27  C   UNL     1       6.388   3.922  14.049  0.00  0.00    +0.000 A 
ATOM     28  F   UNL     1       5.634   3.365  15.011  0.00  0.00    +0.000 F 
ENDBRANCH  18  20
ENDBRANCH  15  16
ENDBRANCH   2  15
TORSDOF 4
ENDMDL
MODEL 6
REMARK VINA RESULT:      -7.3      3.963      8.581
REMARK  Name = 
REMARK  5 active torsions:
REMARK  status: ('A' for Active; 'I' for Inactive)
REMARK    1  A    between atoms: C_1  and  N_2
REMARK    2  A    between atoms: N_2  and  C_3
REMARK    3  A    between atoms: C_3  and  C_4
REMARK    4  A    between atoms: N_6  and  C_7
REMARK    5  A    between atoms: C_16  and  C_18
REMARK                            x       y       z     vdW  Elec       q    Type
REMARK                         _______ _______ _______ _____ _____    ______ ____
ROOT
ATOM      1  C   UNL     1       2.013   7.498  20.503  0.00  0.00    +0.000 C 
ATOM      2  N   UNL     1       2.587   7.037  19.243  0.00  0.00    +0.000 N 
ATOM      3  C   UNL     1       3.033   5.702  19.274  0.00  0.00    +0.000 C 
ATOM      4  O   UNL     1       2.978   5.051  20.320  0.00  0.00    +0.000 OA
ENDROOT
BRANCH   3   5
ATOM      5  C   UNL     1       3.538   5.055  17.959  0.00  0.00    +0.000 C 
ATOM      6  C   UNL     1       4.351   3.783  18.226  0.00  0.00    +0.000 C 
ATOM      7  O   UNL     1       5.571   4.047  18.930  0.00  0.00    +0.000 OA
ATOM      8  C   UNL     1       6.168   5.209  18.512  0.00  0.00    +0.000 A 
ATOM      9  C   UNL     1       7.420   5.491  19.045  0.00  0.00    +0.000 A 
ATOM     10  C   UNL     1       8.099   6.644  18.650  0.00  0.00    +0.000 A 
ATOM     11  C   UNL     1       7.527   7.508  17.714  0.00  0.00    +0.000 A 
ATOM     12  C   UNL     1       6.261   7.236  17.197  0.00  0.00    +0.000 A 
ATOM     13  C   UNL     1       5.570   6.106  17.622  0.00  0.00    +0.000 A 
ATOM     14  O   UNL     1       4.296   5.946  17.139  0.00  0.00    +0.000 OA
ENDBRANCH   3   5
BRANCH   2  15
ATOM     15  C   UNL     1       2.083   7.645  18.007  0.00  0.00    +0.000 C 
BRANCH  15  16
ATOM     16  C   UNL     1       1.624   9.109  18.074  0.00  0.00    +0.000 C 
ATOM     17  O   UNL     1       2.319   9.998  17.577  0.00  0.00    +0.000 OA
ATOM     18  N   UNL     1       0.512   9.350  18.866  0.00  0.00    +0.000 N 
ATOM     19  H   UNL     1       0.314   8.662  19.585  0.00  0.00    +0.000 HD
BRANCH  18  20
ATOM     20  C   UNL     1       0.025  10.665  19.074  0.00  0.00    +0.000 A 
ATOM     21  C   UNL     1      -0.858  11.272  18.171  0.00  0.00    +0.000 A 
ATOM     22  C   UNL     1      -1.234  12.607  18.345  0.00  0.00    +0.000 A 
ATOM     23  C   UNL     1      -0.713  13.330  19.413  0.00  0.00    +0.000 A 
ATOM     24  F   UNL     1      -1.028  14.626  19.539  0.00  0.00    +0.000 F 
ATOM     25  C   UNL     1       0.132  12.722  20.336  0.00  0.00    +0.000 A 
ATOM     26  F   UNL     1       0.642  13.434  21.349  0.00  0.00    +0.000 F 
ATOM     27  C   UNL     1       0.473  11.384  20.184  0.00  0.00    +0.000 A 
ATOM     28  F   UNL     1       1.307  10.799  21.059  0.00  0.00    +0.000 F 
ENDBRANCH  18  20
ENDBRANCH  15  16
ENDBRANCH   2  15
TORSDOF 4
ENDMDL
MODEL 7
REMARK VINA RESULT:      -7.3      1.009      1.040
REMARK  Name = 
REMARK  5 active torsions:
REMARK  status: ('A' for Active; 'I' for Inactive)
REMARK    1  A    between atoms: C_1  and  N_2
REMARK    2  A    between atoms: N_2  and  C_3
REMARK    3  A    between atoms: C_3  and  C_4
REMARK    4  A    between atoms: N_6  and  C_7
REMARK    5  A    between atoms: C_16  and  C_18
REMARK                            x       y       z     vdW  Elec       q    Type
REMARK                         _______ _______ _______ _____ _____    ______ ____
ROOT
ATOM      1  C   UNL     1       0.228   8.558  21.921  0.00  0.00    +0.000 C 
ATOM      2  N   UNL     1       0.477   9.346  20.719  0.00  0.00    +0.000 N 
ATOM      3  C   UNL     1      -0.211  10.574  20.690  0.00  0.00    +0.000 C 
ATOM      4  O   UNL     1      -0.992  10.872  21.597  0.00  0.00    +0.000 OA
ENDROOT
BRANCH   3   5
ATOM      5  C   UNL     1       0.075  11.560  19.528  0.00  0.00    +0.000 C 
ATOM      6  C   UNL     1      -0.715  12.864  19.682  0.00  0.00    +0.000 C 
ATOM      7  O   UNL     1      -2.131  12.667  19.578  0.00  0.00    +0.000 OA
ATOM      8  C   UNL     1      -2.453  11.737  18.623  0.00  0.00    +0.000 A 
ATOM      9  C   UNL     1      -3.806  11.563  18.358  0.00  0.00    +0.000 A 
ATOM     10  C   UNL     1      -4.212  10.651  17.383  0.00  0.00    +0.000 A 
ATOM     11  C   UNL     1      -3.259   9.921  16.668  0.00  0.00    +0.000 A 
ATOM     12  C   UNL     1      -1.903  10.079  16.950  0.00  0.00    +0.000 A 
ATOM     13  C   UNL     1      -1.505  10.961  17.950  0.00  0.00    +0.000 A 
ATOM     14  O   UNL     1      -0.164  11.004  18.235  0.00  0.00    +0.000 OA
ENDBRANCH   3   5
BRANCH   2  15
ATOM     15  C   UNL     1       1.778   9.184  20.060  0.00  0.00    +0.000 C 
BRANCH  15  16
ATOM     16  C   UNL     1       1.977   7.937  19.185  0.00  0.00    +0.000 C 
ATOM     17  O   UNL     1       1.587   7.933  18.016  0.00  0.00    +0.000 OA
ATOM     18  N   UNL     1       2.440   6.811  19.848  0.00  0.00    +0.000 N 
ATOM     19  H   UNL     1       2.276   6.779  20.849  0.00  0.00    +0.000 HD
BRANCH  18  20
ATOM     20  C   UNL     1       2.600   5.573  19.178  0.00  0.00    +0.000 A 
ATOM     21  C   UNL     1       1.636   4.560  19.268  0.00  0.00    +0.000 A 
ATOM     22  C   UNL     1       1.872   3.311  18.687  0.00  0.00    +0.000 A 
ATOM     23  C   UNL     1       3.077   3.079  18.032  0.00  0.00    +0.000 A 
ATOM     24  F   UNL     1       3.323   1.860  17.531  0.00  0.00    +0.000 F 
ATOM     25  C   UNL     1       4.020   4.092  17.903  0.00  0.00    +0.000 A 
ATOM     26  F   UNL     1       5.184   3.851  17.286  0.00  0.00    +0.000 F 
ATOM     27  C   UNL     1       3.767   5.346  18.447  0.00  0.00    +0.000 A 
ATOM     28  F   UNL     1       4.685   6.320  18.345  0.00  0.00    +0.000 F 
ENDBRANCH  18  20
ENDBRANCH  15  16
ENDBRANCH   2  15
TORSDOF 4
ENDMDL
MODEL 8
REMARK VINA RESULT:      -7.3      3.649      7.902
REMARK  Name = 
REMARK  5 active torsions:
REMARK  status: ('A' for Active; 'I' for Inactive)
REMARK    1  A    between atoms: C_1  and  N_2
REMARK    2  A    between atoms: N_2  and  C_3
REMARK    3  A    between atoms: C_3  and  C_4
REMARK    4  A    between atoms: N_6  and  C_7
REMARK    5  A    between atoms: C_16  and  C_18
REMARK                            x       y       z     vdW  Elec       q    Type
REMARK                         _______ _______ _______ _____ _____    ______ ____
ROOT
ATOM      1  C   UNL     1       1.682   2.559  19.224  0.00  0.00    +0.000 C 
ATOM      2  N   UNL     1       2.879   3.226  19.726  0.00  0.00    +0.000 N 
ATOM      3  C   UNL     1       3.868   3.436  18.746  0.00  0.00    +0.000 C 
ATOM      4  O   UNL     1       3.708   3.014  17.599  0.00  0.00    +0.000 OA
ENDROOT
BRANCH   3   5
ATOM      5  C   UNL     1       5.130   4.254  19.126  0.00  0.00    +0.000 C 
ATOM      6  C   UNL     1       4.861   5.763  19.089  0.00  0.00    +0.000 C 
ATOM      7  O   UNL     1       4.569   6.239  17.770  0.00  0.00    +0.000 OA
ATOM      8  C   UNL     1       5.337   5.620  16.816  0.00  0.00    +0.000 A 
ATOM      9  C   UNL     1       5.219   6.098  15.517  0.00  0.00    +0.000 A 
ATOM     10  C   UNL     1       5.984   5.534  14.496  0.00  0.00    +0.000 A 
ATOM     11  C   UNL     1       6.876   4.497  14.781  0.00  0.00    +0.000 A 
ATOM     12  C   UNL     1       6.977   4.002  16.080  0.00  0.00    +0.000 A 
ATOM     13  C   UNL     1       6.183   4.541  17.088  0.00  0.00    +0.000 A 
ATOM     14  O   UNL     1       6.270   3.950  18.323  0.00  0.00    +0.000 OA
ENDBRANCH   3   5
BRANCH   2  15
ATOM     15  C   UNL     1       2.718   4.144  20.859  0.00  0.00    +0.000 C 
BRANCH  15  16
ATOM     16  C   UNL     1       1.754   5.326  20.681  0.00  0.00    +0.000 C 
ATOM     17  O   UNL     1       0.578   5.124  20.370  0.00  0.00    +0.000 OA
ATOM     18  N   UNL     1       2.338   6.582  20.714  0.00  0.00    +0.000 N 
ATOM     19  H   UNL     1       3.329   6.624  20.499  0.00  0.00    +0.000 HD
BRANCH  18  20
ATOM     20  C   UNL     1       1.577   7.757  20.491  0.00  0.00    +0.000 A 
ATOM     21  C   UNL     1       0.721   8.274  21.473  0.00  0.00    +0.000 A 
ATOM     22  C   UNL     1      -0.098   9.369  21.186  0.00  0.00    +0.000 A 
ATOM     23  C   UNL     1      -0.067   9.930  19.913  0.00  0.00    +0.000 A 
ATOM     24  F   UNL     1      -0.900  10.940  19.625  0.00  0.00    +0.000 F 
ATOM     25  C   UNL     1       0.809   9.448  18.947  0.00  0.00    +0.000 A 
ATOM     26  F   UNL     1       0.816   9.986  17.720  0.00  0.00    +0.000 F 
ATOM     27  C   UNL     1       1.652   8.385  19.247  0.00  0.00    +0.000 A 
ATOM     28  F   UNL     1       2.483   7.901  18.310  0.00  0.00    +0.000 F 
ENDBRANCH  18  20
ENDBRANCH  15  16
ENDBRANCH   2  15
TORSDOF 4
ENDMDL
MODEL 9
REMARK VINA RESULT:      -7.2      5.415      7.700
REMARK  Name = 
REMARK  5 active torsions:
REMARK  status: ('A' for Active; 'I' for Inactive)
REMARK    1  A    between atoms: C_1  and  N_2
REMARK    2  A    between atoms: N_2  and  C_3
REMARK    3  A    between atoms: C_3  and  C_4
REMARK    4  A    between atoms: N_6  and  C_7
REMARK    5  A    between atoms: C_16  and  C_18
REMARK                            x       y       z     vdW  Elec       q    Type
REMARK                         _______ _______ _______ _____ _____    ______ ____
ROOT
ATOM      1  C   UNL     1       7.162   5.534  19.249  0.00  0.00    +0.000 C 
ATOM      2  N   UNL     1       6.032   5.856  18.383  0.00  0.00    +0.000 N 
ATOM      3  C   UNL     1       4.781   5.769  19.023  0.00  0.00    +0.000 C 
ATOM      4  O   UNL     1       4.704   5.386  20.193  0.00  0.00    +0.000 OA
ENDROOT
BRANCH   3   5
ATOM      5  C   UNL     1       3.515   6.216  18.247  0.00  0.00    +0.000 C 
ATOM      6  C   UNL     1       2.508   6.924  19.160  0.00  0.00    +0.000 C 
ATOM      7  O   UNL     1       1.966   6.054  20.162  0.00  0.00    +0.000 OA
ATOM      8  C   UNL     1       1.737   4.790  19.678  0.00  0.00    +0.000 A 
ATOM      9  C   UNL     1       1.096   3.904  20.535  0.00  0.00    +0.000 A 
ATOM     10  C   UNL     1       0.808   2.609  20.107  0.00  0.00    +0.000 A 
ATOM     11  C   UNL     1       1.155   2.205  18.816  0.00  0.00    +0.000 A 
ATOM     12  C   UNL     1       1.817   3.087  17.964  0.00  0.00    +0.000 A 
ATOM     13  C   UNL     1       2.138   4.366  18.409  0.00  0.00    +0.000 A 
ATOM     14  O   UNL     1       2.866   5.151  17.551  0.00  0.00    +0.000 OA
ENDBRANCH   3   5
BRANCH   2  15
ATOM     15  C   UNL     1       6.266   6.804  17.289  0.00  0.00    +0.000 C 
BRANCH  15  16
ATOM     16  C   UNL     1       5.946   6.333  15.863  0.00  0.00    +0.000 C 
ATOM     17  O   UNL     1       5.186   6.992  15.149  0.00  0.00    +0.000 OA
ATOM     18  N   UNL     1       6.412   5.070  15.534  0.00  0.00    +0.000 N 
ATOM     19  H   UNL     1       6.595   4.441  16.310  0.00  0.00    +0.000 HD
BRANCH  18  20
ATOM     20  C   UNL     1       6.125   4.481  14.277  0.00  0.00    +0.000 A 
ATOM     21  C   UNL     1       4.921   3.805  14.040  0.00  0.00    +0.000 A 
ATOM     22  C   UNL     1       4.713   3.141  12.828  0.00  0.00    +0.000 A 
ATOM     23  C   UNL     1       5.718   3.146  11.866  0.00  0.00    +0.000 A 
ATOM     24  F   UNL     1       5.538   2.456  10.731  0.00  0.00    +0.000 F 
ATOM     25  C   UNL     1       6.898   3.849  12.078  0.00  0.00    +0.000 A 
ATOM     26  F   UNL     1       7.866   3.830  11.151  0.00  0.00    +0.000 F 
ATOM     27  C   UNL     1       7.087   4.542  13.267  0.00  0.00    +0.000 A 
ATOM     28  F   UNL     1       8.236   5.202  13.486  0.00  0.00    +0.000 F 
ENDBRANCH  18  20
ENDBRANCH  15  16
ENDBRANCH   2  15
TORSDOF 4
ENDMDL
