MODEL 1
REMARK VINA RESULT:      -8.1      0.000      0.000
REMARK  Name = 
REMARK  6 active torsions:
REMARK  status: ('A' for Active; 'I' for Inactive)
REMARK    1  A    between atoms: C_1  and  C_2
REMARK    2  A    between atoms: C_2  and  C_3
REMARK    3  A    between atoms: C_3  and  N_4
REMARK    4  A    between atoms: N_4  and  C_5
REMARK    5  A    between atoms: C_10  and  O_11
REMARK    6  A    between atoms: C_16  and  C_17
REMARK                            x       y       z     vdW  Elec       q    Type
REMARK                         _______ _______ _______ _____ _____    ______ ____
ROOT
ATOM      1  C   UNL     1       3.223   6.154  17.679  0.00  0.00    +0.000 C 
ATOM      2  C   UNL     1       4.282   5.640  17.001  0.00  0.00    +0.000 C 
ATOM      3  C   UNL     1       5.456   6.479  16.632  0.00  0.00    +0.000 C 
ATOM      4  O   UNL     1       5.345   7.619  16.191  0.00  0.00    +0.000 OA
ATOM      5  C   UNL     1       6.812   5.872  16.875  0.00  0.00    +0.000 C 
ATOM      6  C   UNL     1       6.891   4.454  16.296  0.00  0.00    +0.000 C 
ATOM      7  C   UNL     1       5.808   3.582  16.954  0.00  0.00    +0.000 C 
ATOM      8  C   UNL     1       4.410   4.164  16.800  0.00  0.00    +0.000 C 
ATOM      9  O   UNL     1       3.443   3.438  16.575  0.00  0.00    +0.000 OA
ENDROOT
BRANCH   6  10
ATOM     10  C   UNL     1       6.916   4.462  14.769  0.00  0.00    +0.000 A 
ATOM     11  C   UNL     1       6.061   3.591  14.070  0.00  0.00    +0.000 A 
ATOM     12  C   UNL     1       6.078   3.529  12.675  0.00  0.00    +0.000 A 
ATOM     13  C   UNL     1       6.939   4.343  11.950  0.00  0.00    +0.000 A 
ATOM     14  C   UNL     1       7.775   5.231  12.622  0.00  0.00    +0.000 A 
ATOM     15  C   UNL     1       7.759   5.296  14.017  0.00  0.00    +0.000 A 
ENDBRANCH   6  10
BRANCH   1  17
ATOM     16  C   UNL     1       1.960   8.395  17.794  0.00  0.00    +0.000 C 
ATOM     17  C   UNL     1       3.204   7.604  18.172  0.00  0.00    +0.000 C 
ENDBRANCH   1  17
BRANCH   1  18
ATOM     18  N   UNL     1       2.102   5.436  18.085  0.00  0.00    +0.000 N 
ATOM     19  H   UNL     1       1.657   4.906  17.326  0.00  0.00    +0.000 HD
BRANCH  18  20
ATOM     20  C   UNL     1       2.053   4.603  19.240  0.00  0.00    +0.000 A 
ATOM     21  C   UNL     1       2.550   4.999  20.482  0.00  0.00    +0.000 A 
ATOM     22  C   UNL     1       2.376   4.196  21.620  0.00  0.00    +0.000 A 
ATOM     23  C   UNL     1       1.676   2.995  21.520  0.00  0.00    +0.000 A 
ATOM     24  C   UNL     1       1.191   2.568  20.295  0.00  0.00    +0.000 A 
ATOM     25  C   UNL     1       1.380   3.367  19.158  0.00  0.00    +0.000 A 
BRANCH  25  26
ATOM     26  O   UNL     1       0.901   2.960  17.939  0.00  0.00    +0.000 OA
ATOM     27  H   UNL     1       1.660   2.826  17.342  0.00  0.00    +0.000 HD
ENDBRANCH  25  26
ENDBRANCH  18  20
ENDBRANCH   1  18
TORSDOF 5
ENDMDL
MODEL 2
REMARK VINA RESULT:      -7.6      3.606      7.615
REMARK  Name = 
REMARK  6 active torsions:
REMARK  status: ('A' for Active; 'I' for Inactive)
REMARK    1  A    between atoms: C_1  and  C_2
REMARK    2  A    between atoms: C_2  and  C_3
REMARK    3  A    between atoms: C_3  and  N_4
REMARK    4  A    between atoms: N_4  and  C_5
REMARK    5  A    between atoms: C_10  and  O_11
REMARK    6  A    between atoms: C_16  and  C_17
REMARK                            x       y       z     vdW  Elec       q    Type
REMARK                         _______ _______ _______ _____ _____    ______ ____
ROOT
ATOM      1  C   UNL     1       2.345   7.422  19.189  0.00  0.00    +0.000 C 
ATOM      2  C   UNL     1       1.643   8.572  19.362  0.00  0.00    +0.000 C 
ATOM      3  C   UNL     1       1.254   9.431  18.209  0.00  0.00    +0.000 C 
ATOM      4  O   UNL     1       2.018   9.684  17.282  0.00  0.00    +0.000 OA
ATOM      5  C   UNL     1      -0.162   9.943  18.207  0.00  0.00    +0.000 C 
ATOM      6  C   UNL     1      -0.522  10.569  19.561  0.00  0.00    +0.000 C 
ATOM      7  C   UNL     1      -0.355   9.510  20.664  0.00  0.00    +0.000 C 
ATOM      8  C   UNL     1       1.039   8.901  20.690  0.00  0.00    +0.000 C 
ATOM      9  O   UNL     1       1.601   8.651  21.755  0.00  0.00    +0.000 OA
ENDROOT
BRANCH   6  10
ATOM     10  C   UNL     1       0.201  11.896  19.785  0.00  0.00    +0.000 A 
ATOM     11  C   UNL     1       0.498  12.706  18.675  0.00  0.00    +0.000 A 
ATOM     12  C   UNL     1       1.196  13.907  18.823  0.00  0.00    +0.000 A 
ATOM     13  C   UNL     1       1.598  14.329  20.085  0.00  0.00    +0.000 A 
ATOM     14  C   UNL     1       1.290  13.556  21.200  0.00  0.00    +0.000 A 
ATOM     15  C   UNL     1       0.592  12.355  21.054  0.00  0.00    +0.000 A 
ENDBRANCH   6  10
BRANCH   1  17
ATOM     16  C   UNL     1       4.177   7.055  17.419  0.00  0.00    +0.000 C 
ATOM     17  C   UNL     1       2.712   6.899  17.798  0.00  0.00    +0.000 C 
ENDBRANCH   1  17
BRANCH   1  18
ATOM     18  N   UNL     1       2.725   6.551  20.206  0.00  0.00    +0.000 N 
ATOM     19  H   UNL     1       2.524   6.907  21.149  0.00  0.00    +0.000 HD
BRANCH  18  20
ATOM     20  C   UNL     1       2.421   5.158  20.230  0.00  0.00    +0.000 A 
ATOM     21  C   UNL     1       1.135   4.667  20.460  0.00  0.00    +0.000 A 
ATOM     22  C   UNL     1       0.857   3.296  20.358  0.00  0.00    +0.000 A 
ATOM     23  C   UNL     1       1.869   2.408  19.998  0.00  0.00    +0.000 A 
ATOM     24  C   UNL     1       3.159   2.866  19.786  0.00  0.00    +0.000 A 
ATOM     25  C   UNL     1       3.435   4.236  19.903  0.00  0.00    +0.000 A 
BRANCH  25  26
ATOM     26  O   UNL     1       4.706   4.706  19.691  0.00  0.00    +0.000 OA
ATOM     27  H   UNL     1       4.809   5.542  20.180  0.00  0.00    +0.000 HD
ENDBRANCH  25  26
ENDBRANCH  18  20
ENDBRANCH   1  18
TORSDOF 5
ENDMDL
MODEL 3
REMARK VINA RESULT:      -7.0      1.748      7.065
REMARK  Name = 
REMARK  6 active torsions:
REMARK  status: ('A' for Active; 'I' for Inactive)
REMARK    1  A    between atoms: C_1  and  C_2
REMARK    2  A    between atoms: C_2  and  C_3
REMARK    3  A    between atoms: C_3  and  N_4
REMARK    4  A    between atoms: N_4  and  C_5
REMARK    5  A    between atoms: C_10  and  O_11
REMARK    6  A    between atoms: C_16  and  C_17
REMARK                            x       y       z     vdW  Elec       q    Type
REMARK                         _______ _______ _______ _____ _____    ______ ____
ROOT
ATOM      1  C   UNL     1       5.739   5.355  16.616  0.00  0.00    +0.000 C 
ATOM      2  C   UNL     1       4.594   4.945  17.221  0.00  0.00    +0.000 C 
ATOM      3  C   UNL     1       3.687   5.905  17.909  0.00  0.00    +0.000 C 
ATOM      4  O   UNL     1       4.099   6.807  18.633  0.00  0.00    +0.000 OA
ATOM      5  C   UNL     1       2.215   5.747  17.632  0.00  0.00    +0.000 C 
ATOM      6  C   UNL     1       1.777   4.287  17.807  0.00  0.00    +0.000 C 
ATOM      7  C   UNL     1       2.584   3.402  16.843  0.00  0.00    +0.000 C 
ATOM      8  C   UNL     1       4.087   3.552  17.023  0.00  0.00    +0.000 C 
ATOM      9  O   UNL     1       4.834   2.578  16.953  0.00  0.00    +0.000 OA
ENDROOT
BRANCH   6  10
ATOM     10  C   UNL     1       1.780   3.863  19.275  0.00  0.00    +0.000 A 
ATOM     11  C   UNL     1       2.082   4.819  20.260  0.00  0.00    +0.000 A 
ATOM     12  C   UNL     1       2.141   4.471  21.611  0.00  0.00    +0.000 A 
ATOM     13  C   UNL     1       1.886   3.163  22.006  0.00  0.00    +0.000 A 
ATOM     14  C   UNL     1       1.558   2.207  21.049  0.00  0.00    +0.000 A 
ATOM     15  C   UNL     1       1.499   2.553  19.698  0.00  0.00    +0.000 A 
ENDBRANCH   6  10
BRANCH   1  17
ATOM     16  C   UNL     1       7.356   7.219  17.351  0.00  0.00    +0.000 C 
ATOM     17  C   UNL     1       6.129   6.834  16.538  0.00  0.00    +0.000 C 
ENDBRANCH   1  17
BRANCH   1  18
ATOM     18  N   UNL     1       6.627   4.530  15.931  0.00  0.00    +0.000 N 
ATOM     19  H   UNL     1       6.754   3.609  16.368  0.00  0.00    +0.000 HD
BRANCH  18  20
ATOM     20  C   UNL     1       6.596   4.306  14.523  0.00  0.00    +0.000 A 
ATOM     21  C   UNL     1       5.633   3.507  13.905  0.00  0.00    +0.000 A 
ATOM     22  C   UNL     1       5.566   3.408  12.507  0.00  0.00    +0.000 A 
ATOM     23  C   UNL     1       6.456   4.134  11.717  0.00  0.00    +0.000 A 
ATOM     24  C   UNL     1       7.436   4.917  12.306  0.00  0.00    +0.000 A 
ATOM     25  C   UNL     1       7.507   5.002  13.704  0.00  0.00    +0.000 A 
BRANCH  25  26
ATOM     26  O   UNL     1       8.467   5.777  14.302  0.00  0.00    +0.000 OA
ATOM     27  H   UNL     1       9.151   5.983  13.638  0.00  0.00    +0.000 HD
ENDBRANCH  25  26
ENDBRANCH  18  20
ENDBRANCH   1  18
TORSDOF 5
ENDMDL
MODEL 4
REMARK VINA RESULT:      -6.9      0.947      1.336
REMARK  Name = 
REMARK  6 active torsions:
REMARK  status: ('A' for Active; 'I' for Inactive)
REMARK    1  A    between atoms: C_1  and  C_2
REMARK    2  A    between atoms: C_2  and  C_3
REMARK    3  A    between atoms: C_3  and  N_4
REMARK    4  A    between atoms: N_4  and  C_5
REMARK    5  A    between atoms: C_10  and  O_11
REMARK    6  A    between atoms: C_16  and  C_17
REMARK                            x       y       z     vdW  Elec       q    Type
REMARK                         _______ _______ _______ _____ _____    ______ ____
ROOT
ATOM      1  C   UNL     1       3.133   6.171  17.705  0.00  0.00    +0.000 C 
ATOM      2  C   UNL     1       4.189   5.636  17.041  0.00  0.00    +0.000 C 
ATOM      3  C   UNL     1       5.396   6.445  16.712  0.00  0.00    +0.000 C 
ATOM      4  O   UNL     1       5.330   7.596  16.290  0.00  0.00    +0.000 OA
ATOM      5  C   UNL     1       6.728   5.791  16.972  0.00  0.00    +0.000 C 
ATOM      6  C   UNL     1       6.776   4.382  16.369  0.00  0.00    +0.000 C 
ATOM      7  C   UNL     1       5.652   3.533  16.986  0.00  0.00    +0.000 C 
ATOM      8  C   UNL     1       4.276   4.161  16.814  0.00  0.00    +0.000 C 
ATOM      9  O   UNL     1       3.293   3.470  16.555  0.00  0.00    +0.000 OA
ENDROOT
BRANCH   6  10
ATOM     10  C   UNL     1       6.834   4.417  14.842  0.00  0.00    +0.000 A 
ATOM     11  C   UNL     1       5.975   3.579  14.109  0.00  0.00    +0.000 A 
ATOM     12  C   UNL     1       6.020   3.542  12.714  0.00  0.00    +0.000 A 
ATOM     13  C   UNL     1       6.915   4.349  12.023  0.00  0.00    +0.000 A 
ATOM     14  C   UNL     1       7.756   5.206  12.729  0.00  0.00    +0.000 A 
ATOM     15  C   UNL     1       7.712   5.245  14.124  0.00  0.00    +0.000 A 
ENDBRANCH   6  10
BRANCH   1  17
ATOM     16  C   UNL     1       2.012   8.488  17.719  0.00  0.00    +0.000 C 
ATOM     17  C   UNL     1       3.148   7.611  18.225  0.00  0.00    +0.000 C 
ENDBRANCH   1  17
BRANCH   1  18
ATOM     18  N   UNL     1       1.981   5.481  18.074  0.00  0.00    +0.000 N 
ATOM     19  H   UNL     1       1.503   5.029  17.285  0.00  0.00    +0.000 HD
BRANCH  18  20
ATOM     20  C   UNL     1       1.903   4.569  19.167  0.00  0.00    +0.000 A 
ATOM     21  C   UNL     1       1.671   3.203  18.999  0.00  0.00    +0.000 A 
ATOM     22  C   UNL     1       1.719   2.322  20.090  0.00  0.00    +0.000 A 
ATOM     23  C   UNL     1       2.027   2.808  21.359  0.00  0.00    +0.000 A 
ATOM     24  C   UNL     1       2.241   4.162  21.558  0.00  0.00    +0.000 A 
ATOM     25  C   UNL     1       2.177   5.040  20.467  0.00  0.00    +0.000 A 
BRANCH  25  26
ATOM     26  O   UNL     1       2.391   6.383  20.646  0.00  0.00    +0.000 OA
ATOM     27  H   UNL     1       2.332   6.578  21.598  0.00  0.00    +0.000 HD
ENDBRANCH  25  26
ENDBRANCH  18  20
ENDBRANCH   1  18
TORSDOF 5
ENDMDL
MODEL 5
REMARK VINA RESULT:      -6.8      1.592      2.188
REMARK  Name = 
REMARK  6 active torsions:
REMARK  status: ('A' for Active; 'I' for Inactive)
REMARK    1  A    between atoms: C_1  and  C_2
REMARK    2  A    between atoms: C_2  and  C_3
REMARK    3  A    between atoms: C_3  and  N_4
REMARK    4  A    between atoms: N_4  and  C_5
REMARK    5  A    between atoms: C_10  and  O_11
REMARK    6  A    between atoms: C_16  and  C_17
REMARK                            x       y       z     vdW  Elec       q    Type
REMARK                         _______ _______ _______ _____ _____    ______ ____
ROOT
ATOM      1  C   UNL     1       3.414   6.272  19.035  0.00  0.00    +0.000 C 
ATOM      2  C   UNL     1       4.443   5.993  18.194  0.00  0.00    +0.000 C 
ATOM      3  C   UNL     1       4.850   6.938  17.117  0.00  0.00    +0.000 C 
ATOM      4  O   UNL     1       4.039   7.528  16.410  0.00  0.00    +0.000 OA
ATOM      5  C   UNL     1       6.328   7.179  16.965  0.00  0.00    +0.000 C 
ATOM      6  C   UNL     1       7.099   5.854  16.913  0.00  0.00    +0.000 C 
ATOM      7  C   UNL     1       6.832   5.067  18.207  0.00  0.00    +0.000 C 
ATOM      8  C   UNL     1       5.350   4.835  18.461  0.00  0.00    +0.000 C 
ATOM      9  O   UNL     1       4.945   3.765  18.911  0.00  0.00    +0.000 OA
ENDROOT
BRANCH   6  10
ATOM     10  C   UNL     1       6.855   5.103  15.605  0.00  0.00    +0.000 A 
ATOM     11  C   UNL     1       7.567   5.488  14.455  0.00  0.00    +0.000 A 
ATOM     12  C   UNL     1       7.348   4.862  13.226  0.00  0.00    +0.000 A 
ATOM     13  C   UNL     1       6.422   3.831  13.124  0.00  0.00    +0.000 A 
ATOM     14  C   UNL     1       5.726   3.416  14.256  0.00  0.00    +0.000 A 
ATOM     15  C   UNL     1       5.944   4.040  15.485  0.00  0.00    +0.000 A 
ENDBRANCH   6  10
BRANCH   1  17
ATOM     16  C   UNL     1       1.817   7.916  20.207  0.00  0.00    +0.000 C 
ATOM     17  C   UNL     1       2.660   7.603  18.979  0.00  0.00    +0.000 C 
ENDBRANCH   1  17
BRANCH   1  18
ATOM     18  N   UNL     1       2.987   5.459  20.082  0.00  0.00    +0.000 N 
ATOM     19  H   UNL     1       2.636   5.983  20.892  0.00  0.00    +0.000 HD
BRANCH  18  20
ATOM     20  C   UNL     1       2.127   4.333  19.928  0.00  0.00    +0.000 A 
ATOM     21  C   UNL     1       1.501   4.016  18.722  0.00  0.00    +0.000 A 
ATOM     22  C   UNL     1       0.758   2.834  18.582  0.00  0.00    +0.000 A 
ATOM     23  C   UNL     1       0.659   1.947  19.652  0.00  0.00    +0.000 A 
ATOM     24  C   UNL     1       1.252   2.247  20.868  0.00  0.00    +0.000 A 
ATOM     25  C   UNL     1       1.982   3.436  21.007  0.00  0.00    +0.000 A 
BRANCH  25  26
ATOM     26  O   UNL     1       2.579   3.746  22.202  0.00  0.00    +0.000 OA
ATOM     27  H   UNL     1       3.174   4.505  22.059  0.00  0.00    +0.000 HD
ENDBRANCH  25  26
ENDBRANCH  18  20
ENDBRANCH   1  18
TORSDOF 5
ENDMDL
MODEL 6
REMARK VINA RESULT:      -6.8      8.125     10.921
REMARK  Name = 
REMARK  6 active torsions:
REMARK  status: ('A' for Active; 'I' for Inactive)
REMARK    1  A    between atoms: C_1  and  C_2
REMARK    2  A    between atoms: C_2  and  C_3
REMARK    3  A    between atoms: C_3  and  N_4
REMARK    4  A    between atoms: N_4  and  C_5
REMARK    5  A    between atoms: C_10  and  O_11
REMARK    6  A    between atoms: C_16  and  C_17
REMARK                            x       y       z     vdW  Elec       q    Type
REMARK                         _______ _______ _______ _____ _____    ______ ____
ROOT
ATOM      1  C   UNL     1      -2.879  11.296  17.169  0.00  0.00    +0.000 C 
ATOM      2  C   UNL     1      -2.016  11.396  18.213  0.00  0.00    +0.000 C 
ATOM      3  C   UNL     1      -0.731  10.644  18.240  0.00  0.00    +0.000 C 
ATOM      4  O   UNL     1      -0.640   9.470  17.890  0.00  0.00    +0.000 OA
ATOM      5  C   UNL     1       0.485  11.417  18.677  0.00  0.00    +0.000 C 
ATOM      6  C   UNL     1       0.214  12.174  19.983  0.00  0.00    +0.000 C 
ATOM      7  C   UNL     1      -0.964  13.140  19.768  0.00  0.00    +0.000 C 
ATOM      8  C   UNL     1      -2.217  12.437  19.267  0.00  0.00    +0.000 C 
ATOM      9  O   UNL     1      -3.330  12.758  19.680  0.00  0.00    +0.000 OA
ENDROOT
BRANCH   6  10
ATOM     10  C   UNL     1       0.103  11.230  21.178  0.00  0.00    +0.000 A 
ATOM     11  C   UNL     1       0.998  10.150  21.279  0.00  0.00    +0.000 A 
ATOM     12  C   UNL     1       0.909   9.233  22.328  0.00  0.00    +0.000 A 
ATOM     13  C   UNL     1      -0.067   9.385  23.306  0.00  0.00    +0.000 A 
ATOM     14  C   UNL     1      -0.946  10.463  23.240  0.00  0.00    +0.000 A 
ATOM     15  C   UNL     1      -0.858  11.380  22.191  0.00  0.00    +0.000 A 
ENDBRANCH   6  10
BRANCH   1  17
ATOM     16  C   UNL     1      -3.631  10.463  14.852  0.00  0.00    +0.000 C 
ATOM     17  C   UNL     1      -2.550  10.467  15.924  0.00  0.00    +0.000 C 
ENDBRANCH   1  17
BRANCH   1  18
ATOM     18  N   UNL     1      -4.084  11.982  17.052  0.00  0.00    +0.000 N 
ATOM     19  H   UNL     1      -4.367  12.153  16.079  0.00  0.00    +0.000 HD
BRANCH  18  20
ATOM     20  C   UNL     1      -5.274  11.649  17.764  0.00  0.00    +0.000 A 
ATOM     21  C   UNL     1      -5.486  10.396  18.339  0.00  0.00    +0.000 A 
ATOM     22  C   UNL     1      -6.617  10.148  19.131  0.00  0.00    +0.000 A 
ATOM     23  C   UNL     1      -7.534  11.170  19.371  0.00  0.00    +0.000 A 
ATOM     24  C   UNL     1      -7.358  12.417  18.793  0.00  0.00    +0.000 A 
ATOM     25  C   UNL     1      -6.234  12.656  17.991  0.00  0.00    +0.000 A 
BRANCH  25  26
ATOM     26  O   UNL     1      -6.043  13.887  17.417  0.00  0.00    +0.000 OA
ATOM     27  H   UNL     1      -6.899  14.201  17.075  0.00  0.00    +0.000 HD
ENDBRANCH  25  26
ENDBRANCH  18  20
ENDBRANCH   1  18
TORSDOF 5
ENDMDL
MODEL 7
REMARK VINA RESULT:      -6.8      3.636      7.587
REMARK  Name = 
REMARK  6 active torsions:
REMARK  status: ('A' for Active; 'I' for Inactive)
REMARK    1  A    between atoms: C_1  and  C_2
REMARK    2  A    between atoms: C_2  and  C_3
REMARK    3  A    between atoms: C_3  and  N_4
REMARK    4  A    between atoms: N_4  and  C_5
REMARK    5  A    between atoms: C_10  and  O_11
REMARK    6  A    between atoms: C_16  and  C_17
REMARK                            x       y       z     vdW  Elec       q    Type
REMARK                         _______ _______ _______ _____ _____    ______ ____
ROOT
ATOM      1  C   UNL     1       2.361   7.403  19.159  0.00  0.00    +0.000 C 
ATOM      2  C   UNL     1       1.657   8.549  19.343  0.00  0.00    +0.000 C 
ATOM      3  C   UNL     1       1.276   9.425  18.201  0.00  0.00    +0.000 C 
ATOM      4  O   UNL     1       2.046   9.692  17.283  0.00  0.00    +0.000 OA
ATOM      5  C   UNL     1      -0.140   9.937  18.196  0.00  0.00    +0.000 C 
ATOM      6  C   UNL     1      -0.509  10.543  19.556  0.00  0.00    +0.000 C 
ATOM      7  C   UNL     1      -0.350   9.468  20.645  0.00  0.00    +0.000 C 
ATOM      8  C   UNL     1       1.044   8.859  20.672  0.00  0.00    +0.000 C 
ATOM      9  O   UNL     1       1.599   8.594  21.737  0.00  0.00    +0.000 OA
ENDROOT
BRANCH   6  10
ATOM     10  C   UNL     1       0.211  11.867  19.805  0.00  0.00    +0.000 A 
ATOM     11  C   UNL     1       0.591  12.653  18.703  0.00  0.00    +0.000 A 
ATOM     12  C   UNL     1       1.290  13.849  18.876  0.00  0.00    +0.000 A 
ATOM     13  C   UNL     1       1.612  14.291  20.155  0.00  0.00    +0.000 A 
ATOM     14  C   UNL     1       1.221  13.541  21.260  0.00  0.00    +0.000 A 
ATOM     15  C   UNL     1       0.521  12.345  21.089  0.00  0.00    +0.000 A 
ENDBRANCH   6  10
BRANCH   1  17
ATOM     16  C   UNL     1       4.167   7.200  17.336  0.00  0.00    +0.000 C 
ATOM     17  C   UNL     1       2.738   6.900  17.763  0.00  0.00    +0.000 C 
ENDBRANCH   1  17
BRANCH   1  18
ATOM     18  N   UNL     1       2.734   6.516  20.166  0.00  0.00    +0.000 N 
ATOM     19  H   UNL     1       2.139   6.569  21.001  0.00  0.00    +0.000 HD
BRANCH  18  20
ATOM     20  C   UNL     1       3.015   5.134  19.959  0.00  0.00    +0.000 A 
ATOM     21  C   UNL     1       4.280   4.662  19.608  0.00  0.00    +0.000 A 
ATOM     22  C   UNL     1       4.542   3.286  19.532  0.00  0.00    +0.000 A 
ATOM     23  C   UNL     1       3.535   2.371  19.832  0.00  0.00    +0.000 A 
ATOM     24  C   UNL     1       2.264   2.812  20.163  0.00  0.00    +0.000 A 
ATOM     25  C   UNL     1       2.003   4.189  20.224  0.00  0.00    +0.000 A 
BRANCH  25  26
ATOM     26  O   UNL     1       0.752   4.642  20.555  0.00  0.00    +0.000 OA
ATOM     27  H   UNL     1       0.712   5.596  20.362  0.00  0.00    +0.000 HD
ENDBRANCH  25  26
ENDBRANCH  18  20
ENDBRANCH   1  18
TORSDOF 5
ENDMDL
MODEL 8
REMARK VINA RESULT:      -6.8      3.836      6.500
REMARK  Name = 
REMARK  6 active torsions:
REMARK  status: ('A' for Active; 'I' for Inactive)
REMARK    1  A    between atoms: C_1  and  C_2
REMARK    2  A    between atoms: C_2  and  C_3
REMARK    3  A    between atoms: C_3  and  N_4
REMARK    4  A    between atoms: N_4  and  C_5
REMARK    5  A    between atoms: C_10  and  O_11
REMARK    6  A    between atoms: C_16  and  C_17
REMARK                            x       y       z     vdW  Elec       q    Type
REMARK                         _______ _______ _______ _____ _____    ______ ____
ROOT
ATOM      1  C   UNL     1       1.024   8.986  20.194  0.00  0.00    +0.000 C 
ATOM      2  C   UNL     1       1.875   8.169  19.520  0.00  0.00    +0.000 C 
ATOM      3  C   UNL     1       2.141   6.775  19.971  0.00  0.00    +0.000 C 
ATOM      4  O   UNL     1       2.315   6.480  21.150  0.00  0.00    +0.000 OA
ATOM      5  C   UNL     1       2.137   5.716  18.900  0.00  0.00    +0.000 C 
ATOM      6  C   UNL     1       3.014   6.133  17.713  0.00  0.00    +0.000 C 
ATOM      7  C   UNL     1       2.482   7.455  17.135  0.00  0.00    +0.000 C 
ATOM      8  C   UNL     1       2.400   8.562  18.176  0.00  0.00    +0.000 C 
ATOM      9  O   UNL     1       2.703   9.720  17.895  0.00  0.00    +0.000 OA
ENDROOT
BRANCH   6  10
ATOM     10  C   UNL     1       4.501   6.099  18.061  0.00  0.00    +0.000 A 
ATOM     11  C   UNL     1       5.399   6.858  17.289  0.00  0.00    +0.000 A 
ATOM     12  C   UNL     1       6.772   6.827  17.539  0.00  0.00    +0.000 A 
ATOM     13  C   UNL     1       7.275   6.047  18.574  0.00  0.00    +0.000 A 
ATOM     14  C   UNL     1       6.401   5.309  19.367  0.00  0.00    +0.000 A 
ATOM     15  C   UNL     1       5.027   5.339  19.119  0.00  0.00    +0.000 A 
ENDBRANCH   6  10
BRANCH   1  17
ATOM     16  C   UNL     1       0.447   9.307  22.682  0.00  0.00    +0.000 C 
ATOM     17  C   UNL     1       0.229   8.502  21.409  0.00  0.00    +0.000 C 
ENDBRANCH   1  17
BRANCH   1  18
ATOM     18  N   UNL     1       0.700  10.289  19.827  0.00  0.00    +0.000 N 
ATOM     19  H   UNL     1       1.463  10.783  19.349  0.00  0.00    +0.000 HD
BRANCH  18  20
ATOM     20  C   UNL     1      -0.502  10.663  19.158  0.00  0.00    +0.000 A 
ATOM     21  C   UNL     1      -0.924  10.067  17.969  0.00  0.00    +0.000 A 
ATOM     22  C   UNL     1      -2.170  10.381  17.406  0.00  0.00    +0.000 A 
ATOM     23  C   UNL     1      -3.015  11.282  18.051  0.00  0.00    +0.000 A 
ATOM     24  C   UNL     1      -2.611  11.905  19.221  0.00  0.00    +0.000 A 
ATOM     25  C   UNL     1      -1.359  11.599  19.772  0.00  0.00    +0.000 A 
BRANCH  25  26
ATOM     26  O   UNL     1      -0.947  12.203  20.933  0.00  0.00    +0.000 OA
ATOM     27  H   UNL     1      -1.601  12.884  21.172  0.00  0.00    +0.000 HD
ENDBRANCH  25  26
ENDBRANCH  18  20
ENDBRANCH   1  18
TORSDOF 5
ENDMDL
MODEL 9
REMARK VINA RESULT:      -6.7      3.655      7.751
REMARK  Name = 
REMARK  6 active torsions:
REMARK  status: ('A' for Active; 'I' for Inactive)
REMARK    1  A    between atoms: C_1  and  C_2
REMARK    2  A    between atoms: C_2  and  C_3
REMARK    3  A    between atoms: C_3  and  N_4
REMARK    4  A    between atoms: N_4  and  C_5
REMARK    5  A    between atoms: C_10  and  O_11
REMARK    6  A    between atoms: C_16  and  C_17
REMARK                            x       y       z     vdW  Elec       q    Type
REMARK                         _______ _______ _______ _____ _____    ______ ____
ROOT
ATOM      1  C   UNL     1       2.556   7.559  18.789  0.00  0.00    +0.000 C 
ATOM      2  C   UNL     1       1.779   8.604  19.174  0.00  0.00    +0.000 C 
ATOM      3  C   UNL     1       1.451   9.719  18.242  0.00  0.00    +0.000 C 
ATOM      4  O   UNL     1       2.282  10.225  17.494  0.00  0.00    +0.000 OA
ATOM      5  C   UNL     1       0.016  10.173  18.224  0.00  0.00    +0.000 C 
ATOM      6  C   UNL     1      -0.501  10.418  19.647  0.00  0.00    +0.000 C 
ATOM      7  C   UNL     1      -0.379   9.117  20.457  0.00  0.00    +0.000 C 
ATOM      8  C   UNL     1       1.038   8.562  20.472  0.00  0.00    +0.000 C 
ATOM      9  O   UNL     1       1.512   8.064  21.491  0.00  0.00    +0.000 OA
ENDROOT
BRANCH   6  10
ATOM     10  C   UNL     1       0.123  11.664  20.274  0.00  0.00    +0.000 A 
ATOM     11  C   UNL     1      -0.481  12.229  21.411  0.00  0.00    +0.000 A 
ATOM     12  C   UNL     1       0.025  13.392  21.995  0.00  0.00    +0.000 A 
ATOM     13  C   UNL     1       1.153  14.007  21.462  0.00  0.00    +0.000 A 
ATOM     14  C   UNL     1       1.782  13.448  20.353  0.00  0.00    +0.000 A 
ATOM     15  C   UNL     1       1.277  12.285  19.768  0.00  0.00    +0.000 A 
ENDBRANCH   6  10
BRANCH   1  17
ATOM     16  C   UNL     1       4.520   6.950  17.241  0.00  0.00    +0.000 C 
ATOM     17  C   UNL     1       3.079   7.422  17.357  0.00  0.00    +0.000 C 
ENDBRANCH   1  17
BRANCH   1  18
ATOM     18  N   UNL     1       2.888   6.467  19.586  0.00  0.00    +0.000 N 
ATOM     19  H   UNL     1       3.001   6.703  20.580  0.00  0.00    +0.000 HD
BRANCH  18  20
ATOM     20  C   UNL     1       2.222   5.207  19.546  0.00  0.00    +0.000 A 
ATOM     21  C   UNL     1       1.824   4.598  18.356  0.00  0.00    +0.000 A 
ATOM     22  C   UNL     1       1.278   3.306  18.352  0.00  0.00    +0.000 A 
ATOM     23  C   UNL     1       1.150   2.604  19.550  0.00  0.00    +0.000 A 
ATOM     24  C   UNL     1       1.518   3.194  20.749  0.00  0.00    +0.000 A 
ATOM     25  C   UNL     1       2.050   4.491  20.748  0.00  0.00    +0.000 A 
BRANCH  25  26
ATOM     26  O   UNL     1       2.423   5.086  21.926  0.00  0.00    +0.000 OA
ATOM     27  H   UNL     1       1.694   5.662  22.222  0.00  0.00    +0.000 HD
ENDBRANCH  25  26
ENDBRANCH  18  20
ENDBRANCH   1  18
TORSDOF 5
ENDMDL
