MODEL 1
REMARK VINA RESULT:      -8.2      0.000      0.000
REMARK  Name = 
REMARK  5 active torsions:
REMARK  status: ('A' for Active; 'I' for Inactive)
REMARK    1  A    between atoms: C_1  and  C_2
REMARK    2  A    between atoms: C_5  and  C_6
REMARK    3  A    between atoms: C_6  and  C_7
REMARK    4  A    between atoms: C_6  and  C_8
REMARK    5  A    between atoms: C_9  and  C_10
REMARK                            x       y       z     vdW  Elec       q    Type
REMARK                         _______ _______ _______ _____ _____    ______ ____
ROOT
ATOM      1  C   UNL     1       6.011   3.610  13.020  0.00  0.00    +0.000 C 
ATOM      2  C   UNL     1       6.229   4.373  14.289  0.00  0.00    +0.000 A 
ATOM      3  N   UNL     1       7.362   5.072  14.405  0.00  0.00    +0.000 NA
ATOM      4  C   UNL     1       7.524   5.739  15.560  0.00  0.00    +0.000 A 
ATOM      5  C   UNL     1       6.613   5.760  16.610  0.00  0.00    +0.000 A 
ATOM      6  C   UNL     1       5.457   4.997  16.395  0.00  0.00    +0.000 A 
ATOM      7  N   UNL     1       5.274   4.311  15.236  0.00  0.00    +0.000 NA
ENDROOT
BRANCH   6   8
ATOM      8  C   UNL     1       4.295   4.867  17.326  0.00  0.00    +0.000 A 
ATOM      9  C   UNL     1       3.532   5.995  17.701  0.00  0.00    +0.000 A 
ATOM     10  C   UNL     1       2.496   5.918  18.649  0.00  0.00    +0.000 A 
ATOM     11  C   UNL     1       2.217   4.703  19.263  0.00  0.00    +0.000 A 
ATOM     12  C   UNL     1       2.892   3.558  18.852  0.00  0.00    +0.000 A 
ATOM     13  C   UNL     1       3.889   3.648  17.882  0.00  0.00    +0.000 A 
ATOM     14  O   UNL     1       2.674   2.310  19.371  0.00  0.00    +0.000 OA
ATOM     15  C   UNL     1       1.472   2.267  20.139  0.00  0.00    +0.000 C 
ATOM     16  C   UNL     1       1.368   3.489  21.039  0.00  0.00    +0.000 C 
ATOM     17  O   UNL     1       1.268   4.688  20.256  0.00  0.00    +0.000 OA
ENDBRANCH   6   8
BRANCH   5  18
ATOM     18  C   UNL     1       6.939   6.561  17.859  0.00  0.00    +0.000 C 
ATOM     19  C   UNL     1       7.703   5.693  18.870  0.00  0.00    +0.000 C 
ATOM     20  C   UNL     1       7.757   7.840  17.608  0.00  0.00    +0.000 C 
ENDBRANCH   5  18
TORSDOF 2
ENDMDL
MODEL 2
REMARK VINA RESULT:      -7.8      3.347      5.680
REMARK  Name = 
REMARK  5 active torsions:
REMARK  status: ('A' for Active; 'I' for Inactive)
REMARK    1  A    between atoms: C_1  and  C_2
REMARK    2  A    between atoms: C_5  and  C_6
REMARK    3  A    between atoms: C_6  and  C_7
REMARK    4  A    between atoms: C_6  and  C_8
REMARK    5  A    between atoms: C_9  and  C_10
REMARK                            x       y       z     vdW  Elec       q    Type
REMARK                         _______ _______ _______ _____ _____    ______ ____
ROOT
ATOM      1  C   UNL     1       7.128   5.316  18.836  0.00  0.00    +0.000 C 
ATOM      2  C   UNL     1       5.676   4.980  18.969  0.00  0.00    +0.000 A 
ATOM      3  N   UNL     1       5.346   3.690  19.082  0.00  0.00    +0.000 NA
ATOM      4  C   UNL     1       4.033   3.428  19.194  0.00  0.00    +0.000 A 
ATOM      5  C   UNL     1       3.022   4.381  19.211  0.00  0.00    +0.000 A 
ATOM      6  C   UNL     1       3.466   5.705  19.087  0.00  0.00    +0.000 A 
ATOM      7  N   UNL     1       4.789   5.994  18.968  0.00  0.00    +0.000 NA
ENDROOT
BRANCH   6   8
ATOM      8  C   UNL     1       2.614   6.933  19.114  0.00  0.00    +0.000 A 
ATOM      9  C   UNL     1       2.397   7.695  17.946  0.00  0.00    +0.000 A 
ATOM     10  C   UNL     1       1.680   8.905  17.963  0.00  0.00    +0.000 A 
ATOM     11  C   UNL     1       1.184   9.391  19.166  0.00  0.00    +0.000 A 
ATOM     12  C   UNL     1       1.306   8.622  20.317  0.00  0.00    +0.000 A 
ATOM     13  C   UNL     1       1.985   7.405  20.274  0.00  0.00    +0.000 A 
ATOM     14  O   UNL     1       0.829   8.994  21.545  0.00  0.00    +0.000 OA
ATOM     15  C   UNL     1      -0.074  10.096  21.442  0.00  0.00    +0.000 C 
ATOM     16  C   UNL     1       0.474  11.150  20.492  0.00  0.00    +0.000 C 
ATOM     17  O   UNL     1       0.579  10.625  19.160  0.00  0.00    +0.000 OA
ENDBRANCH   6   8
BRANCH   5  18
ATOM     18  C   UNL     1       1.577   3.929  19.341  0.00  0.00    +0.000 C 
ATOM     19  C   UNL     1       1.330   2.670  18.495  0.00  0.00    +0.000 C 
ATOM     20  C   UNL     1       1.121   3.639  20.781  0.00  0.00    +0.000 C 
ENDBRANCH   5  18
TORSDOF 2
ENDMDL
MODEL 3
REMARK VINA RESULT:      -7.6      3.070      6.377
REMARK  Name = 
REMARK  5 active torsions:
REMARK  status: ('A' for Active; 'I' for Inactive)
REMARK    1  A    between atoms: C_1  and  C_2
REMARK    2  A    between atoms: C_5  and  C_6
REMARK    3  A    between atoms: C_6  and  C_7
REMARK    4  A    between atoms: C_6  and  C_8
REMARK    5  A    between atoms: C_9  and  C_10
REMARK                            x       y       z     vdW  Elec       q    Type
REMARK                         _______ _______ _______ _____ _____    ______ ____
ROOT
ATOM      1  C   UNL     1       1.629   8.587  19.960  0.00  0.00    +0.000 C 
ATOM      2  C   UNL     1       2.016   7.143  20.013  0.00  0.00    +0.000 A 
ATOM      3  N   UNL     1       1.312   6.341  20.819  0.00  0.00    +0.000 NA
ATOM      4  C   UNL     1       1.693   5.053  20.843  0.00  0.00    +0.000 A 
ATOM      5  C   UNL     1       2.733   4.509  20.100  0.00  0.00    +0.000 A 
ATOM      6  C   UNL     1       3.412   5.427  19.286  0.00  0.00    +0.000 A 
ATOM      7  N   UNL     1       3.048   6.735  19.249  0.00  0.00    +0.000 NA
ENDROOT
BRANCH   6   8
ATOM      8  C   UNL     1       4.539   5.120  18.354  0.00  0.00    +0.000 A 
ATOM      9  C   UNL     1       5.882   5.203  18.782  0.00  0.00    +0.000 A 
ATOM     10  C   UNL     1       6.963   5.015  17.901  0.00  0.00    +0.000 A 
ATOM     11  C   UNL     1       6.716   4.763  16.557  0.00  0.00    +0.000 A 
ATOM     12  C   UNL     1       5.407   4.590  16.122  0.00  0.00    +0.000 A 
ATOM     13  C   UNL     1       4.349   4.741  17.019  0.00  0.00    +0.000 A 
ATOM     14  O   UNL     1       5.057   4.311  14.829  0.00  0.00    +0.000 OA
ATOM     15  C   UNL     1       6.189   3.909  14.058  0.00  0.00    +0.000 C 
ATOM     16  C   UNL     1       7.379   4.812  14.341  0.00  0.00    +0.000 C 
ATOM     17  O   UNL     1       7.795   4.687  15.709  0.00  0.00    +0.000 OA
ENDBRANCH   6   8
BRANCH   5  18
ATOM     18  C   UNL     1       3.048   3.029  20.238  0.00  0.00    +0.000 C 
ATOM     19  C   UNL     1       2.564   2.500  21.596  0.00  0.00    +0.000 C 
ATOM     20  C   UNL     1       2.451   2.139  19.134  0.00  0.00    +0.000 C 
ENDBRANCH   5  18
TORSDOF 2
ENDMDL
MODEL 4
REMARK VINA RESULT:      -7.5      0.904      1.669
REMARK  Name = 
REMARK  5 active torsions:
REMARK  status: ('A' for Active; 'I' for Inactive)
REMARK    1  A    between atoms: C_1  and  C_2
REMARK    2  A    between atoms: C_5  and  C_6
REMARK    3  A    between atoms: C_6  and  C_7
REMARK    4  A    between atoms: C_6  and  C_8
REMARK    5  A    between atoms: C_9  and  C_10
REMARK                            x       y       z     vdW  Elec       q    Type
REMARK                         _______ _______ _______ _____ _____    ______ ____
ROOT
ATOM      1  C   UNL     1       6.186   3.554  12.803  0.00  0.00    +0.000 C 
ATOM      2  C   UNL     1       6.367   4.260  14.110  0.00  0.00    +0.000 A 
ATOM      3  N   UNL     1       7.335   5.179  14.190  0.00  0.00    +0.000 NA
ATOM      4  C   UNL     1       7.470   5.787  15.380  0.00  0.00    +0.000 A 
ATOM      5  C   UNL     1       6.686   5.542  16.501  0.00  0.00    +0.000 A 
ATOM      6  C   UNL     1       5.699   4.563  16.320  0.00  0.00    +0.000 A 
ATOM      7  N   UNL     1       5.547   3.931  15.126  0.00  0.00    +0.000 NA
ENDROOT
BRANCH   6   8
ATOM      8  C   UNL     1       4.690   4.123  17.331  0.00  0.00    +0.000 A 
ATOM      9  C   UNL     1       4.287   2.773  17.419  0.00  0.00    +0.000 A 
ATOM     10  C   UNL     1       3.271   2.350  18.295  0.00  0.00    +0.000 A 
ATOM     11  C   UNL     1       2.616   3.284  19.088  0.00  0.00    +0.000 A 
ATOM     12  C   UNL     1       3.047   4.605  19.087  0.00  0.00    +0.000 A 
ATOM     13  C   UNL     1       4.084   4.999  18.242  0.00  0.00    +0.000 A 
ATOM     14  O   UNL     1       2.491   5.596  19.850  0.00  0.00    +0.000 OA
ATOM     15  C   UNL     1       1.643   5.059  20.865  0.00  0.00    +0.000 C 
ATOM     16  C   UNL     1       0.762   3.956  20.299  0.00  0.00    +0.000 C 
ATOM     17  O   UNL     1       1.560   2.849  19.854  0.00  0.00    +0.000 OA
ENDBRANCH   6   8
BRANCH   5  18
ATOM     18  C   UNL     1       6.962   6.310  17.782  0.00  0.00    +0.000 C 
ATOM     19  C   UNL     1       7.816   5.466  18.741  0.00  0.00    +0.000 C 
ATOM     20  C   UNL     1       7.660   7.666  17.582  0.00  0.00    +0.000 C 
ENDBRANCH   5  18
TORSDOF 2
ENDMDL
MODEL 5
REMARK VINA RESULT:      -7.2      3.610      5.693
REMARK  Name = 
REMARK  5 active torsions:
REMARK  status: ('A' for Active; 'I' for Inactive)
REMARK    1  A    between atoms: C_1  and  C_2
REMARK    2  A    between atoms: C_5  and  C_6
REMARK    3  A    between atoms: C_6  and  C_7
REMARK    4  A    between atoms: C_6  and  C_8
REMARK    5  A    between atoms: C_9  and  C_10
REMARK                            x       y       z     vdW  Elec       q    Type
REMARK                         _______ _______ _______ _____ _____    ______ ____
ROOT
ATOM      1  C   UNL     1       2.078   2.728  21.516  0.00  0.00    +0.000 C 
ATOM      2  C   UNL     1       2.837   3.598  20.564  0.00  0.00    +0.000 A 
ATOM      3  N   UNL     1       3.933   3.087  19.996  0.00  0.00    +0.000 NA
ATOM      4  C   UNL     1       4.590   3.900  19.151  0.00  0.00    +0.000 A 
ATOM      5  C   UNL     1       4.212   5.198  18.829  0.00  0.00    +0.000 A 
ATOM      6  C   UNL     1       3.050   5.645  19.475  0.00  0.00    +0.000 A 
ATOM      7  N   UNL     1       2.372   4.842  20.337  0.00  0.00    +0.000 NA
ENDROOT
BRANCH   6   8
ATOM      8  C   UNL     1       2.390   6.973  19.292  0.00  0.00    +0.000 A 
ATOM      9  C   UNL     1       2.320   7.583  18.021  0.00  0.00    +0.000 A 
ATOM     10  C   UNL     1       1.791   8.873  17.836  0.00  0.00    +0.000 A 
ATOM     11  C   UNL     1       1.340   9.593  18.936  0.00  0.00    +0.000 A 
ATOM     12  C   UNL     1       1.316   8.988  20.187  0.00  0.00    +0.000 A 
ATOM     13  C   UNL     1       1.808   7.692  20.344  0.00  0.00    +0.000 A 
ATOM     14  O   UNL     1       0.866   9.597  21.328  0.00  0.00    +0.000 OA
ATOM     15  C   UNL     1       0.141  10.790  21.030  0.00  0.00    +0.000 C 
ATOM     16  C   UNL     1       0.865  11.607  19.971  0.00  0.00    +0.000 C 
ATOM     17  O   UNL     1       0.926  10.887  18.731  0.00  0.00    +0.000 OA
ENDBRANCH   6   8
BRANCH   5  18
ATOM     18  C   UNL     1       5.061   5.999  17.857  0.00  0.00    +0.000 C 
ATOM     19  C   UNL     1       6.538   5.964  18.278  0.00  0.00    +0.000 C 
ATOM     20  C   UNL     1       4.968   5.539  16.392  0.00  0.00    +0.000 C 
ENDBRANCH   5  18
TORSDOF 2
ENDMDL
MODEL 6
REMARK VINA RESULT:      -7.1      3.038      5.463
REMARK  Name = 
REMARK  5 active torsions:
REMARK  status: ('A' for Active; 'I' for Inactive)
REMARK    1  A    between atoms: C_1  and  C_2
REMARK    2  A    between atoms: C_5  and  C_6
REMARK    3  A    between atoms: C_6  and  C_7
REMARK    4  A    between atoms: C_6  and  C_8
REMARK    5  A    between atoms: C_9  and  C_10
REMARK                            x       y       z     vdW  Elec       q    Type
REMARK                         _______ _______ _______ _____ _____    ______ ____
ROOT
ATOM      1  C   UNL     1       5.553   4.795  15.697  0.00  0.00    +0.000 C 
ATOM      2  C   UNL     1       4.545   4.508  16.764  0.00  0.00    +0.000 A 
ATOM      3  N   UNL     1       4.288   3.227  17.046  0.00  0.00    +0.000 NA
ATOM      4  C   UNL     1       3.374   3.009  18.006  0.00  0.00    +0.000 A 
ATOM      5  C   UNL     1       2.702   3.997  18.715  0.00  0.00    +0.000 A 
ATOM      6  C   UNL     1       3.038   5.308  18.349  0.00  0.00    +0.000 A 
ATOM      7  N   UNL     1       3.956   5.553  17.377  0.00  0.00    +0.000 NA
ENDROOT
BRANCH   6   8
ATOM      8  C   UNL     1       2.509   6.564  18.964  0.00  0.00    +0.000 A 
ATOM      9  C   UNL     1       2.104   6.598  20.316  0.00  0.00    +0.000 A 
ATOM     10  C   UNL     1       1.514   7.737  20.893  0.00  0.00    +0.000 A 
ATOM     11  C   UNL     1       1.293   8.865  20.113  0.00  0.00    +0.000 A 
ATOM     12  C   UNL     1       1.757   8.892  18.803  0.00  0.00    +0.000 A 
ATOM     13  C   UNL     1       2.377   7.767  18.260  0.00  0.00    +0.000 A 
ATOM     14  O   UNL     1       1.617   9.961  17.959  0.00  0.00    +0.000 OA
ATOM     15  C   UNL     1       1.230  11.138  18.669  0.00  0.00    +0.000 C 
ATOM     16  C   UNL     1       0.137  10.821  19.677  0.00  0.00    +0.000 C 
ATOM     17  O   UNL     1       0.621   9.919  20.683  0.00  0.00    +0.000 OA
ENDBRANCH   6   8
BRANCH   5  18
ATOM     18  C   UNL     1       1.690   3.594  19.773  0.00  0.00    +0.000 C 
ATOM     19  C   UNL     1       0.630   2.656  19.174  0.00  0.00    +0.000 C 
ATOM     20  C   UNL     1       2.292   2.909  21.013  0.00  0.00    +0.000 C 
ENDBRANCH   5  18
TORSDOF 2
ENDMDL
MODEL 7
REMARK VINA RESULT:      -6.9      3.046      6.162
REMARK  Name = 
REMARK  5 active torsions:
REMARK  status: ('A' for Active; 'I' for Inactive)
REMARK    1  A    between atoms: C_1  and  C_2
REMARK    2  A    between atoms: C_5  and  C_6
REMARK    3  A    between atoms: C_6  and  C_7
REMARK    4  A    between atoms: C_6  and  C_8
REMARK    5  A    between atoms: C_9  and  C_10
REMARK                            x       y       z     vdW  Elec       q    Type
REMARK                         _______ _______ _______ _____ _____    ______ ____
ROOT
ATOM      1  C   UNL     1       2.162   2.211  21.444  0.00  0.00    +0.000 C 
ATOM      2  C   UNL     1       2.323   3.550  20.797  0.00  0.00    +0.000 A 
ATOM      3  N   UNL     1       1.505   4.531  21.191  0.00  0.00    +0.000 NA
ATOM      4  C   UNL     1       1.677   5.718  20.583  0.00  0.00    +0.000 A 
ATOM      5  C   UNL     1       2.627   5.989  19.607  0.00  0.00    +0.000 A 
ATOM      6  C   UNL     1       3.437   4.898  19.260  0.00  0.00    +0.000 A 
ATOM      7  N   UNL     1       3.278   3.688  19.858  0.00  0.00    +0.000 NA
ENDROOT
BRANCH   6   8
ATOM      8  C   UNL     1       4.563   4.907  18.277  0.00  0.00    +0.000 A 
ATOM      9  C   UNL     1       5.814   5.472  18.607  0.00  0.00    +0.000 A 
ATOM     10  C   UNL     1       6.858   5.580  17.670  0.00  0.00    +0.000 A 
ATOM     11  C   UNL     1       6.658   5.143  16.367  0.00  0.00    +0.000 A 
ATOM     12  C   UNL     1       5.468   4.504  16.034  0.00  0.00    +0.000 A 
ATOM     13  C   UNL     1       4.459   4.370  16.987  0.00  0.00    +0.000 A 
ATOM     14  O   UNL     1       5.182   4.012  14.789  0.00  0.00    +0.000 OA
ATOM     15  C   UNL     1       6.351   3.945  13.973  0.00  0.00    +0.000 C 
ATOM     16  C   UNL     1       7.175   5.216  14.113  0.00  0.00    +0.000 C 
ATOM     17  O   UNL     1       7.663   5.358  15.455  0.00  0.00    +0.000 OA
ENDBRANCH   6   8
BRANCH   5  18
ATOM     18  C   UNL     1       2.698   7.384  19.008  0.00  0.00    +0.000 C 
ATOM     19  C   UNL     1       2.292   7.354  17.526  0.00  0.00    +0.000 C 
ATOM     20  C   UNL     1       1.832   8.436  19.722  0.00  0.00    +0.000 C 
ENDBRANCH   5  18
TORSDOF 2
ENDMDL
MODEL 8
REMARK VINA RESULT:      -6.9      3.363      5.304
REMARK  Name = 
REMARK  5 active torsions:
REMARK  status: ('A' for Active; 'I' for Inactive)
REMARK    1  A    between atoms: C_1  and  C_2
REMARK    2  A    between atoms: C_5  and  C_6
REMARK    3  A    between atoms: C_6  and  C_7
REMARK    4  A    between atoms: C_6  and  C_8
REMARK    5  A    between atoms: C_9  and  C_10
REMARK                            x       y       z     vdW  Elec       q    Type
REMARK                         _______ _______ _______ _____ _____    ______ ____
ROOT
ATOM      1  C   UNL     1       1.080   2.102  18.633  0.00  0.00    +0.000 C 
ATOM      2  C   UNL     1       2.076   3.184  18.358  0.00  0.00    +0.000 A 
ATOM      3  N   UNL     1       3.163   2.861  17.651  0.00  0.00    +0.000 NA
ATOM      4  C   UNL     1       4.036   3.859  17.429  0.00  0.00    +0.000 A 
ATOM      5  C   UNL     1       3.885   5.169  17.864  0.00  0.00    +0.000 A 
ATOM      6  C   UNL     1       2.715   5.410  18.597  0.00  0.00    +0.000 A 
ATOM      7  N   UNL     1       1.820   4.416  18.837  0.00  0.00    +0.000 NA
ENDROOT
BRANCH   6   8
ATOM      8  C   UNL     1       2.271   6.725  19.152  0.00  0.00    +0.000 A 
ATOM      9  C   UNL     1       1.846   6.844  20.493  0.00  0.00    +0.000 A 
ATOM     10  C   UNL     1       1.333   8.046  21.013  0.00  0.00    +0.000 A 
ATOM     11  C   UNL     1       1.211   9.155  20.185  0.00  0.00    +0.000 A 
ATOM     12  C   UNL     1       1.699   9.095  18.885  0.00  0.00    +0.000 A 
ATOM     13  C   UNL     1       2.242   7.906  18.398  0.00  0.00    +0.000 A 
ATOM     14  O   UNL     1       1.654  10.136  17.997  0.00  0.00    +0.000 OA
ATOM     15  C   UNL     1       1.345  11.366  18.653  0.00  0.00    +0.000 C 
ATOM     16  C   UNL     1       0.212  11.172  19.649  0.00  0.00    +0.000 C 
ATOM     17  O   UNL     1       0.610  10.278  20.700  0.00  0.00    +0.000 OA
ENDBRANCH   6   8
BRANCH   5  18
ATOM     18  C   UNL     1       4.964   6.189  17.537  0.00  0.00    +0.000 C 
ATOM     19  C   UNL     1       6.347   5.656  17.942  0.00  0.00    +0.000 C 
ATOM     20  C   UNL     1       5.024   6.610  16.059  0.00  0.00    +0.000 C 
ENDBRANCH   5  18
TORSDOF 2
ENDMDL
MODEL 9
REMARK VINA RESULT:      -6.9      2.969      5.308
REMARK  Name = 
REMARK  5 active torsions:
REMARK  status: ('A' for Active; 'I' for Inactive)
REMARK    1  A    between atoms: C_1  and  C_2
REMARK    2  A    between atoms: C_5  and  C_6
REMARK    3  A    between atoms: C_6  and  C_7
REMARK    4  A    between atoms: C_6  and  C_8
REMARK    5  A    between atoms: C_9  and  C_10
REMARK                            x       y       z     vdW  Elec       q    Type
REMARK                         _______ _______ _______ _____ _____    ______ ____
ROOT
ATOM      1  C   UNL     1       5.316   4.179  15.826  0.00  0.00    +0.000 C 
ATOM      2  C   UNL     1       4.448   4.131  17.044  0.00  0.00    +0.000 A 
ATOM      3  N   UNL     1       4.371   2.972  17.705  0.00  0.00    +0.000 NA
ATOM      4  C   UNL     1       3.579   2.967  18.791  0.00  0.00    +0.000 A 
ATOM      5  C   UNL     1       2.862   4.057  19.266  0.00  0.00    +0.000 A 
ATOM      6  C   UNL     1       3.005   5.227  18.506  0.00  0.00    +0.000 A 
ATOM      7  N   UNL     1       3.798   5.254  17.402  0.00  0.00    +0.000 NA
ENDROOT
BRANCH   6   8
ATOM      8  C   UNL     1       2.389   6.556  18.800  0.00  0.00    +0.000 A 
ATOM      9  C   UNL     1       2.188   7.508  17.777  0.00  0.00    +0.000 A 
ATOM     10  C   UNL     1       1.700   8.801  18.041  0.00  0.00    +0.000 A 
ATOM     11  C   UNL     1       1.425   9.176  19.351  0.00  0.00    +0.000 A 
ATOM     12  C   UNL     1       1.531   8.235  20.368  0.00  0.00    +0.000 A 
ATOM     13  C   UNL     1       1.978   6.946  20.082  0.00  0.00    +0.000 A 
ATOM     14  O   UNL     1       1.258   8.492  21.685  0.00  0.00    +0.000 OA
ATOM     15  C   UNL     1       0.557   9.726  21.841  0.00  0.00    +0.000 C 
ATOM     16  C   UNL     1       1.178  10.809  20.972  0.00  0.00    +0.000 C 
ATOM     17  O   UNL     1       1.049  10.477  19.581  0.00  0.00    +0.000 OA
ENDBRANCH   6   8
BRANCH   5  18
ATOM     18  C   UNL     1       2.003   3.896  20.509  0.00  0.00    +0.000 C 
ATOM     19  C   UNL     1       0.572   3.491  20.124  0.00  0.00    +0.000 C 
ATOM     20  C   UNL     1       2.534   2.875  21.530  0.00  0.00    +0.000 C 
ENDBRANCH   5  18
TORSDOF 2
ENDMDL
