MODEL 1
REMARK VINA RESULT:      -6.7      0.000      0.000
REMARK  Name = 
REMARK  4 active torsions:
REMARK  status: ('A' for Active; 'I' for Inactive)
REMARK    1  A    between atoms: C_1  and  C_2
REMARK    2  A    between atoms: C_5  and  C_7
REMARK    3  A    between atoms: N_12  and  C_13
REMARK    4  A    between atoms: C_15  and  C_16
REMARK                            x       y       z     vdW  Elec       q    Type
REMARK                         _______ _______ _______ _____ _____    ______ ____
ROOT
ATOM      1  C   UNL     1       6.832   7.533  17.278  0.00  0.00    +0.000 C 
ATOM      2  C   UNL     1       7.629   6.237  17.138  0.00  0.00    +0.000 C 
ATOM      3  C   UNL     1       7.204   5.162  18.160  0.00  0.00    +0.000 C 
ATOM      4  N   UNL     1       5.888   4.603  17.822  0.00  0.00    +0.000 N 
ATOM      5  C   UNL     1       4.836   4.729  18.724  0.00  0.00    +0.000 C 
ATOM      6  O   UNL     1       4.999   5.333  19.783  0.00  0.00    +0.000 OA
ATOM      7  C   UNL     1       5.815   4.128  16.440  0.00  0.00    +0.000 C 
ATOM      8  C   UNL     1       6.277   5.200  15.444  0.00  0.00    +0.000 C 
ATOM      9  C   UNL     1       6.364   4.597  14.046  0.00  0.00    +0.000 C 
ATOM     10  O   UNL     1       7.568   5.724  15.792  0.00  0.00    +0.000 OA
ENDROOT
BRANCH   5  11
ATOM     11  C   UNL     1       3.533   4.217  18.368  0.00  0.00    +0.000 A 
ATOM     12  C   UNL     1       2.985   2.953  18.322  0.00  0.00    +0.000 A 
ATOM     13 BR   UNL     1       3.682   1.294  18.857  0.00  0.00    +0.000 Br
ATOM     14  C   UNL     1       1.694   3.096  17.793  0.00  0.00    +0.000 A 
ATOM     15  N   UNL     1       1.378   4.376  17.615  0.00  0.00    +0.000 NA
ATOM     16  N   UNL     1       2.458   5.037  18.084  0.00  0.00    +0.000 N 
ATOM     17  C   UNL     1       2.382   6.473  18.249  0.00  0.00    +0.000 C 
ENDBRANCH   5  11
TORSDOF 1
ENDMDL
MODEL 2
REMARK VINA RESULT:      -6.5      1.722      2.109
REMARK  Name = 
REMARK  4 active torsions:
REMARK  status: ('A' for Active; 'I' for Inactive)
REMARK    1  A    between atoms: C_1  and  C_2
REMARK    2  A    between atoms: C_5  and  C_7
REMARK    3  A    between atoms: N_12  and  C_13
REMARK    4  A    between atoms: C_15  and  C_16
REMARK                            x       y       z     vdW  Elec       q    Type
REMARK                         _______ _______ _______ _____ _____    ______ ____
ROOT
ATOM      1  C   UNL     1       7.095   7.187  17.360  0.00  0.00    +0.000 C 
ATOM      2  C   UNL     1       7.660   5.826  16.955  0.00  0.00    +0.000 C 
ATOM      3  C   UNL     1       7.273   4.704  17.940  0.00  0.00    +0.000 C 
ATOM      4  N   UNL     1       5.852   4.355  17.811  0.00  0.00    +0.000 N 
ATOM      5  C   UNL     1       5.005   4.508  18.905  0.00  0.00    +0.000 C 
ATOM      6  O   UNL     1       5.437   4.962  19.963  0.00  0.00    +0.000 OA
ATOM      7  C   UNL     1       5.468   4.053  16.432  0.00  0.00    +0.000 C 
ATOM      8  C   UNL     1       5.895   5.166  15.465  0.00  0.00    +0.000 C 
ATOM      9  C   UNL     1       5.646   4.720  14.028  0.00  0.00    +0.000 C 
ATOM     10  O   UNL     1       7.289   5.481  15.606  0.00  0.00    +0.000 OA
ENDROOT
BRANCH   5  11
ATOM     11  C   UNL     1       3.599   4.207  18.759  0.00  0.00    +0.000 A 
ATOM     12  C   UNL     1       2.486   4.967  18.472  0.00  0.00    +0.000 A 
ATOM     13 BR   UNL     1       2.326   6.775  17.990  0.00  0.00    +0.000 Br
ATOM     14  C   UNL     1       1.380   4.111  18.572  0.00  0.00    +0.000 A 
ATOM     15  N   UNL     1       1.754   2.854  18.795  0.00  0.00    +0.000 NA
ATOM     16  N   UNL     1       3.103   2.918  18.781  0.00  0.00    +0.000 N 
ATOM     17  C   UNL     1       3.862   1.686  18.777  0.00  0.00    +0.000 C 
ENDBRANCH   5  11
TORSDOF 1
ENDMDL
MODEL 3
REMARK VINA RESULT:      -6.4      2.472      3.484
REMARK  Name = 
REMARK  4 active torsions:
REMARK  status: ('A' for Active; 'I' for Inactive)
REMARK    1  A    between atoms: C_1  and  C_2
REMARK    2  A    between atoms: C_5  and  C_7
REMARK    3  A    between atoms: N_12  and  C_13
REMARK    4  A    between atoms: C_15  and  C_16
REMARK                            x       y       z     vdW  Elec       q    Type
REMARK                         _______ _______ _______ _____ _____    ______ ____
ROOT
ATOM      1  C   UNL     1       6.144   3.879  15.723  0.00  0.00    +0.000 C 
ATOM      2  C   UNL     1       6.154   5.369  16.061  0.00  0.00    +0.000 C 
ATOM      3  C   UNL     1       4.771   5.889  16.504  0.00  0.00    +0.000 C 
ATOM      4  N   UNL     1       4.430   5.401  17.848  0.00  0.00    +0.000 N 
ATOM      5  C   UNL     1       3.298   4.611  18.024  0.00  0.00    +0.000 C 
ATOM      6  O   UNL     1       2.606   4.297  17.057  0.00  0.00    +0.000 OA
ATOM      7  C   UNL     1       5.478   5.675  18.831  0.00  0.00    +0.000 C 
ATOM      8  C   UNL     1       6.851   5.182  18.352  0.00  0.00    +0.000 C 
ATOM      9  C   UNL     1       7.931   5.659  19.318  0.00  0.00    +0.000 C 
ATOM     10  O   UNL     1       7.163   5.680  17.042  0.00  0.00    +0.000 OA
ENDROOT
BRANCH   5  11
ATOM     11  C   UNL     1       2.992   4.097  19.339  0.00  0.00    +0.000 A 
ATOM     12  C   UNL     1       2.377   4.630  20.452  0.00  0.00    +0.000 A 
ATOM     13 BR   UNL     1       1.515   6.278  20.706  0.00  0.00    +0.000 Br
ATOM     14  C   UNL     1       2.471   3.662  21.463  0.00  0.00    +0.000 A 
ATOM     15  N   UNL     1       3.005   2.531  21.008  0.00  0.00    +0.000 NA
ATOM     16  N   UNL     1       3.197   2.778  19.694  0.00  0.00    +0.000 N 
ATOM     17  C   UNL     1       3.570   1.683  18.824  0.00  0.00    +0.000 C 
ENDBRANCH   5  11
TORSDOF 1
ENDMDL
MODEL 4
REMARK VINA RESULT:      -6.3      2.059      2.991
REMARK  Name = 
REMARK  4 active torsions:
REMARK  status: ('A' for Active; 'I' for Inactive)
REMARK    1  A    between atoms: C_1  and  C_2
REMARK    2  A    between atoms: C_5  and  C_7
REMARK    3  A    between atoms: N_12  and  C_13
REMARK    4  A    between atoms: C_15  and  C_16
REMARK                            x       y       z     vdW  Elec       q    Type
REMARK                         _______ _______ _______ _____ _____    ______ ____
ROOT
ATOM      1  C   UNL     1       5.919   3.965  15.790  0.00  0.00    +0.000 C 
ATOM      2  C   UNL     1       5.922   5.436  16.200  0.00  0.00    +0.000 C 
ATOM      3  C   UNL     1       4.553   5.910  16.732  0.00  0.00    +0.000 C 
ATOM      4  N   UNL     1       4.283   5.352  18.065  0.00  0.00    +0.000 N 
ATOM      5  C   UNL     1       3.173   4.534  18.254  0.00  0.00    +0.000 C 
ATOM      6  O   UNL     1       2.441   4.255  17.306  0.00  0.00    +0.000 OA
ATOM      7  C   UNL     1       5.373   5.596  19.010  0.00  0.00    +0.000 C 
ATOM      8  C   UNL     1       6.729   5.151  18.445  0.00  0.00    +0.000 C 
ATOM      9  C   UNL     1       7.846   5.599  19.382  0.00  0.00    +0.000 C 
ATOM     10  O   UNL     1       6.971   5.717  17.148  0.00  0.00    +0.000 OA
ENDROOT
BRANCH   5  11
ATOM     11  C   UNL     1       2.938   3.951  19.555  0.00  0.00    +0.000 A 
ATOM     12  C   UNL     1       3.360   2.792  20.171  0.00  0.00    +0.000 A 
ATOM     13 BR   UNL     1       4.585   1.483  19.614  0.00  0.00    +0.000 Br
ATOM     14  C   UNL     1       2.703   2.734  21.409  0.00  0.00    +0.000 A 
ATOM     15  N   UNL     1       1.991   3.836  21.635  0.00  0.00    +0.000 NA
ATOM     16  N   UNL     1       2.248   4.606  20.556  0.00  0.00    +0.000 N 
ATOM     17  C   UNL     1       1.807   5.985  20.560  0.00  0.00    +0.000 C 
ENDBRANCH   5  11
TORSDOF 1
ENDMDL
MODEL 5
REMARK VINA RESULT:      -5.8      2.418      5.158
REMARK  Name = 
REMARK  4 active torsions:
REMARK  status: ('A' for Active; 'I' for Inactive)
REMARK    1  A    between atoms: C_1  and  C_2
REMARK    2  A    between atoms: C_5  and  C_7
REMARK    3  A    between atoms: N_12  and  C_13
REMARK    4  A    between atoms: C_15  and  C_16
REMARK                            x       y       z     vdW  Elec       q    Type
REMARK                         _______ _______ _______ _____ _____    ______ ____
ROOT
ATOM      1  C   UNL     1       2.277   4.910  20.461  0.00  0.00    +0.000 C 
ATOM      2  C   UNL     1       1.581   4.142  19.339  0.00  0.00    +0.000 C 
ATOM      3  C   UNL     1       1.918   4.696  17.939  0.00  0.00    +0.000 C 
ATOM      4  N   UNL     1       3.298   4.362  17.558  0.00  0.00    +0.000 N 
ATOM      5  C   UNL     1       4.206   5.384  17.301  0.00  0.00    +0.000 C 
ATOM      6  O   UNL     1       3.865   6.560  17.423  0.00  0.00    +0.000 OA
ATOM      7  C   UNL     1       3.588   2.934  17.685  0.00  0.00    +0.000 C 
ATOM      8  C   UNL     1       3.210   2.397  19.073  0.00  0.00    +0.000 C 
ATOM      9  C   UNL     1       3.351   0.879  19.091  0.00  0.00    +0.000 C 
ATOM     10  O   UNL     1       1.855   2.729  19.417  0.00  0.00    +0.000 OA
ENDROOT
BRANCH   5  11
ATOM     11  C   UNL     1       5.572   5.051  16.971  0.00  0.00    +0.000 A 
ATOM     12  C   UNL     1       6.216   4.716  15.799  0.00  0.00    +0.000 A 
ATOM     13 BR   UNL     1       5.597   4.681  14.027  0.00  0.00    +0.000 Br
ATOM     14  C   UNL     1       7.538   4.401  16.144  0.00  0.00    +0.000 A 
ATOM     15  N   UNL     1       7.773   4.626  17.434  0.00  0.00    +0.000 NA
ATOM     16  N   UNL     1       6.605   5.134  17.884  0.00  0.00    +0.000 N 
ATOM     17  C   UNL     1       6.556   5.703  19.215  0.00  0.00    +0.000 C 
ENDBRANCH   5  11
TORSDOF 1
ENDMDL
MODEL 6
REMARK VINA RESULT:      -5.8      2.494      3.526
REMARK  Name = 
REMARK  4 active torsions:
REMARK  status: ('A' for Active; 'I' for Inactive)
REMARK    1  A    between atoms: C_1  and  C_2
REMARK    2  A    between atoms: C_5  and  C_7
REMARK    3  A    between atoms: N_12  and  C_13
REMARK    4  A    between atoms: C_15  and  C_16
REMARK                            x       y       z     vdW  Elec       q    Type
REMARK                         _______ _______ _______ _____ _____    ______ ____
ROOT
ATOM      1  C   UNL     1       7.274   4.039  16.393  0.00  0.00    +0.000 C 
ATOM      2  C   UNL     1       6.977   5.288  15.565  0.00  0.00    +0.000 C 
ATOM      3  C   UNL     1       5.466   5.525  15.364  0.00  0.00    +0.000 C 
ATOM      4  N   UNL     1       4.833   5.979  16.610  0.00  0.00    +0.000 N 
ATOM      5  C   UNL     1       3.821   5.216  17.184  0.00  0.00    +0.000 C 
ATOM      6  O   UNL     1       3.481   4.152  16.669  0.00  0.00    +0.000 OA
ATOM      7  C   UNL     1       5.512   7.133  17.199  0.00  0.00    +0.000 C 
ATOM      8  C   UNL     1       7.019   6.889  17.355  0.00  0.00    +0.000 C 
ATOM      9  C   UNL     1       7.705   8.179  17.791  0.00  0.00    +0.000 C 
ATOM     10  O   UNL     1       7.614   6.454  16.122  0.00  0.00    +0.000 OA
ENDROOT
BRANCH   5  11
ATOM     11  C   UNL     1       3.233   5.644  18.432  0.00  0.00    +0.000 A 
ATOM     12  C   UNL     1       2.585   6.791  18.838  0.00  0.00    +0.000 A 
ATOM     13 BR   UNL     1       2.043   8.302  17.864  0.00  0.00    +0.000 Br
ATOM     14  C   UNL     1       2.338   6.648  20.211  0.00  0.00    +0.000 A 
ATOM     15  N   UNL     1       2.694   5.443  20.647  0.00  0.00    +0.000 NA
ATOM     16  N   UNL     1       3.118   4.813  19.530  0.00  0.00    +0.000 N 
ATOM     17  C   UNL     1       3.385   3.392  19.586  0.00  0.00    +0.000 C 
ENDBRANCH   5  11
TORSDOF 1
ENDMDL
MODEL 7
REMARK VINA RESULT:      -5.8      2.047      2.386
REMARK  Name = 
REMARK  4 active torsions:
REMARK  status: ('A' for Active; 'I' for Inactive)
REMARK    1  A    between atoms: C_1  and  C_2
REMARK    2  A    between atoms: C_5  and  C_7
REMARK    3  A    between atoms: N_12  and  C_13
REMARK    4  A    between atoms: C_15  and  C_16
REMARK                            x       y       z     vdW  Elec       q    Type
REMARK                         _______ _______ _______ _____ _____    ______ ____
ROOT
ATOM      1  C   UNL     1       7.399   6.709  18.471  0.00  0.00    +0.000 C 
ATOM      2  C   UNL     1       7.516   5.799  17.249  0.00  0.00    +0.000 C 
ATOM      3  C   UNL     1       7.011   4.367  17.520  0.00  0.00    +0.000 C 
ATOM      4  N   UNL     1       5.546   4.336  17.627  0.00  0.00    +0.000 N 
ATOM      5  C   UNL     1       4.953   3.909  18.812  0.00  0.00    +0.000 C 
ATOM      6  O   UNL     1       5.652   3.589  19.773  0.00  0.00    +0.000 OA
ATOM      7  C   UNL     1       4.883   4.962  16.483  0.00  0.00    +0.000 C 
ATOM      8  C   UNL     1       5.427   6.371  16.210  0.00  0.00    +0.000 C 
ATOM      9  C   UNL     1       4.846   6.900  14.903  0.00  0.00    +0.000 C 
ATOM     10  O   UNL     1       6.859   6.372  16.100  0.00  0.00    +0.000 OA
ENDROOT
BRANCH   5  11
ATOM     11  C   UNL     1       3.513   3.924  18.928  0.00  0.00    +0.000 A 
ATOM     12  C   UNL     1       2.578   4.926  19.075  0.00  0.00    +0.000 A 
ATOM     13 BR   UNL     1       2.769   6.794  19.049  0.00  0.00    +0.000 Br
ATOM     14  C   UNL     1       1.336   4.295  19.235  0.00  0.00    +0.000 A 
ATOM     15  N   UNL     1       1.436   2.977  19.086  0.00  0.00    +0.000 NA
ATOM     16  N   UNL     1       2.738   2.790  18.780  0.00  0.00    +0.000 N 
ATOM     17  C   UNL     1       3.172   1.483  18.334  0.00  0.00    +0.000 C 
ENDBRANCH   5  11
TORSDOF 1
ENDMDL
MODEL 8
REMARK VINA RESULT:      -5.7      1.787      2.781
REMARK  Name = 
REMARK  4 active torsions:
REMARK  status: ('A' for Active; 'I' for Inactive)
REMARK    1  A    between atoms: C_1  and  C_2
REMARK    2  A    between atoms: C_5  and  C_7
REMARK    3  A    between atoms: N_12  and  C_13
REMARK    4  A    between atoms: C_15  and  C_16
REMARK                            x       y       z     vdW  Elec       q    Type
REMARK                         _______ _______ _______ _____ _____    ______ ____
ROOT
ATOM      1  C   UNL     1       6.651   3.686  15.719  0.00  0.00    +0.000 C 
ATOM      2  C   UNL     1       6.523   5.195  15.513  0.00  0.00    +0.000 C 
ATOM      3  C   UNL     1       5.071   5.695  15.656  0.00  0.00    +0.000 C 
ATOM      4  N   UNL     1       4.639   5.668  17.060  0.00  0.00    +0.000 N 
ATOM      5  C   UNL     1       3.554   4.878  17.429  0.00  0.00    +0.000 C 
ATOM      6  O   UNL     1       2.981   4.183  16.591  0.00  0.00    +0.000 OA
ATOM      7  C   UNL     1       5.567   6.366  17.950  0.00  0.00    +0.000 C 
ATOM      8  C   UNL     1       7.010   5.878  17.764  0.00  0.00    +0.000 C 
ATOM      9  C   UNL     1       7.957   6.762  18.568  0.00  0.00    +0.000 C 
ATOM     10  O   UNL     1       7.410   5.923  16.385  0.00  0.00    +0.000 OA
ENDROOT
BRANCH   5  11
ATOM     11  C   UNL     1       3.162   4.819  18.818  0.00  0.00    +0.000 A 
ATOM     12  C   UNL     1       3.362   3.901  19.828  0.00  0.00    +0.000 A 
ATOM     13 BR   UNL     1       4.390   2.331  19.871  0.00  0.00    +0.000 Br
ATOM     14  C   UNL     1       2.641   4.364  20.938  0.00  0.00    +0.000 A 
ATOM     15  N   UNL     1       2.104   5.559  20.708  0.00  0.00    +0.000 NA
ATOM     16  N   UNL     1       2.535   5.865  19.465  0.00  0.00    +0.000 N 
ATOM     17  C   UNL     1       2.320   7.205  18.961  0.00  0.00    +0.000 C 
ENDBRANCH   5  11
TORSDOF 1
ENDMDL
MODEL 9
REMARK VINA RESULT:      -5.6      2.417      5.322
REMARK  Name = 
REMARK  4 active torsions:
REMARK  status: ('A' for Active; 'I' for Inactive)
REMARK    1  A    between atoms: C_1  and  C_2
REMARK    2  A    between atoms: C_5  and  C_7
REMARK    3  A    between atoms: N_12  and  C_13
REMARK    4  A    between atoms: C_15  and  C_16
REMARK                            x       y       z     vdW  Elec       q    Type
REMARK                         _______ _______ _______ _____ _____    ______ ____
ROOT
ATOM      1  C   UNL     1       1.666   3.796  17.410  0.00  0.00    +0.000 C 
ATOM      2  C   UNL     1       1.972   3.570  18.889  0.00  0.00    +0.000 C 
ATOM      3  C   UNL     1       3.450   3.207  19.144  0.00  0.00    +0.000 C 
ATOM      4  N   UNL     1       4.320   4.377  18.956  0.00  0.00    +0.000 N 
ATOM      5  C   UNL     1       5.314   4.344  17.982  0.00  0.00    +0.000 C 
ATOM      6  O   UNL     1       5.442   3.354  17.263  0.00  0.00    +0.000 OA
ATOM      7  C   UNL     1       3.881   5.537  19.731  0.00  0.00    +0.000 C 
ATOM      8  C   UNL     1       2.399   5.856  19.491  0.00  0.00    +0.000 C 
ATOM      9  C   UNL     1       1.946   6.944  20.458  0.00  0.00    +0.000 C 
ATOM     10  O   UNL     1       1.571   4.700  19.689  0.00  0.00    +0.000 OA
ENDROOT
BRANCH   5  11
ATOM     11  C   UNL     1       6.136   5.512  17.771  0.00  0.00    +0.000 A 
ATOM     12  C   UNL     1       7.212   6.055  18.441  0.00  0.00    +0.000 A 
ATOM     13 BR   UNL     1       8.199   5.410  19.901  0.00  0.00    +0.000 Br
ATOM     14  C   UNL     1       7.514   7.265  17.799  0.00  0.00    +0.000 A 
ATOM     15  N   UNL     1       6.764   7.442  16.714  0.00  0.00    +0.000 NA
ATOM     16  N   UNL     1       6.027   6.313  16.651  0.00  0.00    +0.000 N 
ATOM     17  C   UNL     1       5.239   6.057  15.463  0.00  0.00    +0.000 C 
ENDBRANCH   5  11
TORSDOF 1
ENDMDL
