MODEL 1
REMARK VINA RESULT:      -7.1      0.000      0.000
REMARK  Name = 
REMARK  9 active torsions:
REMARK  status: ('A' for Active; 'I' for Inactive)
REMARK    1  A    between atoms: C_1  and  C_2
REMARK    2  A    between atoms: C_5  and  C_6
REMARK    3  A    between atoms: C_7  and  C_8
REMARK    4  A    between atoms: C_8  and  O_9
REMARK    5  A    between atoms: O_9  and  C_10
REMARK    6  A    between atoms: C_10  and  C_12
REMARK    7  A    between atoms: C_12  and  C_13
REMARK    8  A    between atoms: C_13  and  C_14
REMARK    9  A    between atoms: C_14  and  C_15
REMARK                            x       y       z     vdW  Elec       q    Type
REMARK                         _______ _______ _______ _____ _____    ______ ____
ROOT
ATOM      1  C   UNL     1       1.249   2.761  19.962  0.00  0.00    +0.000 C 
ENDROOT
BRANCH   1   2
ATOM      2  C   UNL     1       1.749   3.865  20.862  0.00  0.00    +0.000 C 
ATOM      3  O   UNL     1       2.174   3.686  21.997  0.00  0.00    +0.000 OA
BRANCH   2   4
ATOM      4  O   UNL     1       1.633   5.078  20.261  0.00  0.00    +0.000 OA
BRANCH   4   5
ATOM      5  C   UNL     1       1.895   6.216  21.099  0.00  0.00    +0.000 C 
BRANCH   5  12
ATOM      6  C   UNL     1       0.207   8.845  22.028  0.00  0.00    +0.000 C 
ATOM      7  C   UNL     1       0.947   8.628  20.763  0.00  0.00    +0.000 A 
ATOM      8  N   UNL     1       0.963   9.581  19.823  0.00  0.00    +0.000 NA
ATOM      9  O   UNL     1       1.720   9.077  18.787  0.00  0.00    +0.000 OA
ATOM     10  C   UNL     1       2.153   7.829  19.104  0.00  0.00    +0.000 A 
ATOM     11  C   UNL     1       2.977   7.147  18.088  0.00  0.00    +0.000 C 
ATOM     12  C   UNL     1       1.690   7.485  20.355  0.00  0.00    +0.000 A 
ENDBRANCH   5  12
ENDBRANCH   4   5
ENDBRANCH   2   4
ENDBRANCH   1   2
BRANCH   1  13
ATOM     13  C   UNL     1       1.873   2.895  18.570  0.00  0.00    +0.000 C 
BRANCH  13  14
ATOM     14  C   UNL     1       3.271   2.284  18.496  0.00  0.00    +0.000 C 
BRANCH  14  15
ATOM     15  C   UNL     1       4.313   3.335  18.247  0.00  0.00    +0.000 A 
ATOM     16  N   UNL     1       5.126   3.801  19.170  0.00  0.00    +0.000 NA
ATOM     17  C   UNL     1       5.958   4.768  18.625  0.00  0.00    +0.000 A 
ATOM     18  C   UNL     1       6.952   5.493  19.315  0.00  0.00    +0.000 A 
ATOM     19  C   UNL     1       7.714   6.452  18.637  0.00  0.00    +0.000 A 
ATOM     20  C   UNL     1       7.498   6.698  17.285  0.00  0.00    +0.000 A 
ATOM     21  C   UNL     1       6.521   5.991  16.578  0.00  0.00    +0.000 A 
ATOM     22  C   UNL     1       5.762   5.029  17.267  0.00  0.00    +0.000 A 
ATOM     23  S   UNL     1       4.505   4.011  16.680  0.00  0.00    +0.000 S 
ENDBRANCH  14  15
ENDBRANCH  13  14
ENDBRANCH   1  13
TORSDOF 7
ENDMDL
MODEL 2
REMARK VINA RESULT:      -7.1      2.958      7.123
REMARK  Name = 
REMARK  9 active torsions:
REMARK  status: ('A' for Active; 'I' for Inactive)
REMARK    1  A    between atoms: C_1  and  C_2
REMARK    2  A    between atoms: C_5  and  C_6
REMARK    3  A    between atoms: C_7  and  C_8
REMARK    4  A    between atoms: C_8  and  O_9
REMARK    5  A    between atoms: O_9  and  C_10
REMARK    6  A    between atoms: C_10  and  C_12
REMARK    7  A    between atoms: C_12  and  C_13
REMARK    8  A    between atoms: C_13  and  C_14
REMARK    9  A    between atoms: C_14  and  C_15
REMARK                            x       y       z     vdW  Elec       q    Type
REMARK                         _______ _______ _______ _____ _____    ______ ____
ROOT
ATOM      1  C   UNL     1       1.960   5.689  18.270  0.00  0.00    +0.000 C 
ENDROOT
BRANCH   1   2
ATOM      2  C   UNL     1       2.544   4.420  17.697  0.00  0.00    +0.000 C 
ATOM      3  O   UNL     1       1.894   3.573  17.098  0.00  0.00    +0.000 OA
BRANCH   2   4
ATOM      4  O   UNL     1       3.873   4.329  17.965  0.00  0.00    +0.000 OA
BRANCH   4   5
ATOM      5  C   UNL     1       4.663   3.649  16.976  0.00  0.00    +0.000 C 
BRANCH   5  12
ATOM      6  C   UNL     1       5.933   4.012  13.996  0.00  0.00    +0.000 C 
ATOM      7  C   UNL     1       6.387   4.620  15.268  0.00  0.00    +0.000 A 
ATOM      8  N   UNL     1       7.456   5.424  15.283  0.00  0.00    +0.000 NA
ATOM      9  O   UNL     1       7.617   5.815  16.596  0.00  0.00    +0.000 OA
ATOM     10  C   UNL     1       6.650   5.247  17.362  0.00  0.00    +0.000 A 
ATOM     11  C   UNL     1       6.688   5.564  18.802  0.00  0.00    +0.000 C 
ATOM     12  C   UNL     1       5.833   4.469  16.570  0.00  0.00    +0.000 A 
ENDBRANCH   5  12
ENDBRANCH   4   5
ENDBRANCH   2   4
ENDBRANCH   1   2
BRANCH   1  13
ATOM     13  C   UNL     1       3.022   6.791  18.296  0.00  0.00    +0.000 C 
BRANCH  13  14
ATOM     14  C   UNL     1       2.464   8.149  17.873  0.00  0.00    +0.000 C 
BRANCH  14  15
ATOM     15  C   UNL     1       1.695   8.795  18.989  0.00  0.00    +0.000 A 
ATOM     16  N   UNL     1       1.659   8.337  20.221  0.00  0.00    +0.000 NA
ATOM     17  C   UNL     1       0.853   9.150  21.005  0.00  0.00    +0.000 A 
ATOM     18  C   UNL     1       0.572   8.968  22.376  0.00  0.00    +0.000 A 
ATOM     19  C   UNL     1      -0.272   9.864  23.041  0.00  0.00    +0.000 A 
ATOM     20  C   UNL     1      -0.839  10.937  22.360  0.00  0.00    +0.000 A 
ATOM     21  C   UNL     1      -0.575  11.141  21.003  0.00  0.00    +0.000 A 
ATOM     22  C   UNL     1       0.276  10.236  20.344  0.00  0.00    +0.000 A 
ATOM     23  S   UNL     1       0.785  10.223  18.700  0.00  0.00    +0.000 S 
ENDBRANCH  14  15
ENDBRANCH  13  14
ENDBRANCH   1  13
TORSDOF 7
ENDMDL
MODEL 3
REMARK VINA RESULT:      -7.0      3.147      7.038
REMARK  Name = 
REMARK  9 active torsions:
REMARK  status: ('A' for Active; 'I' for Inactive)
REMARK    1  A    between atoms: C_1  and  C_2
REMARK    2  A    between atoms: C_5  and  C_6
REMARK    3  A    between atoms: C_7  and  C_8
REMARK    4  A    between atoms: C_8  and  O_9
REMARK    5  A    between atoms: O_9  and  C_10
REMARK    6  A    between atoms: C_10  and  C_12
REMARK    7  A    between atoms: C_12  and  C_13
REMARK    8  A    between atoms: C_13  and  C_14
REMARK    9  A    between atoms: C_14  and  C_15
REMARK                            x       y       z     vdW  Elec       q    Type
REMARK                         _______ _______ _______ _____ _____    ______ ____
ROOT
ATOM      1  C   UNL     1       2.047   4.652  17.982  0.00  0.00    +0.000 C 
ENDROOT
BRANCH   1   2
ATOM      2  C   UNL     1       2.858   3.557  17.331  0.00  0.00    +0.000 C 
ATOM      3  O   UNL     1       2.692   2.363  17.541  0.00  0.00    +0.000 OA
BRANCH   2   4
ATOM      4  O   UNL     1       3.813   4.075  16.515  0.00  0.00    +0.000 OA
BRANCH   4   5
ATOM      5  C   UNL     1       5.151   3.604  16.744  0.00  0.00    +0.000 C 
BRANCH   5  12
ATOM      6  C   UNL     1       6.077   3.744  13.622  0.00  0.00    +0.000 C 
ATOM      7  C   UNL     1       6.555   4.564  14.760  0.00  0.00    +0.000 A 
ATOM      8  N   UNL     1       7.496   5.495  14.566  0.00  0.00    +0.000 NA
ATOM      9  O   UNL     1       7.719   6.069  15.801  0.00  0.00    +0.000 OA
ATOM     10  C   UNL     1       6.917   5.483  16.727  0.00  0.00    +0.000 A 
ATOM     11  C   UNL     1       7.041   5.984  18.109  0.00  0.00    +0.000 C 
ATOM     12  C   UNL     1       6.150   4.510  16.123  0.00  0.00    +0.000 A 
ENDBRANCH   5  12
ENDBRANCH   4   5
ENDBRANCH   2   4
ENDBRANCH   1   2
BRANCH   1  13
ATOM     13  C   UNL     1       2.968   5.595  18.761  0.00  0.00    +0.000 C 
BRANCH  13  14
ATOM     14  C   UNL     1       3.083   6.971  18.107  0.00  0.00    +0.000 C 
BRANCH  14  15
ATOM     15  C   UNL     1       2.178   7.969  18.769  0.00  0.00    +0.000 A 
ATOM     16  N   UNL     1       1.677   9.024  18.166  0.00  0.00    +0.000 NA
ATOM     17  C   UNL     1       0.894   9.750  19.052  0.00  0.00    +0.000 A 
ATOM     18  C   UNL     1       0.201  10.944  18.763  0.00  0.00    +0.000 A 
ATOM     19  C   UNL     1      -0.545  11.578  19.763  0.00  0.00    +0.000 A 
ATOM     20  C   UNL     1      -0.611  11.039  21.043  0.00  0.00    +0.000 A 
ATOM     21  C   UNL     1       0.063   9.854  21.355  0.00  0.00    +0.000 A 
ATOM     22  C   UNL     1       0.809   9.225  20.343  0.00  0.00    +0.000 A 
ATOM     23  S   UNL     1       1.735   7.775  20.417  0.00  0.00    +0.000 S 
ENDBRANCH  14  15
ENDBRANCH  13  14
ENDBRANCH   1  13
TORSDOF 7
ENDMDL
MODEL 4
REMARK VINA RESULT:      -6.9      1.001      2.165
REMARK  Name = 
REMARK  9 active torsions:
REMARK  status: ('A' for Active; 'I' for Inactive)
REMARK    1  A    between atoms: C_1  and  C_2
REMARK    2  A    between atoms: C_5  and  C_6
REMARK    3  A    between atoms: C_7  and  C_8
REMARK    4  A    between atoms: C_8  and  O_9
REMARK    5  A    between atoms: O_9  and  C_10
REMARK    6  A    between atoms: C_10  and  C_12
REMARK    7  A    between atoms: C_12  and  C_13
REMARK    8  A    between atoms: C_13  and  C_14
REMARK    9  A    between atoms: C_14  and  C_15
REMARK                            x       y       z     vdW  Elec       q    Type
REMARK                         _______ _______ _______ _____ _____    ______ ____
ROOT
ATOM      1  C   UNL     1       1.004   2.883  19.146  0.00  0.00    +0.000 C 
ENDROOT
BRANCH   1   2
ATOM      2  C   UNL     1       1.291   3.873  20.250  0.00  0.00    +0.000 C 
ATOM      3  O   UNL     1       1.392   3.572  21.432  0.00  0.00    +0.000 OA
BRANCH   2   4
ATOM      4  O   UNL     1       1.384   5.138  19.762  0.00  0.00    +0.000 OA
BRANCH   4   5
ATOM      5  C   UNL     1       1.951   6.110  20.655  0.00  0.00    +0.000 C 
BRANCH   5  12
ATOM      6  C   UNL     1       2.872   7.487  17.848  0.00  0.00    +0.000 C 
ATOM      7  C   UNL     1       2.093   8.090  18.955  0.00  0.00    +0.000 A 
ATOM      8  N   UNL     1       1.690   9.363  18.876  0.00  0.00    +0.000 NA
ATOM      9  O   UNL     1       1.007   9.617  20.047  0.00  0.00    +0.000 OA
ATOM     10  C   UNL     1       1.003   8.502  20.822  0.00  0.00    +0.000 A 
ATOM     11  C   UNL     1       0.312   8.613  22.121  0.00  0.00    +0.000 C 
ATOM     12  C   UNL     1       1.685   7.491  20.180  0.00  0.00    +0.000 A 
ENDBRANCH   5  12
ENDBRANCH   4   5
ENDBRANCH   2   4
ENDBRANCH   1   2
BRANCH   1  13
ATOM     13  C   UNL     1       2.295   2.174  18.729  0.00  0.00    +0.000 C 
BRANCH  13  14
ATOM     14  C   UNL     1       2.862   2.716  17.418  0.00  0.00    +0.000 C 
BRANCH  14  15
ATOM     15  C   UNL     1       4.022   3.636  17.665  0.00  0.00    +0.000 A 
ATOM     16  N   UNL     1       4.540   4.430  16.754  0.00  0.00    +0.000 NA
ATOM     17  C   UNL     1       5.605   5.139  17.292  0.00  0.00    +0.000 A 
ATOM     18  C   UNL     1       6.406   6.080  16.611  0.00  0.00    +0.000 A 
ATOM     19  C   UNL     1       7.459   6.715  17.280  0.00  0.00    +0.000 A 
ATOM     20  C   UNL     1       7.723   6.425  18.615  0.00  0.00    +0.000 A 
ATOM     21  C   UNL     1       6.942   5.499  19.313  0.00  0.00    +0.000 A 
ATOM     22  C   UNL     1       5.886   4.869  18.633  0.00  0.00    +0.000 A 
ATOM     23  S   UNL     1       4.763   3.700  19.213  0.00  0.00    +0.000 S 
ENDBRANCH  14  15
ENDBRANCH  13  14
ENDBRANCH   1  13
TORSDOF 7
ENDMDL
MODEL 5
REMARK VINA RESULT:      -6.9      3.025      6.756
REMARK  Name = 
REMARK  9 active torsions:
REMARK  status: ('A' for Active; 'I' for Inactive)
REMARK    1  A    between atoms: C_1  and  C_2
REMARK    2  A    between atoms: C_5  and  C_6
REMARK    3  A    between atoms: C_7  and  C_8
REMARK    4  A    between atoms: C_8  and  O_9
REMARK    5  A    between atoms: O_9  and  C_10
REMARK    6  A    between atoms: C_10  and  C_12
REMARK    7  A    between atoms: C_12  and  C_13
REMARK    8  A    between atoms: C_13  and  C_14
REMARK    9  A    between atoms: C_14  and  C_15
REMARK                            x       y       z     vdW  Elec       q    Type
REMARK                         _______ _______ _______ _____ _____    ______ ____
ROOT
ATOM      1  C   UNL     1       2.064   4.237  18.489  0.00  0.00    +0.000 C 
ENDROOT
BRANCH   1   2
ATOM      2  C   UNL     1       2.902   3.362  17.589  0.00  0.00    +0.000 C 
ATOM      3  O   UNL     1       2.821   2.142  17.547  0.00  0.00    +0.000 OA
BRANCH   2   4
ATOM      4  O   UNL     1       3.777   4.105  16.861  0.00  0.00    +0.000 OA
BRANCH   4   5
ATOM      5  C   UNL     1       5.014   3.457  16.522  0.00  0.00    +0.000 C 
BRANCH   5  12
ATOM      6  C   UNL     1       6.483   5.761  18.299  0.00  0.00    +0.000 C 
ATOM      7  C   UNL     1       6.667   5.452  16.862  0.00  0.00    +0.000 A 
ATOM      8  N   UNL     1       7.519   6.174  16.125  0.00  0.00    +0.000 NA
ATOM      9  O   UNL     1       7.458   5.647  14.851  0.00  0.00    +0.000 OA
ATOM     10  C   UNL     1       6.573   4.616  14.828  0.00  0.00    +0.000 A 
ATOM     11  C   UNL     1       6.388   3.946  13.527  0.00  0.00    +0.000 C 
ATOM     12  C   UNL     1       6.032   4.444  16.083  0.00  0.00    +0.000 A 
ENDBRANCH   5  12
ENDBRANCH   4   5
ENDBRANCH   2   4
ENDBRANCH   1   2
BRANCH   1  13
ATOM     13  C   UNL     1       2.237   5.708  18.103  0.00  0.00    +0.000 C 
BRANCH  13  14
ATOM     14  C   UNL     1       2.941   6.519  19.190  0.00  0.00    +0.000 C 
BRANCH  14  15
ATOM     15  C   UNL     1       2.076   7.646  19.676  0.00  0.00    +0.000 A 
ATOM     16  N   UNL     1       1.570   7.717  20.888  0.00  0.00    +0.000 NA
ATOM     17  C   UNL     1       0.809   8.870  21.017  0.00  0.00    +0.000 A 
ATOM     18  C   UNL     1       0.108   9.279  22.171  0.00  0.00    +0.000 A 
ATOM     19  C   UNL     1      -0.630  10.467  22.156  0.00  0.00    +0.000 A 
ATOM     20  C   UNL     1      -0.680  11.252  21.008  0.00  0.00    +0.000 A 
ATOM     21  C   UNL     1       0.008  10.871  19.852  0.00  0.00    +0.000 A 
ATOM     22  C   UNL     1       0.748   9.677  19.878  0.00  0.00    +0.000 A 
ATOM     23  S   UNL     1       1.689   8.952  18.631  0.00  0.00    +0.000 S 
ENDBRANCH  14  15
ENDBRANCH  13  14
ENDBRANCH   1  13
TORSDOF 7
ENDMDL
MODEL 6
REMARK VINA RESULT:      -6.7      2.627      6.442
REMARK  Name = 
REMARK  9 active torsions:
REMARK  status: ('A' for Active; 'I' for Inactive)
REMARK    1  A    between atoms: C_1  and  C_2
REMARK    2  A    between atoms: C_5  and  C_6
REMARK    3  A    between atoms: C_7  and  C_8
REMARK    4  A    between atoms: C_8  and  O_9
REMARK    5  A    between atoms: O_9  and  C_10
REMARK    6  A    between atoms: C_10  and  C_12
REMARK    7  A    between atoms: C_12  and  C_13
REMARK    8  A    between atoms: C_13  and  C_14
REMARK    9  A    between atoms: C_14  and  C_15
REMARK                            x       y       z     vdW  Elec       q    Type
REMARK                         _______ _______ _______ _____ _____    ______ ____
ROOT
ATOM      1  C   UNL     1       5.088   6.059  17.932  0.00  0.00    +0.000 C 
ENDROOT
BRANCH   1   2
ATOM      2  C   UNL     1       5.545   4.974  18.878  0.00  0.00    +0.000 C 
ATOM      3  O   UNL     1       6.327   5.153  19.803  0.00  0.00    +0.000 OA
BRANCH   2   4
ATOM      4  O   UNL     1       5.002   3.773  18.544  0.00  0.00    +0.000 OA
BRANCH   4   5
ATOM      5  C   UNL     1       4.415   3.033  19.627  0.00  0.00    +0.000 C 
BRANCH   5  12
ATOM      6  C   UNL     1       2.756   2.779  16.833  0.00  0.00    +0.000 C 
ATOM      7  C   UNL     1       2.229   2.779  18.218  0.00  0.00    +0.000 A 
ATOM      8  N   UNL     1       0.912   2.679  18.434  0.00  0.00    +0.000 NA
ATOM      9  O   UNL     1       0.751   2.712  19.804  0.00  0.00    +0.000 OA
ATOM     10  C   UNL     1       1.964   2.833  20.402  0.00  0.00    +0.000 A 
ATOM     11  C   UNL     1       1.961   2.890  21.876  0.00  0.00    +0.000 C 
ATOM     12  C   UNL     1       2.950   2.884  19.440  0.00  0.00    +0.000 A 
ENDBRANCH   5  12
ENDBRANCH   4   5
ENDBRANCH   2   4
ENDBRANCH   1   2
BRANCH   1  13
ATOM     13  C   UNL     1       3.574   6.252  18.047  0.00  0.00    +0.000 C 
BRANCH  13  14
ATOM     14  C   UNL     1       3.126   7.637  17.584  0.00  0.00    +0.000 C 
BRANCH  14  15
ATOM     15  C   UNL     1       2.260   8.303  18.614  0.00  0.00    +0.000 A 
ATOM     16  N   UNL     1       2.065   7.836  19.828  0.00  0.00    +0.000 NA
ATOM     17  C   UNL     1       1.207   8.673  20.526  0.00  0.00    +0.000 A 
ATOM     18  C   UNL     1       0.764   8.489  21.853  0.00  0.00    +0.000 A 
ATOM     19  C   UNL     1      -0.114   9.413  22.431  0.00  0.00    +0.000 A 
ATOM     20  C   UNL     1      -0.556  10.515  21.705  0.00  0.00    +0.000 A 
ATOM     21  C   UNL     1      -0.130  10.722  20.390  0.00  0.00    +0.000 A 
ATOM     22  C   UNL     1       0.753   9.788  19.819  0.00  0.00    +0.000 A 
ATOM     23  S   UNL     1       1.446   9.770  18.244  0.00  0.00    +0.000 S 
ENDBRANCH  14  15
ENDBRANCH  13  14
ENDBRANCH   1  13
TORSDOF 7
ENDMDL
MODEL 7
REMARK VINA RESULT:      -6.7      3.000      6.332
REMARK  Name = 
REMARK  9 active torsions:
REMARK  status: ('A' for Active; 'I' for Inactive)
REMARK    1  A    between atoms: C_1  and  C_2
REMARK    2  A    between atoms: C_5  and  C_6
REMARK    3  A    between atoms: C_7  and  C_8
REMARK    4  A    between atoms: C_8  and  O_9
REMARK    5  A    between atoms: O_9  and  C_10
REMARK    6  A    between atoms: C_10  and  C_12
REMARK    7  A    between atoms: C_12  and  C_13
REMARK    8  A    between atoms: C_13  and  C_14
REMARK    9  A    between atoms: C_14  and  C_15
REMARK                            x       y       z     vdW  Elec       q    Type
REMARK                         _______ _______ _______ _____ _____    ______ ____
ROOT
ATOM      1  C   UNL     1       3.856   3.842  19.085  0.00  0.00    +0.000 C 
ENDROOT
BRANCH   1   2
ATOM      2  C   UNL     1       3.898   2.765  18.028  0.00  0.00    +0.000 C 
ATOM      3  O   UNL     1       3.404   1.653  18.160  0.00  0.00    +0.000 OA
BRANCH   2   4
ATOM      4  O   UNL     1       4.585   3.182  16.932  0.00  0.00    +0.000 OA
BRANCH   4   5
ATOM      5  C   UNL     1       4.544   4.595  16.671  0.00  0.00    +0.000 C 
BRANCH   5  12
ATOM      6  C   UNL     1       5.573   3.912  13.654  0.00  0.00    +0.000 C 
ATOM      7  C   UNL     1       6.236   4.745  14.685  0.00  0.00    +0.000 A 
ATOM      8  N   UNL     1       7.418   5.316  14.426  0.00  0.00    +0.000 NA
ATOM      9  O   UNL     1       7.761   6.008  15.569  0.00  0.00    +0.000 OA
ATOM     10  C   UNL     1       6.790   5.851  16.505  0.00  0.00    +0.000 A 
ATOM     11  C   UNL     1       7.012   6.529  17.796  0.00  0.00    +0.000 C 
ATOM     12  C   UNL     1       5.788   5.051  16.000  0.00  0.00    +0.000 A 
ENDBRANCH   5  12
ENDBRANCH   4   5
ENDBRANCH   2   4
ENDBRANCH   1   2
BRANCH   1  13
ATOM     13  C   UNL     1       2.406   4.241  19.371  0.00  0.00    +0.000 C 
BRANCH  13  14
ATOM     14  C   UNL     1       2.283   5.169  20.578  0.00  0.00    +0.000 C 
BRANCH  14  15
ATOM     15  C   UNL     1       2.004   6.582  20.153  0.00  0.00    +0.000 A 
ATOM     16  N   UNL     1       1.406   7.475  20.910  0.00  0.00    +0.000 NA
ATOM     17  C   UNL     1       1.288   8.676  20.224  0.00  0.00    +0.000 A 
ATOM     18  C   UNL     1       0.694   9.858  20.714  0.00  0.00    +0.000 A 
ATOM     19  C   UNL     1       0.635  10.998  19.904  0.00  0.00    +0.000 A 
ATOM     20  C   UNL     1       1.158  10.974  18.615  0.00  0.00    +0.000 A 
ATOM     21  C   UNL     1       1.754   9.817  18.106  0.00  0.00    +0.000 A 
ATOM     22  C   UNL     1       1.810   8.678  18.929  0.00  0.00    +0.000 A 
ATOM     23  S   UNL     1       2.472   7.125  18.592  0.00  0.00    +0.000 S 
ENDBRANCH  14  15
ENDBRANCH  13  14
ENDBRANCH   1  13
TORSDOF 7
ENDMDL
MODEL 8
REMARK VINA RESULT:      -6.7      2.873      6.997
REMARK  Name = 
REMARK  9 active torsions:
REMARK  status: ('A' for Active; 'I' for Inactive)
REMARK    1  A    between atoms: C_1  and  C_2
REMARK    2  A    between atoms: C_5  and  C_6
REMARK    3  A    between atoms: C_7  and  C_8
REMARK    4  A    between atoms: C_8  and  O_9
REMARK    5  A    between atoms: O_9  and  C_10
REMARK    6  A    between atoms: C_10  and  C_12
REMARK    7  A    between atoms: C_12  and  C_13
REMARK    8  A    between atoms: C_13  and  C_14
REMARK    9  A    between atoms: C_14  and  C_15
REMARK                            x       y       z     vdW  Elec       q    Type
REMARK                         _______ _______ _______ _____ _____    ______ ____
ROOT
ATOM      1  C   UNL     1       2.470   5.656  18.208  0.00  0.00    +0.000 C 
ENDROOT
BRANCH   1   2
ATOM      2  C   UNL     1       3.119   4.415  18.773  0.00  0.00    +0.000 C 
ATOM      3  O   UNL     1       2.579   3.317  18.818  0.00  0.00    +0.000 OA
BRANCH   2   4
ATOM      4  O   UNL     1       4.361   4.688  19.253  0.00  0.00    +0.000 OA
BRANCH   4   5
ATOM      5  C   UNL     1       5.455   4.324  18.394  0.00  0.00    +0.000 C 
BRANCH   5  12
ATOM      6  C   UNL     1       5.094   6.391  15.899  0.00  0.00    +0.000 C 
ATOM      7  C   UNL     1       6.127   6.405  16.962  0.00  0.00    +0.000 A 
ATOM      8  N   UNL     1       7.077   7.347  16.961  0.00  0.00    +0.000 NA
ATOM      9  O   UNL     1       7.870   7.083  18.059  0.00  0.00    +0.000 OA
ATOM     10  C   UNL     1       7.398   5.989  18.710  0.00  0.00    +0.000 A 
ATOM     11  C   UNL     1       8.147   5.571  19.910  0.00  0.00    +0.000 C 
ATOM     12  C   UNL     1       6.285   5.508  18.056  0.00  0.00    +0.000 A 
ENDBRANCH   5  12
ENDBRANCH   4   5
ENDBRANCH   2   4
ENDBRANCH   1   2
BRANCH   1  13
ATOM     13  C   UNL     1       2.618   6.820  19.191  0.00  0.00    +0.000 C 
BRANCH  13  14
ATOM     14  C   UNL     1       2.202   8.157  18.579  0.00  0.00    +0.000 C 
BRANCH  14  15
ATOM     15  C   UNL     1       1.354   8.951  19.529  0.00  0.00    +0.000 A 
ATOM     16  N   UNL     1       1.145   8.621  20.785  0.00  0.00    +0.000 NA
ATOM     17  C   UNL     1       0.308   9.550  21.387  0.00  0.00    +0.000 A 
ATOM     18  C   UNL     1      -0.141   9.520  22.724  0.00  0.00    +0.000 A 
ATOM     19  C   UNL     1      -0.995  10.523  23.197  0.00  0.00    +0.000 A 
ATOM     20  C   UNL     1      -1.407  11.552  22.356  0.00  0.00    +0.000 A 
ATOM     21  C   UNL     1      -0.974  11.606  21.028  0.00  0.00    +0.000 A 
ATOM     22  C   UNL     1      -0.115  10.595  20.564  0.00  0.00    +0.000 A 
ATOM     23  S   UNL     1       0.579  10.391  19.001  0.00  0.00    +0.000 S 
ENDBRANCH  14  15
ENDBRANCH  13  14
ENDBRANCH   1  13
TORSDOF 7
ENDMDL
MODEL 9
REMARK VINA RESULT:      -6.7      2.512      5.554
REMARK  Name = 
REMARK  9 active torsions:
REMARK  status: ('A' for Active; 'I' for Inactive)
REMARK    1  A    between atoms: C_1  and  C_2
REMARK    2  A    between atoms: C_5  and  C_6
REMARK    3  A    between atoms: C_7  and  C_8
REMARK    4  A    between atoms: C_8  and  O_9
REMARK    5  A    between atoms: O_9  and  C_10
REMARK    6  A    between atoms: C_10  and  C_12
REMARK    7  A    between atoms: C_12  and  C_13
REMARK    8  A    between atoms: C_13  and  C_14
REMARK    9  A    between atoms: C_14  and  C_15
REMARK                            x       y       z     vdW  Elec       q    Type
REMARK                         _______ _______ _______ _____ _____    ______ ____
ROOT
ATOM      1  C   UNL     1       3.353   3.228  18.663  0.00  0.00    +0.000 C 
ENDROOT
BRANCH   1   2
ATOM      2  C   UNL     1       4.554   2.999  19.549  0.00  0.00    +0.000 C 
ATOM      3  O   UNL     1       4.610   2.141  20.421  0.00  0.00    +0.000 OA
BRANCH   2   4
ATOM      4  O   UNL     1       5.542   3.890  19.274  0.00  0.00    +0.000 OA
BRANCH   4   5
ATOM      5  C   UNL     1       5.679   4.263  17.893  0.00  0.00    +0.000 C 
BRANCH   5  12
ATOM      6  C   UNL     1       5.233   6.591  15.655  0.00  0.00    +0.000 C 
ATOM      7  C   UNL     1       6.203   6.566  16.775  0.00  0.00    +0.000 A 
ATOM      8  N   UNL     1       7.050   7.587  16.951  0.00  0.00    +0.000 NA
ATOM      9  O   UNL     1       7.810   7.261  18.055  0.00  0.00    +0.000 OA
ATOM     10  C   UNL     1       7.421   6.052  18.534  0.00  0.00    +0.000 A 
ATOM     11  C   UNL     1       8.148   5.555  19.719  0.00  0.00    +0.000 C 
ATOM     12  C   UNL     1       6.398   5.555  17.757  0.00  0.00    +0.000 A 
ENDBRANCH   5  12
ENDBRANCH   4   5
ENDBRANCH   2   4
ENDBRANCH   1   2
BRANCH   1  13
ATOM     13  C   UNL     1       2.157   3.680  19.505  0.00  0.00    +0.000 C 
BRANCH  13  14
ATOM     14  C   UNL     1       2.542   4.719  20.556  0.00  0.00    +0.000 C 
BRANCH  14  15
ATOM     15  C   UNL     1       2.247   6.112  20.081  0.00  0.00    +0.000 A 
ATOM     16  N   UNL     1       1.601   7.011  20.790  0.00  0.00    +0.000 NA
ATOM     17  C   UNL     1       1.481   8.189  20.066  0.00  0.00    +0.000 A 
ATOM     18  C   UNL     1       0.843   9.370  20.500  0.00  0.00    +0.000 A 
ATOM     19  C   UNL     1       0.787  10.485  19.656  0.00  0.00    +0.000 A 
ATOM     20  C   UNL     1       1.357  10.438  18.388  0.00  0.00    +0.000 A 
ATOM     21  C   UNL     1       1.998   9.281  17.935  0.00  0.00    +0.000 A 
ATOM     22  C   UNL     1       2.050   8.167  18.791  0.00  0.00    +0.000 A 
ATOM     23  S   UNL     1       2.759   6.622  18.523  0.00  0.00    +0.000 S 
ENDBRANCH  14  15
ENDBRANCH  13  14
ENDBRANCH   1  13
TORSDOF 7
ENDMDL
