MODEL 1
REMARK VINA RESULT:      -7.3      0.000      0.000
REMARK  Name = 
REMARK  1 active torsions:
REMARK  status: ('A' for Active; 'I' for Inactive)
REMARK    1  A    between atoms: C_1  and  N_2
REMARK                            x       y       z     vdW  Elec       q    Type
REMARK                         _______ _______ _______ _____ _____    ______ ____
ROOT
ATOM      1  C   UNL     1       2.527   6.963  19.485  0.00  0.00    +0.000 C 
ATOM      2  N   UNL     1       2.845   5.618  19.020  0.00  0.00    +0.000 N 
ATOM      3  C   UNL     1       2.307   4.521  19.652  0.00  0.00    +0.000 C 
ATOM      4  N   UNL     1       1.503   4.543  20.672  0.00  0.00    +0.000 NA
ATOM      5  C   UNL     1       1.195   3.130  20.995  0.00  0.00    +0.000 C 
ATOM      6  C   UNL     1       1.950   2.282  19.990  0.00  0.00    +0.000 C 
ATOM      7  N   UNL     1       2.617   3.263  19.197  0.00  0.00    +0.000 N 
ATOM      8  C   UNL     1       3.440   2.978  18.134  0.00  0.00    +0.000 C 
ATOM      9  O   UNL     1       3.698   1.840  17.754  0.00  0.00    +0.000 OA
ATOM     10  C   UNL     1       4.021   4.161  17.448  0.00  0.00    +0.000 A 
ATOM     11  C   UNL     1       4.871   3.959  16.350  0.00  0.00    +0.000 A 
ATOM     12  C   UNL     1       5.418   5.057  15.698  0.00  0.00    +0.000 A 
ATOM     13 CL   UNL     1       6.460   4.829  14.350  0.00  0.00    +0.000 Cl
ATOM     14  C   UNL     1       5.125   6.345  16.130  0.00  0.00    +0.000 A 
ATOM     15  C   UNL     1       4.277   6.541  17.226  0.00  0.00    +0.000 A 
ATOM     16  C   UNL     1       3.704   5.457  17.914  0.00  0.00    +0.000 A 
ENDROOT
TORSDOF 0
ENDMDL
MODEL 2
REMARK VINA RESULT:      -6.6      2.864      4.758
REMARK  Name = 
REMARK  1 active torsions:
REMARK  status: ('A' for Active; 'I' for Inactive)
REMARK    1  A    between atoms: C_1  and  N_2
REMARK                            x       y       z     vdW  Elec       q    Type
REMARK                         _______ _______ _______ _____ _____    ______ ____
ROOT
ATOM      1  C   UNL     1       3.527   7.713  17.753  0.00  0.00    +0.000 C 
ATOM      2  N   UNL     1       3.741   6.271  17.707  0.00  0.00    +0.000 N 
ATOM      3  C   UNL     1       4.538   5.719  16.732  0.00  0.00    +0.000 C 
ATOM      4  N   UNL     1       5.161   6.367  15.794  0.00  0.00    +0.000 NA
ATOM      5  C   UNL     1       5.888   5.355  14.993  0.00  0.00    +0.000 C 
ATOM      6  C   UNL     1       5.589   4.009  15.624  0.00  0.00    +0.000 C 
ATOM      7  N   UNL     1       4.729   4.359  16.708  0.00  0.00    +0.000 N 
ATOM      8  C   UNL     1       4.183   3.461  17.592  0.00  0.00    +0.000 C 
ATOM      9  O   UNL     1       4.373   2.249  17.541  0.00  0.00    +0.000 OA
ATOM     10  C   UNL     1       3.322   4.054  18.648  0.00  0.00    +0.000 A 
ATOM     11  C   UNL     1       2.728   3.205  19.594  0.00  0.00    +0.000 A 
ATOM     12  C   UNL     1       1.924   3.748  20.588  0.00  0.00    +0.000 A 
ATOM     13 CL   UNL     1       1.188   2.724  21.757  0.00  0.00    +0.000 Cl
ATOM     14  C   UNL     1       1.710   5.120  20.645  0.00  0.00    +0.000 A 
ATOM     15  C   UNL     1       2.304   5.961  19.697  0.00  0.00    +0.000 A 
ATOM     16  C   UNL     1       3.125   5.453  18.676  0.00  0.00    +0.000 A 
ENDROOT
TORSDOF 0
ENDMDL
MODEL 3
REMARK VINA RESULT:      -6.4      0.979      1.033
REMARK  Name = 
REMARK  1 active torsions:
REMARK  status: ('A' for Active; 'I' for Inactive)
REMARK    1  A    between atoms: C_1  and  N_2
REMARK                            x       y       z     vdW  Elec       q    Type
REMARK                         _______ _______ _______ _____ _____    ______ ____
ROOT
ATOM      1  C   UNL     1       3.191   7.664  18.303  0.00  0.00    +0.000 C 
ATOM      2  N   UNL     1       3.356   6.220  18.187  0.00  0.00    +0.000 N 
ATOM      3  C   UNL     1       2.740   5.378  19.083  0.00  0.00    +0.000 C 
ATOM      4  N   UNL     1       1.986   5.737  20.078  0.00  0.00    +0.000 NA
ATOM      5  C   UNL     1       1.554   4.490  20.751  0.00  0.00    +0.000 C 
ATOM      6  C   UNL     1       2.180   3.344  19.980  0.00  0.00    +0.000 C 
ATOM      7  N   UNL     1       2.905   4.020  18.954  0.00  0.00    +0.000 N 
ATOM      8  C   UNL     1       3.651   3.395  17.984  0.00  0.00    +0.000 C 
ATOM      9  O   UNL     1       3.779   2.178  17.898  0.00  0.00    +0.000 OA
ATOM     10  C   UNL     1       4.316   4.302  17.014  0.00  0.00    +0.000 A 
ATOM     11  C   UNL     1       5.094   3.745  15.988  0.00  0.00    +0.000 A 
ATOM     12  C   UNL     1       5.718   4.582  15.072  0.00  0.00    +0.000 A 
ATOM     13 CL   UNL     1       6.676   3.917  13.808  0.00  0.00    +0.000 Cl
ATOM     14  C   UNL     1       5.572   5.961  15.170  0.00  0.00    +0.000 A 
ATOM     15  C   UNL     1       4.795   6.511  16.196  0.00  0.00    +0.000 A 
ATOM     16  C   UNL     1       4.147   5.699  17.143  0.00  0.00    +0.000 A 
ENDROOT
TORSDOF 0
ENDMDL
MODEL 4
REMARK VINA RESULT:      -6.1      3.116      4.906
REMARK  Name = 
REMARK  1 active torsions:
REMARK  status: ('A' for Active; 'I' for Inactive)
REMARK    1  A    between atoms: C_1  and  N_2
REMARK                            x       y       z     vdW  Elec       q    Type
REMARK                         _______ _______ _______ _____ _____    ______ ____
ROOT
ATOM      1  C   UNL     1       2.999   7.679  17.923  0.00  0.00    +0.000 C 
ATOM      2  N   UNL     1       3.659   6.423  18.258  0.00  0.00    +0.000 N 
ATOM      3  C   UNL     1       4.884   6.117  17.712  0.00  0.00    +0.000 C 
ATOM      4  N   UNL     1       5.562   6.858  16.888  0.00  0.00    +0.000 NA
ATOM      5  C   UNL     1       6.808   6.117  16.584  0.00  0.00    +0.000 C 
ATOM      6  C   UNL     1       6.745   4.823  17.371  0.00  0.00    +0.000 C 
ATOM      7  N   UNL     1       5.491   4.929  18.042  0.00  0.00    +0.000 N 
ATOM      8  C   UNL     1       4.978   3.981  18.893  0.00  0.00    +0.000 C 
ATOM      9  O   UNL     1       5.546   2.927  19.165  0.00  0.00    +0.000 OA
ATOM     10  C   UNL     1       3.656   4.308  19.485  0.00  0.00    +0.000 A 
ATOM     11  C   UNL     1       3.062   3.394  20.368  0.00  0.00    +0.000 A 
ATOM     12  C   UNL     1       1.828   3.690  20.931  0.00  0.00    +0.000 A 
ATOM     13 CL   UNL     1       1.086   2.581  22.016  0.00  0.00    +0.000 Cl
ATOM     14  C   UNL     1       1.185   4.883  20.621  0.00  0.00    +0.000 A 
ATOM     15  C   UNL     1       1.781   5.791  19.739  0.00  0.00    +0.000 A 
ATOM     16  C   UNL     1       3.029   5.530  19.148  0.00  0.00    +0.000 A 
ENDROOT
TORSDOF 0
ENDMDL
MODEL 5
REMARK VINA RESULT:      -6.1      3.133      5.282
REMARK  Name = 
REMARK  1 active torsions:
REMARK  status: ('A' for Active; 'I' for Inactive)
REMARK    1  A    between atoms: C_1  and  N_2
REMARK                            x       y       z     vdW  Elec       q    Type
REMARK                         _______ _______ _______ _____ _____    ______ ____
ROOT
ATOM      1  C   UNL     1       3.652   2.183  18.196  0.00  0.00    +0.000 C 
ATOM      2  N   UNL     1       3.828   3.606  17.928  0.00  0.00    +0.000 N 
ATOM      3  C   UNL     1       4.637   4.021  16.896  0.00  0.00    +0.000 C 
ATOM      4  N   UNL     1       5.298   3.253  16.084  0.00  0.00    +0.000 NA
ATOM      5  C   UNL     1       6.016   4.149  15.147  0.00  0.00    +0.000 C 
ATOM      6  C   UNL     1       5.658   5.567  15.546  0.00  0.00    +0.000 C 
ATOM      7  N   UNL     1       4.787   5.366  16.658  0.00  0.00    +0.000 N 
ATOM      8  C   UNL     1       4.190   6.375  17.374  0.00  0.00    +0.000 C 
ATOM      9  O   UNL     1       4.348   7.569  17.136  0.00  0.00    +0.000 OA
ATOM     10  C   UNL     1       3.316   5.929  18.489  0.00  0.00    +0.000 A 
ATOM     11  C   UNL     1       2.665   6.897  19.269  0.00  0.00    +0.000 A 
ATOM     12  C   UNL     1       1.842   6.493  20.312  0.00  0.00    +0.000 A 
ATOM     13 CL   UNL     1       1.035   7.665  21.279  0.00  0.00    +0.000 Cl
ATOM     14  C   UNL     1       1.664   5.141  20.581  0.00  0.00    +0.000 A 
ATOM     15  C   UNL     1       2.316   4.180  19.800  0.00  0.00    +0.000 A 
ATOM     16  C   UNL     1       3.158   4.547  18.736  0.00  0.00    +0.000 A 
ENDROOT
TORSDOF 0
ENDMDL
MODEL 6
REMARK VINA RESULT:      -6.1      2.765      3.732
REMARK  Name = 
REMARK  1 active torsions:
REMARK  status: ('A' for Active; 'I' for Inactive)
REMARK    1  A    between atoms: C_1  and  N_2
REMARK                            x       y       z     vdW  Elec       q    Type
REMARK                         _______ _______ _______ _____ _____    ______ ____
ROOT
ATOM      1  C   UNL     1       5.915   4.501  17.729  0.00  0.00    +0.000 C 
ATOM      2  N   UNL     1       4.709   4.688  18.526  0.00  0.00    +0.000 N 
ATOM      3  C   UNL     1       4.323   3.730  19.435  0.00  0.00    +0.000 C 
ATOM      4  N   UNL     1       4.942   2.615  19.682  0.00  0.00    +0.000 NA
ATOM      5  C   UNL     1       4.157   1.921  20.729  0.00  0.00    +0.000 C 
ATOM      6  C   UNL     1       2.980   2.819  21.054  0.00  0.00    +0.000 C 
ATOM      7  N   UNL     1       3.185   3.927  20.179  0.00  0.00    +0.000 N 
ATOM      8  C   UNL     1       2.362   5.025  20.104  0.00  0.00    +0.000 C 
ATOM      9  O   UNL     1       1.350   5.169  20.783  0.00  0.00    +0.000 OA
ATOM     10  C   UNL     1       2.777   6.062  19.124  0.00  0.00    +0.000 A 
ATOM     11  C   UNL     1       1.993   7.217  18.987  0.00  0.00    +0.000 A 
ATOM     12  C   UNL     1       2.371   8.196  18.077  0.00  0.00    +0.000 A 
ATOM     13 CL   UNL     1       1.423   9.619  17.896  0.00  0.00    +0.000 Cl
ATOM     14  C   UNL     1       3.518   8.032  17.309  0.00  0.00    +0.000 A 
ATOM     15  C   UNL     1       4.296   6.877  17.449  0.00  0.00    +0.000 A 
ATOM     16  C   UNL     1       3.948   5.863  18.358  0.00  0.00    +0.000 A 
ENDROOT
TORSDOF 0
ENDMDL
MODEL 7
REMARK VINA RESULT:      -6.0      1.816      2.340
REMARK  Name = 
REMARK  1 active torsions:
REMARK  status: ('A' for Active; 'I' for Inactive)
REMARK    1  A    between atoms: C_1  and  N_2
REMARK                            x       y       z     vdW  Elec       q    Type
REMARK                         _______ _______ _______ _____ _____    ______ ____
ROOT
ATOM      1  C   UNL     1       6.607   5.526  19.353  0.00  0.00    +0.000 C 
ATOM      2  N   UNL     1       5.532   4.940  18.562  0.00  0.00    +0.000 N 
ATOM      3  C   UNL     1       4.312   4.673  19.141  0.00  0.00    +0.000 C 
ATOM      4  N   UNL     1       3.986   4.896  20.378  0.00  0.00    +0.000 NA
ATOM      5  C   UNL     1       2.581   4.452  20.530  0.00  0.00    +0.000 C 
ATOM      6  C   UNL     1       2.141   3.938  19.173  0.00  0.00    +0.000 C 
ATOM      7  N   UNL     1       3.311   4.123  18.378  0.00  0.00    +0.000 N 
ATOM      8  C   UNL     1       3.408   3.800  17.046  0.00  0.00    +0.000 C 
ATOM      9  O   UNL     1       2.493   3.307  16.393  0.00  0.00    +0.000 OA
ATOM     10  C   UNL     1       4.723   4.088  16.418  0.00  0.00    +0.000 A 
ATOM     11  C   UNL     1       4.906   3.790  15.059  0.00  0.00    +0.000 A 
ATOM     12  C   UNL     1       6.129   4.058  14.459  0.00  0.00    +0.000 A 
ATOM     13 CL   UNL     1       6.371   3.701  12.795  0.00  0.00    +0.000 Cl
ATOM     14  C   UNL     1       7.165   4.617  15.200  0.00  0.00    +0.000 A 
ATOM     15  C   UNL     1       6.978   4.910  16.556  0.00  0.00    +0.000 A 
ATOM     16  C   UNL     1       5.755   4.655  17.200  0.00  0.00    +0.000 A 
ENDROOT
TORSDOF 0
ENDMDL
MODEL 8
REMARK VINA RESULT:      -5.9      3.015      4.209
REMARK  Name = 
REMARK  1 active torsions:
REMARK  status: ('A' for Active; 'I' for Inactive)
REMARK    1  A    between atoms: C_1  and  N_2
REMARK                            x       y       z     vdW  Elec       q    Type
REMARK                         _______ _______ _______ _____ _____    ______ ____
ROOT
ATOM      1  C   UNL     1       4.718   5.306  16.651  0.00  0.00    +0.000 C 
ATOM      2  N   UNL     1       3.940   5.268  17.884  0.00  0.00    +0.000 N 
ATOM      3  C   UNL     1       3.900   4.122  18.643  0.00  0.00    +0.000 C 
ATOM      4  N   UNL     1       4.510   3.006  18.379  0.00  0.00    +0.000 NA
ATOM      5  C   UNL     1       4.172   2.071  19.478  0.00  0.00    +0.000 C 
ATOM      6  C   UNL     1       3.269   2.831  20.429  0.00  0.00    +0.000 C 
ATOM      7  N   UNL     1       3.164   4.108  19.803  0.00  0.00    +0.000 N 
ATOM      8  C   UNL     1       2.436   5.163  20.299  0.00  0.00    +0.000 C 
ATOM      9  O   UNL     1       1.786   5.116  21.339  0.00  0.00    +0.000 OA
ATOM     10  C   UNL     1       2.478   6.402  19.481  0.00  0.00    +0.000 A 
ATOM     11  C   UNL     1       1.763   7.527  19.918  0.00  0.00    +0.000 A 
ATOM     12  C   UNL     1       1.797   8.694  19.165  0.00  0.00    +0.000 A 
ATOM     13 CL   UNL     1       0.928  10.083  19.685  0.00  0.00    +0.000 Cl
ATOM     14  C   UNL     1       2.533   8.745  17.987  0.00  0.00    +0.000 A 
ATOM     15  C   UNL     1       3.243   7.619  17.555  0.00  0.00    +0.000 A 
ATOM     16  C   UNL     1       3.235   6.420  18.288  0.00  0.00    +0.000 A 
ENDROOT
TORSDOF 0
ENDMDL
MODEL 9
REMARK VINA RESULT:      -5.8      1.901      3.170
REMARK  Name = 
REMARK  1 active torsions:
REMARK  status: ('A' for Active; 'I' for Inactive)
REMARK    1  A    between atoms: C_1  and  N_2
REMARK                            x       y       z     vdW  Elec       q    Type
REMARK                         _______ _______ _______ _____ _____    ______ ____
ROOT
ATOM      1  C   UNL     1       2.857   3.250  19.834  0.00  0.00    +0.000 C 
ATOM      2  N   UNL     1       3.046   4.550  19.202  0.00  0.00    +0.000 N 
ATOM      3  C   UNL     1       2.439   5.669  19.725  0.00  0.00    +0.000 C 
ATOM      4  N   UNL     1       1.676   5.706  20.776  0.00  0.00    +0.000 NA
ATOM      5  C   UNL     1       1.265   7.119  20.947  0.00  0.00    +0.000 C 
ATOM      6  C   UNL     1       1.920   7.900  19.825  0.00  0.00    +0.000 C 
ATOM      7  N   UNL     1       2.632   6.886  19.117  0.00  0.00    +0.000 N 
ATOM      8  C   UNL     1       3.397   7.107  17.998  0.00  0.00    +0.000 C 
ATOM      9  O   UNL     1       3.547   8.208  17.477  0.00  0.00    +0.000 OA
ATOM     10  C   UNL     1       4.054   5.901  17.431  0.00  0.00    +0.000 A 
ATOM     11  C   UNL     1       4.857   6.039  16.289  0.00  0.00    +0.000 A 
ATOM     12  C   UNL     1       5.480   4.920  15.752  0.00  0.00    +0.000 A 
ATOM     13 CL   UNL     1       6.468   5.070  14.353  0.00  0.00    +0.000 Cl
ATOM     14  C   UNL     1       5.309   3.673  16.342  0.00  0.00    +0.000 A 
ATOM     15  C   UNL     1       4.507   3.540  17.481  0.00  0.00    +0.000 A 
ATOM     16  C   UNL     1       3.859   4.648  18.055  0.00  0.00    +0.000 A 
ENDROOT
TORSDOF 0
ENDMDL
