MODEL 1
REMARK VINA RESULT:      -8.2      0.000      0.000
REMARK  Name = 
REMARK  9 active torsions:
REMARK  status: ('A' for Active; 'I' for Inactive)
REMARK    1  A    between atoms: C_1  and  C_2
REMARK    2  A    between atoms: C_2  and  C_3
REMARK    3  A    between atoms: C_6  and  N_7
REMARK    4  A    between atoms: N_7  and  C_8
REMARK    5  A    between atoms: N_7  and  S_16
REMARK    6  A    between atoms: C_8  and  C_9
REMARK    7  A    between atoms: S_16  and  C_19
REMARK    8  A    between atoms: C_24  and  C_25
REMARK    9  A    between atoms: C_25  and  C_26
REMARK                            x       y       z     vdW  Elec       q    Type
REMARK                         _______ _______ _______ _____ _____    ______ ____
ROOT
ATOM      1  N   UNL     1       5.720   5.176  16.886  0.00  0.00    +0.000 N 
ENDROOT
BRANCH   1   5
ATOM      2  C   UNL     1       8.307   8.135  18.509  0.00  0.00    +0.000 A 
ATOM      3  C   UNL     1       7.545   8.389  17.363  0.00  0.00    +0.000 A 
ATOM      4  C   UNL     1       6.754   7.383  16.796  0.00  0.00    +0.000 A 
ATOM      5  C   UNL     1       6.693   6.114  17.383  0.00  0.00    +0.000 A 
ATOM      6  C   UNL     1       7.517   5.832  18.472  0.00  0.00    +0.000 A 
ATOM      7  C   UNL     1       8.318   6.836  19.033  0.00  0.00    +0.000 A 
BRANCH   2   9
ATOM      8  C   UNL     1       9.097  10.506  18.340  0.00  0.00    +0.000 C 
ATOM      9  C   UNL     1       9.026   9.260  19.216  0.00  0.00    +0.000 C 
ENDBRANCH   2   9
ENDBRANCH   1   5
BRANCH   1  10
ATOM     10  S   UNL     1       4.728   4.357  17.998  0.00  0.00    +0.000 S 
ATOM     11  O   UNL     1       3.855   3.492  17.222  0.00  0.00    +0.000 OA
ATOM     12  O   UNL     1       5.632   3.723  18.949  0.00  0.00    +0.000 OA
BRANCH  10  13
ATOM     13  C   UNL     1       3.680   5.418  18.920  0.00  0.00    +0.000 A 
ATOM     14  C   UNL     1       3.211   4.934  20.098  0.00  0.00    +0.000 A 
ATOM     15  C   UNL     1       2.218   5.654  20.888  0.00  0.00    +0.000 A 
ATOM     16  C   UNL     1       1.749   6.825  20.430  0.00  0.00    +0.000 A 
ATOM     17  N   UNL     1       2.234   7.324  19.221  0.00  0.00    +0.000 N 
ATOM     18  C   UNL     1       1.965   8.501  18.550  0.00  0.00    +0.000 A 
ATOM     19  N   UNL     1       2.643   8.514  17.419  0.00  0.00    +0.000 NA
ATOM     20  N   UNL     1       3.399   7.375  17.356  0.00  0.00    +0.000 NA
ATOM     21  C   UNL     1       3.176   6.658  18.435  0.00  0.00    +0.000 A 
BRANCH  18  22
ATOM     22  C   UNL     1       1.128   9.620  19.064  0.00  0.00    +0.000 C 
ATOM     23  C   UNL     1      -0.038   9.964  18.153  0.00  0.00    +0.000 C 
ENDBRANCH  18  22
ENDBRANCH  10  13
ENDBRANCH   1  10
BRANCH   1  24
ATOM     24  C   UNL     1       5.184   5.401  15.522  0.00  0.00    +0.000 C 
BRANCH  24  25
ATOM     25  C   UNL     1       5.915   4.757  14.353  0.00  0.00    +0.000 A 
ATOM     26  C   UNL     1       5.216   3.778  13.615  0.00  0.00    +0.000 A 
ATOM     27  C   UNL     1       5.753   3.232  12.448  0.00  0.00    +0.000 A 
ATOM     28  C   UNL     1       6.997   3.657  12.010  0.00  0.00    +0.000 A 
ATOM     29  F   UNL     1       7.497   3.165  10.867  0.00  0.00    +0.000 F 
ATOM     30  C   UNL     1       7.722   4.598  12.731  0.00  0.00    +0.000 A 
ATOM     31  C   UNL     1       7.182   5.152  13.903  0.00  0.00    +0.000 A 
ENDBRANCH  24  25
ENDBRANCH   1  24
TORSDOF 7
ENDMDL
MODEL 2
REMARK VINA RESULT:      -7.9      6.737     10.174
REMARK  Name = 
REMARK  9 active torsions:
REMARK  status: ('A' for Active; 'I' for Inactive)
REMARK    1  A    between atoms: C_1  and  C_2
REMARK    2  A    between atoms: C_2  and  C_3
REMARK    3  A    between atoms: C_6  and  N_7
REMARK    4  A    between atoms: N_7  and  C_8
REMARK    5  A    between atoms: N_7  and  S_16
REMARK    6  A    between atoms: C_8  and  C_9
REMARK    7  A    between atoms: S_16  and  C_19
REMARK    8  A    between atoms: C_24  and  C_25
REMARK    9  A    between atoms: C_25  and  C_26
REMARK                            x       y       z     vdW  Elec       q    Type
REMARK                         _______ _______ _______ _____ _____    ______ ____
ROOT
ATOM      1  N   UNL     1       0.068  11.196  19.630  0.00  0.00    +0.000 N 
ENDROOT
BRANCH   1   5
ATOM      2  C   UNL     1       2.041   7.429  19.696  0.00  0.00    +0.000 A 
ATOM      3  C   UNL     1       1.411   7.937  20.837  0.00  0.00    +0.000 A 
ATOM      4  C   UNL     1       0.830   9.211  20.823  0.00  0.00    +0.000 A 
ATOM      5  C   UNL     1       0.846   9.985  19.658  0.00  0.00    +0.000 A 
ATOM      6  C   UNL     1       1.548   9.519  18.546  0.00  0.00    +0.000 A 
ATOM      7  C   UNL     1       2.140   8.248  18.563  0.00  0.00    +0.000 A 
BRANCH   2   9
ATOM      8  C   UNL     1       1.779   5.141  20.680  0.00  0.00    +0.000 C 
ATOM      9  C   UNL     1       2.518   5.997  19.657  0.00  0.00    +0.000 C 
ENDBRANCH   2   9
ENDBRANCH   1   5
BRANCH   1  10
ATOM     10  S   UNL     1       0.553  12.505  20.601  0.00  0.00    +0.000 S 
ATOM     11  O   UNL     1       1.842  12.148  21.171  0.00  0.00    +0.000 OA
ATOM     12  O   UNL     1       0.500  13.682  19.744  0.00  0.00    +0.000 OA
BRANCH  10  13
ATOM     13  C   UNL     1      -0.518  12.812  21.955  0.00  0.00    +0.000 A 
ATOM     14  C   UNL     1      -1.535  11.933  22.136  0.00  0.00    +0.000 A 
ATOM     15  C   UNL     1      -2.578  12.153  23.132  0.00  0.00    +0.000 A 
ATOM     16  C   UNL     1      -2.533  13.264  23.884  0.00  0.00    +0.000 A 
ATOM     17  N   UNL     1      -1.485  14.165  23.701  0.00  0.00    +0.000 N 
ATOM     18  C   UNL     1      -1.173  15.342  24.354  0.00  0.00    +0.000 A 
ATOM     19  N   UNL     1      -0.098  15.867  23.800  0.00  0.00    +0.000 NA
ATOM     20  N   UNL     1       0.337  15.023  22.814  0.00  0.00    +0.000 NA
ATOM     21  C   UNL     1      -0.477  13.991  22.751  0.00  0.00    +0.000 A 
BRANCH  18  22
ATOM     22  C   UNL     1      -1.873  15.879  25.553  0.00  0.00    +0.000 C 
ATOM     23  C   UNL     1      -0.934  16.180  26.708  0.00  0.00    +0.000 C 
ENDBRANCH  18  22
ENDBRANCH  10  13
ENDBRANCH   1  10
BRANCH   1  24
ATOM     24  C   UNL     1      -0.682  11.502  18.389  0.00  0.00    +0.000 C 
BRANCH  24  25
ATOM     25  C   UNL     1      -2.157  11.131  18.337  0.00  0.00    +0.000 A 
ATOM     26  C   UNL     1      -3.073  12.043  18.902  0.00  0.00    +0.000 A 
ATOM     27  C   UNL     1      -4.450  11.855  18.782  0.00  0.00    +0.000 A 
ATOM     28  C   UNL     1      -4.926  10.747  18.098  0.00  0.00    +0.000 A 
ATOM     29  F   UNL     1      -6.249  10.585  17.945  0.00  0.00    +0.000 F 
ATOM     30  C   UNL     1      -4.049   9.815  17.555  0.00  0.00    +0.000 A 
ATOM     31  C   UNL     1      -2.663  10.006  17.672  0.00  0.00    +0.000 A 
ENDBRANCH  24  25
ENDBRANCH   1  24
TORSDOF 7
ENDMDL
MODEL 3
REMARK VINA RESULT:      -7.8      5.786      9.166
REMARK  Name = 
REMARK  9 active torsions:
REMARK  status: ('A' for Active; 'I' for Inactive)
REMARK    1  A    between atoms: C_1  and  C_2
REMARK    2  A    between atoms: C_2  and  C_3
REMARK    3  A    between atoms: C_6  and  N_7
REMARK    4  A    between atoms: N_7  and  C_8
REMARK    5  A    between atoms: N_7  and  S_16
REMARK    6  A    between atoms: C_8  and  C_9
REMARK    7  A    between atoms: S_16  and  C_19
REMARK    8  A    between atoms: C_24  and  C_25
REMARK    9  A    between atoms: C_25  and  C_26
REMARK                            x       y       z     vdW  Elec       q    Type
REMARK                         _______ _______ _______ _____ _____    ______ ____
ROOT
ATOM      1  N   UNL     1       0.250   9.829  20.139  0.00  0.00    +0.000 N 
ENDROOT
BRANCH   1   5
ATOM      2  C   UNL     1       2.946   7.044  18.390  0.00  0.00    +0.000 A 
ATOM      3  C   UNL     1       2.437   6.849  19.679  0.00  0.00    +0.000 A 
ATOM      4  C   UNL     1       1.610   7.809  20.272  0.00  0.00    +0.000 A 
ATOM      5  C   UNL     1       1.257   8.969  19.573  0.00  0.00    +0.000 A 
ATOM      6  C   UNL     1       1.832   9.208  18.325  0.00  0.00    +0.000 A 
ATOM      7  C   UNL     1       2.669   8.251  17.736  0.00  0.00    +0.000 A 
BRANCH   2   9
ATOM      8  C   UNL     1       4.736   6.505  16.723  0.00  0.00    +0.000 C 
ATOM      9  C   UNL     1       3.698   5.939  17.686  0.00  0.00    +0.000 C 
ENDBRANCH   2   9
ENDBRANCH   1   5
BRANCH   1  10
ATOM     10  S   UNL     1       0.185  10.013  21.828  0.00  0.00    +0.000 S 
ATOM     11  O   UNL     1      -0.638   8.927  22.336  0.00  0.00    +0.000 OA
ATOM     12  O   UNL     1       1.569  10.075  22.280  0.00  0.00    +0.000 OA
BRANCH  10  13
ATOM     13  C   UNL     1      -0.587  11.501  22.345  0.00  0.00    +0.000 A 
ATOM     14  C   UNL     1      -1.824  11.385  22.891  0.00  0.00    +0.000 A 
ATOM     15  C   UNL     1      -2.632  12.553  23.225  0.00  0.00    +0.000 A 
ATOM     16  C   UNL     1      -2.138  13.777  22.977  0.00  0.00    +0.000 A 
ATOM     17  N   UNL     1      -0.865  13.895  22.420  0.00  0.00    +0.000 N 
ATOM     18  C   UNL     1      -0.109  15.008  22.108  0.00  0.00    +0.000 A 
ATOM     19  N   UNL     1       1.025  14.616  21.563  0.00  0.00    +0.000 NA
ATOM     20  N   UNL     1       1.051  13.247  21.555  0.00  0.00    +0.000 NA
ATOM     21  C   UNL     1      -0.070  12.800  22.078  0.00  0.00    +0.000 A 
BRANCH  18  22
ATOM     22  C   UNL     1      -0.469  16.417  22.427  0.00  0.00    +0.000 C 
ATOM     23  C   UNL     1      -1.234  17.107  21.311  0.00  0.00    +0.000 C 
ENDBRANCH  18  22
ENDBRANCH  10  13
ENDBRANCH   1  10
BRANCH   1  24
ATOM     24  C   UNL     1      -0.242  10.952  19.306  0.00  0.00    +0.000 C 
BRANCH  24  25
ATOM     25  C   UNL     1      -1.645  10.849  18.726  0.00  0.00    +0.000 A 
ATOM     26  C   UNL     1      -2.603  11.776  19.188  0.00  0.00    +0.000 A 
ATOM     27  C   UNL     1      -3.875  11.846  18.618  0.00  0.00    +0.000 A 
ATOM     28  C   UNL     1      -4.203  10.987  17.582  0.00  0.00    +0.000 A 
ATOM     29  F   UNL     1      -5.409  11.080  17.004  0.00  0.00    +0.000 F 
ATOM     30  C   UNL     1      -3.289  10.043  17.125  0.00  0.00    +0.000 A 
ATOM     31  C   UNL     1      -2.008   9.973  17.695  0.00  0.00    +0.000 A 
ENDBRANCH  24  25
ENDBRANCH   1  24
TORSDOF 7
ENDMDL
MODEL 4
REMARK VINA RESULT:      -7.8      2.632      4.384
REMARK  Name = 
REMARK  9 active torsions:
REMARK  status: ('A' for Active; 'I' for Inactive)
REMARK    1  A    between atoms: C_1  and  C_2
REMARK    2  A    between atoms: C_2  and  C_3
REMARK    3  A    between atoms: C_6  and  N_7
REMARK    4  A    between atoms: N_7  and  C_8
REMARK    5  A    between atoms: N_7  and  S_16
REMARK    6  A    between atoms: C_8  and  C_9
REMARK    7  A    between atoms: S_16  and  C_19
REMARK    8  A    between atoms: C_24  and  C_25
REMARK    9  A    between atoms: C_25  and  C_26
REMARK                            x       y       z     vdW  Elec       q    Type
REMARK                         _______ _______ _______ _____ _____    ______ ____
ROOT
ATOM      1  N   UNL     1       4.835   4.665  16.741  0.00  0.00    +0.000 N 
ENDROOT
BRANCH   1   5
ATOM      2  C   UNL     1       2.179   2.518  19.276  0.00  0.00    +0.000 A 
ATOM      3  C   UNL     1       3.556   2.545  19.526  0.00  0.00    +0.000 A 
ATOM      4  C   UNL     1       4.428   3.194  18.643  0.00  0.00    +0.000 A 
ATOM      5  C   UNL     1       3.932   3.847  17.510  0.00  0.00    +0.000 A 
ATOM      6  C   UNL     1       2.573   3.747  17.211  0.00  0.00    +0.000 A 
ATOM      7  C   UNL     1       1.701   3.089  18.089  0.00  0.00    +0.000 A 
BRANCH   2   9
ATOM      8  C   UNL     1       1.429   2.638  21.662  0.00  0.00    +0.000 C 
ATOM      9  C   UNL     1       1.223   1.968  20.308  0.00  0.00    +0.000 C 
ENDBRANCH   2   9
ENDBRANCH   1   5
BRANCH   1  10
ATOM     10  S   UNL     1       4.955   6.320  17.109  0.00  0.00    +0.000 S 
ATOM     11  O   UNL     1       6.265   6.523  17.705  0.00  0.00    +0.000 OA
ATOM     12  O   UNL     1       4.664   7.029  15.869  0.00  0.00    +0.000 OA
BRANCH  10  13
ATOM     13  C   UNL     1       3.784   6.865  18.294  0.00  0.00    +0.000 A 
ATOM     14  C   UNL     1       3.617   6.080  19.389  0.00  0.00    +0.000 A 
ATOM     15  C   UNL     1       2.574   6.342  20.374  0.00  0.00    +0.000 A 
ATOM     16  C   UNL     1       1.750   7.385  20.187  0.00  0.00    +0.000 A 
ATOM     17  N   UNL     1       1.924   8.194  19.064  0.00  0.00    +0.000 N 
ATOM     18  C   UNL     1       1.263   9.335  18.655  0.00  0.00    +0.000 A 
ATOM     19  N   UNL     1       1.763   9.729  17.500  0.00  0.00    +0.000 NA
ATOM     20  N   UNL     1       2.786   8.885  17.162  0.00  0.00    +0.000 NA
ATOM     21  C   UNL     1       2.904   7.967  18.096  0.00  0.00    +0.000 A 
BRANCH  18  22
ATOM     22  C   UNL     1       0.225  10.063  19.437  0.00  0.00    +0.000 C 
ATOM     23  C   UNL     1       0.811  11.020  20.461  0.00  0.00    +0.000 C 
ENDBRANCH  18  22
ENDBRANCH  10  13
ENDBRANCH   1  10
BRANCH   1  24
ATOM     24  C   UNL     1       6.020   4.005  16.145  0.00  0.00    +0.000 C 
BRANCH  24  25
ATOM     25  C   UNL     1       6.292   4.228  14.665  0.00  0.00    +0.000 A 
ATOM     26  C   UNL     1       7.344   5.105  14.327  0.00  0.00    +0.000 A 
ATOM     27  C   UNL     1       7.755   5.266  13.002  0.00  0.00    +0.000 A 
ATOM     28  C   UNL     1       7.112   4.555  12.002  0.00  0.00    +0.000 A 
ATOM     29  F   UNL     1       7.531   4.676  10.733  0.00  0.00    +0.000 F 
ATOM     30  C   UNL     1       6.053   3.705  12.300  0.00  0.00    +0.000 A 
ATOM     31  C   UNL     1       5.642   3.539  13.633  0.00  0.00    +0.000 A 
ENDBRANCH  24  25
ENDBRANCH   1  24
TORSDOF 7
ENDMDL
MODEL 5
REMARK VINA RESULT:      -7.8      2.634      4.300
REMARK  Name = 
REMARK  9 active torsions:
REMARK  status: ('A' for Active; 'I' for Inactive)
REMARK    1  A    between atoms: C_1  and  C_2
REMARK    2  A    between atoms: C_2  and  C_3
REMARK    3  A    between atoms: C_6  and  N_7
REMARK    4  A    between atoms: N_7  and  C_8
REMARK    5  A    between atoms: N_7  and  S_16
REMARK    6  A    between atoms: C_8  and  C_9
REMARK    7  A    between atoms: S_16  and  C_19
REMARK    8  A    between atoms: C_24  and  C_25
REMARK    9  A    between atoms: C_25  and  C_26
REMARK                            x       y       z     vdW  Elec       q    Type
REMARK                         _______ _______ _______ _____ _____    ______ ____
ROOT
ATOM      1  N   UNL     1       4.894   4.753  16.799  0.00  0.00    +0.000 N 
ENDROOT
BRANCH   1   5
ATOM      2  C   UNL     1       2.094   2.655  19.216  0.00  0.00    +0.000 A 
ATOM      3  C   UNL     1       3.460   2.651  19.520  0.00  0.00    +0.000 A 
ATOM      4  C   UNL     1       4.380   3.283  18.675  0.00  0.00    +0.000 A 
ATOM      5  C   UNL     1       3.943   3.953  17.527  0.00  0.00    +0.000 A 
ATOM      6  C   UNL     1       2.595   3.884  17.175  0.00  0.00    +0.000 A 
ATOM      7  C   UNL     1       1.675   3.242  18.015  0.00  0.00    +0.000 A 
BRANCH   2   9
ATOM      8  C   UNL     1       1.383   2.621  21.617  0.00  0.00    +0.000 C 
ATOM      9  C   UNL     1       1.086   2.122  20.207  0.00  0.00    +0.000 C 
ENDBRANCH   2   9
ENDBRANCH   1   5
BRANCH   1  10
ATOM     10  S   UNL     1       4.897   6.437  17.034  0.00  0.00    +0.000 S 
ATOM     11  O   UNL     1       6.213   6.786  17.544  0.00  0.00    +0.000 OA
ATOM     12  O   UNL     1       4.492   7.021  15.761  0.00  0.00    +0.000 OA
BRANCH  10  13
ATOM     13  C   UNL     1       3.741   6.982  18.235  0.00  0.00    +0.000 A 
ATOM     14  C   UNL     1       3.577   6.189  19.324  0.00  0.00    +0.000 A 
ATOM     15  C   UNL     1       2.546   6.452  20.322  0.00  0.00    +0.000 A 
ATOM     16  C   UNL     1       1.730   7.504  20.151  0.00  0.00    +0.000 A 
ATOM     17  N   UNL     1       1.902   8.321  19.034  0.00  0.00    +0.000 N 
ATOM     18  C   UNL     1       1.248   9.473  18.641  0.00  0.00    +0.000 A 
ATOM     19  N   UNL     1       1.741   9.872  17.485  0.00  0.00    +0.000 NA
ATOM     20  N   UNL     1       2.753   9.022  17.130  0.00  0.00    +0.000 NA
ATOM     21  C   UNL     1       2.871   8.094  18.055  0.00  0.00    +0.000 A 
BRANCH  18  22
ATOM     22  C   UNL     1       0.225  10.204  19.439  0.00  0.00    +0.000 C 
ATOM     23  C   UNL     1      -1.137  10.250  18.767  0.00  0.00    +0.000 C 
ENDBRANCH  18  22
ENDBRANCH  10  13
ENDBRANCH   1  10
BRANCH   1  24
ATOM     24  C   UNL     1       6.169   4.112  16.401  0.00  0.00    +0.000 C 
BRANCH  24  25
ATOM     25  C   UNL     1       6.624   4.264  14.957  0.00  0.00    +0.000 A 
ATOM     26  C   UNL     1       5.929   3.521  13.980  0.00  0.00    +0.000 A 
ATOM     27  C   UNL     1       6.184   3.696  12.619  0.00  0.00    +0.000 A 
ATOM     28  C   UNL     1       7.142   4.615  12.222  0.00  0.00    +0.000 A 
ATOM     29  F   UNL     1       7.361   4.817  10.914  0.00  0.00    +0.000 F 
ATOM     30  C   UNL     1       7.864   5.341  13.162  0.00  0.00    +0.000 A 
ATOM     31  C   UNL     1       7.606   5.168  14.531  0.00  0.00    +0.000 A 
ENDBRANCH  24  25
ENDBRANCH   1  24
TORSDOF 7
ENDMDL
MODEL 6
REMARK VINA RESULT:      -7.7      6.810     10.229
REMARK  Name = 
REMARK  9 active torsions:
REMARK  status: ('A' for Active; 'I' for Inactive)
REMARK    1  A    between atoms: C_1  and  C_2
REMARK    2  A    between atoms: C_2  and  C_3
REMARK    3  A    between atoms: C_6  and  N_7
REMARK    4  A    between atoms: N_7  and  C_8
REMARK    5  A    between atoms: N_7  and  S_16
REMARK    6  A    between atoms: C_8  and  C_9
REMARK    7  A    between atoms: S_16  and  C_19
REMARK    8  A    between atoms: C_24  and  C_25
REMARK    9  A    between atoms: C_25  and  C_26
REMARK                            x       y       z     vdW  Elec       q    Type
REMARK                         _______ _______ _______ _____ _____    ______ ____
ROOT
ATOM      1  N   UNL     1      -0.156  11.483  19.397  0.00  0.00    +0.000 N 
ENDROOT
BRANCH   1   5
ATOM      2  C   UNL     1       2.029   7.836  19.275  0.00  0.00    +0.000 A 
ATOM      3  C   UNL     1       1.853   8.614  18.125  0.00  0.00    +0.000 A 
ATOM      4  C   UNL     1       1.069   9.774  18.162  0.00  0.00    +0.000 A 
ATOM      5  C   UNL     1       0.471  10.187  19.358  0.00  0.00    +0.000 A 
ATOM      6  C   UNL     1       0.572   9.369  20.483  0.00  0.00    +0.000 A 
ATOM      7  C   UNL     1       1.348   8.202  20.443  0.00  0.00    +0.000 A 
BRANCH   2   9
ATOM      8  C   UNL     1       2.542   5.566  18.352  0.00  0.00    +0.000 C 
ATOM      9  C   UNL     1       3.006   6.684  19.279  0.00  0.00    +0.000 C 
ENDBRANCH   2   9
ENDBRANCH   1   5
BRANCH   1  10
ATOM     10  S   UNL     1       0.430  12.645  20.489  0.00  0.00    +0.000 S 
ATOM     11  O   UNL     1       1.703  12.148  20.986  0.00  0.00    +0.000 OA
ATOM     12  O   UNL     1       0.439  13.910  19.765  0.00  0.00    +0.000 OA
BRANCH  10  13
ATOM     13  C   UNL     1      -0.594  12.870  21.895  0.00  0.00    +0.000 A 
ATOM     14  C   UNL     1      -1.605  11.980  22.058  0.00  0.00    +0.000 A 
ATOM     15  C   UNL     1      -2.614  12.140  23.100  0.00  0.00    +0.000 A 
ATOM     16  C   UNL     1      -2.544  13.206  23.914  0.00  0.00    +0.000 A 
ATOM     17  N   UNL     1      -1.502  14.118  23.748  0.00  0.00    +0.000 N 
ATOM     18  C   UNL     1      -1.168  15.255  24.457  0.00  0.00    +0.000 A 
ATOM     19  N   UNL     1      -0.113  15.814  23.899  0.00  0.00    +0.000 NA
ATOM     20  N   UNL     1       0.288  15.029  22.852  0.00  0.00    +0.000 NA
ATOM     21  C   UNL     1      -0.526  14.002  22.756  0.00  0.00    +0.000 A 
BRANCH  18  22
ATOM     22  C   UNL     1      -1.827  15.720  25.709  0.00  0.00    +0.000 C 
ATOM     23  C   UNL     1      -0.852  16.301  26.718  0.00  0.00    +0.000 C 
ENDBRANCH  18  22
ENDBRANCH  10  13
ENDBRANCH   1  10
BRANCH   1  24
ATOM     24  C   UNL     1      -0.802  11.971  18.155  0.00  0.00    +0.000 C 
BRANCH  24  25
ATOM     25  C   UNL     1      -2.274  11.650  17.942  0.00  0.00    +0.000 A 
ATOM     26  C   UNL     1      -3.164  11.980  18.985  0.00  0.00    +0.000 A 
ATOM     27  C   UNL     1      -4.545  11.848  18.828  0.00  0.00    +0.000 A 
ATOM     28  C   UNL     1      -5.049  11.379  17.625  0.00  0.00    +0.000 A 
ATOM     29  F   UNL     1      -6.376  11.291  17.456  0.00  0.00    +0.000 F 
ATOM     30  C   UNL     1      -4.195  11.018  16.589  0.00  0.00    +0.000 A 
ATOM     31  C   UNL     1      -2.806  11.154  16.744  0.00  0.00    +0.000 A 
ENDBRANCH  24  25
ENDBRANCH   1  24
TORSDOF 7
ENDMDL
MODEL 7
REMARK VINA RESULT:      -7.7      5.592      8.750
REMARK  Name = 
REMARK  9 active torsions:
REMARK  status: ('A' for Active; 'I' for Inactive)
REMARK    1  A    between atoms: C_1  and  C_2
REMARK    2  A    between atoms: C_2  and  C_3
REMARK    3  A    between atoms: C_6  and  N_7
REMARK    4  A    between atoms: N_7  and  C_8
REMARK    5  A    between atoms: N_7  and  S_16
REMARK    6  A    between atoms: C_8  and  C_9
REMARK    7  A    between atoms: S_16  and  C_19
REMARK    8  A    between atoms: C_24  and  C_25
REMARK    9  A    between atoms: C_25  and  C_26
REMARK                            x       y       z     vdW  Elec       q    Type
REMARK                         _______ _______ _______ _____ _____    ______ ____
ROOT
ATOM      1  N   UNL     1      -0.220  11.393  19.572  0.00  0.00    +0.000 N 
ENDROOT
BRANCH   1   5
ATOM      2  C   UNL     1       1.836  15.030  18.778  0.00  0.00    +0.000 A 
ATOM      3  C   UNL     1       2.263  13.820  18.221  0.00  0.00    +0.000 A 
ATOM      4  C   UNL     1       1.623  12.618  18.549  0.00  0.00    +0.000 A 
ATOM      5  C   UNL     1       0.528  12.614  19.419  0.00  0.00    +0.000 A 
ATOM      6  C   UNL     1       0.155  13.804  20.044  0.00  0.00    +0.000 A 
ATOM      7  C   UNL     1       0.803  15.005  19.725  0.00  0.00    +0.000 A 
BRANCH   2   9
ATOM      8  C   UNL     1       3.937  16.299  18.282  0.00  0.00    +0.000 C 
ATOM      9  C   UNL     1       2.413  16.341  18.299  0.00  0.00    +0.000 C 
ENDBRANCH   2   9
ENDBRANCH   1   5
BRANCH   1  10
ATOM     10  S   UNL     1       0.429  10.149  20.531  0.00  0.00    +0.000 S 
ATOM     11  O   UNL     1       1.302  10.783  21.506  0.00  0.00    +0.000 OA
ATOM     12  O   UNL     1      -0.711   9.396  21.039  0.00  0.00    +0.000 OA
BRANCH  10  13
ATOM     13  C   UNL     1       1.428   9.018  19.637  0.00  0.00    +0.000 A 
ATOM     14  C   UNL     1       1.833   9.410  18.403  0.00  0.00    +0.000 A 
ATOM     15  C   UNL     1       2.542   8.509  17.501  0.00  0.00    +0.000 A 
ATOM     16  C   UNL     1       2.792   7.253  17.902  0.00  0.00    +0.000 A 
ATOM     17  N   UNL     1       2.379   6.851  19.172  0.00  0.00    +0.000 N 
ATOM     18  C   UNL     1       2.540   5.656  19.845  0.00  0.00    +0.000 A 
ATOM     19  N   UNL     1       1.941   5.740  21.016  0.00  0.00    +0.000 NA
ATOM     20  N   UNL     1       1.424   7.000  21.148  0.00  0.00    +0.000 NA
ATOM     21  C   UNL     1       1.689   7.683  20.056  0.00  0.00    +0.000 A 
BRANCH  18  22
ATOM     22  C   UNL     1       3.346   4.497  19.371  0.00  0.00    +0.000 C 
ATOM     23  C   UNL     1       2.897   3.173  19.965  0.00  0.00    +0.000 C 
ENDBRANCH  18  22
ENDBRANCH  10  13
ENDBRANCH   1  10
BRANCH   1  24
ATOM     24  C   UNL     1      -1.695  11.471  19.453  0.00  0.00    +0.000 C 
BRANCH  24  25
ATOM     25  C   UNL     1      -2.336  10.973  18.167  0.00  0.00    +0.000 A 
ATOM     26  C   UNL     1      -3.584  11.526  17.811  0.00  0.00    +0.000 A 
ATOM     27  C   UNL     1      -4.183  11.231  16.585  0.00  0.00    +0.000 A 
ATOM     28  C   UNL     1      -3.541  10.375  15.705  0.00  0.00    +0.000 A 
ATOM     29  F   UNL     1      -4.094  10.122  14.509  0.00  0.00    +0.000 F 
ATOM     30  C   UNL     1      -2.325   9.791  16.040  0.00  0.00    +0.000 A 
ATOM     31  C   UNL     1      -1.719  10.090  17.271  0.00  0.00    +0.000 A 
ENDBRANCH  24  25
ENDBRANCH   1  24
TORSDOF 7
ENDMDL
MODEL 8
REMARK VINA RESULT:      -7.6      6.267      9.862
REMARK  Name = 
REMARK  9 active torsions:
REMARK  status: ('A' for Active; 'I' for Inactive)
REMARK    1  A    between atoms: C_1  and  C_2
REMARK    2  A    between atoms: C_2  and  C_3
REMARK    3  A    between atoms: C_6  and  N_7
REMARK    4  A    between atoms: N_7  and  C_8
REMARK    5  A    between atoms: N_7  and  S_16
REMARK    6  A    between atoms: C_8  and  C_9
REMARK    7  A    between atoms: S_16  and  C_19
REMARK    8  A    between atoms: C_24  and  C_25
REMARK    9  A    between atoms: C_25  and  C_26
REMARK                            x       y       z     vdW  Elec       q    Type
REMARK                         _______ _______ _______ _____ _____    ______ ____
ROOT
ATOM      1  N   UNL     1       0.282  10.801  19.766  0.00  0.00    +0.000 N 
ENDROOT
BRANCH   1   5
ATOM      2  C   UNL     1       2.496   7.341  18.663  0.00  0.00    +0.000 A 
ATOM      3  C   UNL     1       1.987   7.494  19.958  0.00  0.00    +0.000 A 
ATOM      4  C   UNL     1       1.324   8.670  20.329  0.00  0.00    +0.000 A 
ATOM      5  C   UNL     1       1.137   9.701  19.402  0.00  0.00    +0.000 A 
ATOM      6  C   UNL     1       1.718   9.588  18.139  0.00  0.00    +0.000 A 
ATOM      7  C   UNL     1       2.391   8.416  17.771  0.00  0.00    +0.000 A 
BRANCH   2   9
ATOM      8  C   UNL     1       1.949   4.995  17.980  0.00  0.00    +0.000 C 
ATOM      9  C   UNL     1       3.059   6.014  18.212  0.00  0.00    +0.000 C 
ENDBRANCH   2   9
ENDBRANCH   1   5
BRANCH   1  10
ATOM     10  S   UNL     1       0.565  11.608  21.235  0.00  0.00    +0.000 S 
ATOM     11  O   UNL     1       0.447  10.614  22.289  0.00  0.00    +0.000 OA
ATOM     12  O   UNL     1       1.850  12.279  21.083  0.00  0.00    +0.000 OA
BRANCH  10  13
ATOM     13  C   UNL     1      -0.619  12.851  21.594  0.00  0.00    +0.000 A 
ATOM     14  C   UNL     1      -0.342  14.101  21.145  0.00  0.00    +0.000 A 
ATOM     15  C   UNL     1      -1.168  15.250  21.501  0.00  0.00    +0.000 A 
ATOM     16  C   UNL     1      -2.227  15.064  22.304  0.00  0.00    +0.000 A 
ATOM     17  N   UNL     1      -2.514  13.779  22.762  0.00  0.00    +0.000 N 
ATOM     18  C   UNL     1      -3.546  13.303  23.547  0.00  0.00    +0.000 A 
ATOM     19  N   UNL     1      -3.372  12.011  23.745  0.00  0.00    +0.000 NA
ATOM     20  N   UNL     1      -2.258  11.614  23.056  0.00  0.00    +0.000 NA
ATOM     21  C   UNL     1      -1.739  12.659  22.450  0.00  0.00    +0.000 A 
BRANCH  18  22
ATOM     22  C   UNL     1      -4.719  14.094  24.010  0.00  0.00    +0.000 C 
ATOM     23  C   UNL     1      -6.047  13.518  23.553  0.00  0.00    +0.000 C 
ENDBRANCH  18  22
ENDBRANCH  10  13
ENDBRANCH   1  10
BRANCH   1  24
ATOM     24  C   UNL     1      -0.350  11.571  18.669  0.00  0.00    +0.000 C 
BRANCH  24  25
ATOM     25  C   UNL     1      -1.839  11.373  18.423  0.00  0.00    +0.000 A 
ATOM     26  C   UNL     1      -2.225  10.244  17.671  0.00  0.00    +0.000 A 
ATOM     27  C   UNL     1      -3.570   9.907  17.509  0.00  0.00    +0.000 A 
ATOM     28  C   UNL     1      -4.543  10.700  18.094  0.00  0.00    +0.000 A 
ATOM     29  F   UNL     1      -5.833  10.356  17.976  0.00  0.00    +0.000 F 
ATOM     30  C   UNL     1      -4.195  11.836  18.817  0.00  0.00    +0.000 A 
ATOM     31  C   UNL     1      -2.842  12.174  18.984  0.00  0.00    +0.000 A 
ENDBRANCH  24  25
ENDBRANCH   1  24
TORSDOF 7
ENDMDL
MODEL 9
REMARK VINA RESULT:      -7.5      6.863      9.838
REMARK  Name = 
REMARK  9 active torsions:
REMARK  status: ('A' for Active; 'I' for Inactive)
REMARK    1  A    between atoms: C_1  and  C_2
REMARK    2  A    between atoms: C_2  and  C_3
REMARK    3  A    between atoms: C_6  and  N_7
REMARK    4  A    between atoms: N_7  and  C_8
REMARK    5  A    between atoms: N_7  and  S_16
REMARK    6  A    between atoms: C_8  and  C_9
REMARK    7  A    between atoms: S_16  and  C_19
REMARK    8  A    between atoms: C_24  and  C_25
REMARK    9  A    between atoms: C_25  and  C_26
REMARK                            x       y       z     vdW  Elec       q    Type
REMARK                         _______ _______ _______ _____ _____    ______ ____
ROOT
ATOM      1  N   UNL     1       0.035  11.995  20.862  0.00  0.00    +0.000 N 
ENDROOT
BRANCH   1   5
ATOM      2  C   UNL     1       2.523  15.067  19.294  0.00  0.00    +0.000 A 
ATOM      3  C   UNL     1       3.018  14.129  20.207  0.00  0.00    +0.000 A 
ATOM      4  C   UNL     1       2.170  13.168  20.772  0.00  0.00    +0.000 A 
ATOM      5  C   UNL     1       0.820  13.115  20.412  0.00  0.00    +0.000 A 
ATOM      6  C   UNL     1       0.305  14.101  19.570  0.00  0.00    +0.000 A 
ATOM      7  C   UNL     1       1.150  15.070  19.013  0.00  0.00    +0.000 A 
BRANCH   2   9
ATOM      8  C   UNL     1       2.723  16.806  17.503  0.00  0.00    +0.000 C 
ATOM      9  C   UNL     1       3.464  15.992  18.559  0.00  0.00    +0.000 C 
ENDBRANCH   2   9
ENDBRANCH   1   5
BRANCH   1  10
ATOM     10  S   UNL     1      -0.895  12.160  22.275  0.00  0.00    +0.000 S 
ATOM     11  O   UNL     1      -0.876  10.869  22.943  0.00  0.00    +0.000 OA
ATOM     12  O   UNL     1      -0.335  13.298  22.994  0.00  0.00    +0.000 OA
BRANCH  10  13
ATOM     13  C   UNL     1      -2.581  12.532  21.968  0.00  0.00    +0.000 A 
ATOM     14  C   UNL     1      -2.872  13.083  20.763  0.00  0.00    +0.000 A 
ATOM     15  C   UNL     1      -4.208  13.572  20.439  0.00  0.00    +0.000 A 
ATOM     16  C   UNL     1      -5.174  13.482  21.367  0.00  0.00    +0.000 A 
ATOM     17  N   UNL     1      -4.876  12.912  22.604  0.00  0.00    +0.000 N 
ATOM     18  C   UNL     1      -5.673  12.659  23.704  0.00  0.00    +0.000 A 
ATOM     19  N   UNL     1      -4.929  12.137  24.660  0.00  0.00    +0.000 NA
ATOM     20  N   UNL     1      -3.653  11.996  24.186  0.00  0.00    +0.000 NA
ATOM     21  C   UNL     1      -3.607  12.444  22.951  0.00  0.00    +0.000 A 
BRANCH  18  22
ATOM     22  C   UNL     1      -7.148  12.847  23.767  0.00  0.00    +0.000 C 
ATOM     23  C   UNL     1      -7.556  14.225  24.259  0.00  0.00    +0.000 C 
ENDBRANCH  18  22
ENDBRANCH  10  13
ENDBRANCH   1  10
BRANCH   1  24
ATOM     24  C   UNL     1      -0.433  11.029  19.839  0.00  0.00    +0.000 C 
BRANCH  24  25
ATOM     25  C   UNL     1       0.453   9.833  19.528  0.00  0.00    +0.000 A 
ATOM     26  C   UNL     1       0.911   9.697  18.200  0.00  0.00    +0.000 A 
ATOM     27  C   UNL     1       1.835   8.711  17.850  0.00  0.00    +0.000 A 
ATOM     28  C   UNL     1       2.306   7.847  18.825  0.00  0.00    +0.000 A 
ATOM     29  F   UNL     1       3.225   6.925  18.501  0.00  0.00    +0.000 F 
ATOM     30  C   UNL     1       1.852   7.937  20.136  0.00  0.00    +0.000 A 
ATOM     31  C   UNL     1       0.925   8.931  20.490  0.00  0.00    +0.000 A 
ENDBRANCH  24  25
ENDBRANCH   1  24
TORSDOF 7
ENDMDL
