MODEL 1
REMARK VINA RESULT:      -6.8      0.000      0.000
REMARK  Name = 
REMARK  11 active torsions:
REMARK  status: ('A' for Active; 'I' for Inactive)
REMARK    1  A    between atoms: C_1  and  C_2
REMARK    2  A    between atoms: C_2  and  C_3
REMARK    3  A    between atoms: C_4  and  C_5
REMARK    4  A    between atoms: C_7  and  C_8
REMARK    5  A    between atoms: C_10  and  N_11
REMARK    6  A    between atoms: C_13  and  C_14
REMARK    7  A    between atoms: C_14  and  O_15
REMARK    8  A    between atoms: C_16  and  C_17
REMARK    9  A    between atoms: C_17  and  N_18
REMARK   10  A    between atoms: N_18  and  C_19
REMARK   11  A    between atoms: N_18  and  C_20
REMARK                            x       y       z     vdW  Elec       q    Type
REMARK                         _______ _______ _______ _____ _____    ______ ____
ROOT
ATOM      1  N   UNL     1       4.959   4.808  18.362  0.00  0.00    +0.000 N 
ATOM      2  C   UNL     1       6.331   5.121  18.738  0.00  0.00    +0.000 C 
ATOM      3  C   UNL     1       6.947   5.698  17.466  0.00  0.00    +0.000 C 
ATOM      4  C   UNL     1       6.266   4.830  16.391  0.00  0.00    +0.000 C 
ATOM      5  C   UNL     1       4.826   4.626  16.915  0.00  0.00    +0.000 C 
ENDROOT
BRANCH   1  13
ATOM      6  C   UNL     1       3.423   3.630  19.844  0.00  0.00    +0.000 A 
ATOM      7  C   UNL     1       2.414   3.791  20.798  0.00  0.00    +0.000 A 
ATOM      8  C   UNL     1       1.854   2.697  21.661  0.00  0.00    +0.000 C 
ATOM      9  N   UNL     1       1.823   4.979  21.018  0.00  0.00    +0.000 NA
ATOM     10  C   UNL     1       2.246   6.027  20.298  0.00  0.00    +0.000 A 
ATOM     11  C   UNL     1       1.551   7.331  20.535  0.00  0.00    +0.000 C 
ATOM     12  N   UNL     1       3.247   5.976  19.408  0.00  0.00    +0.000 NA
ATOM     13  C   UNL     1       3.872   4.794  19.208  0.00  0.00    +0.000 A 
BRANCH   6  15
ATOM     14  C   UNL     1       3.260   1.620  18.302  0.00  0.00    +0.000 C 
ATOM     15  C   UNL     1       3.970   2.261  19.494  0.00  0.00    +0.000 C 
ENDBRANCH   6  15
ENDBRANCH   1  13
BRANCH   3  16
ATOM     16  C   UNL     1       6.713   7.211  17.386  0.00  0.00    +0.000 C 
BRANCH  16  17
ATOM     17  O   UNL     1       7.873   7.950  17.034  0.00  0.00    +0.000 OA
ATOM     18  H   UNL     1       8.367   7.443  16.358  0.00  0.00    +0.000 HD
ENDBRANCH  16  17
ENDBRANCH   3  16
BRANCH   4  19
ATOM     19  C   UNL     1       6.339   5.370  14.960  0.00  0.00    +0.000 C 
BRANCH  19  20
ATOM     20  N   UNL     1       6.935   4.417  13.999  0.00  0.00    +0.000 NA
ATOM     21  C   UNL     1       5.931   3.656  13.255  0.00  0.00    +0.000 C 
ATOM     22  C   UNL     1       7.800   5.138  13.059  0.00  0.00    +0.000 C 
ENDBRANCH  19  20
ENDBRANCH   4  19
TORSDOF 6
ENDMDL
MODEL 2
REMARK VINA RESULT:      -6.4      1.242      2.573
REMARK  Name = 
REMARK  11 active torsions:
REMARK  status: ('A' for Active; 'I' for Inactive)
REMARK    1  A    between atoms: C_1  and  C_2
REMARK    2  A    between atoms: C_2  and  C_3
REMARK    3  A    between atoms: C_4  and  C_5
REMARK    4  A    between atoms: C_7  and  C_8
REMARK    5  A    between atoms: C_10  and  N_11
REMARK    6  A    between atoms: C_13  and  C_14
REMARK    7  A    between atoms: C_14  and  O_15
REMARK    8  A    between atoms: C_16  and  C_17
REMARK    9  A    between atoms: C_17  and  N_18
REMARK   10  A    between atoms: N_18  and  C_19
REMARK   11  A    between atoms: N_18  and  C_20
REMARK                            x       y       z     vdW  Elec       q    Type
REMARK                         _______ _______ _______ _____ _____    ______ ____
ROOT
ATOM      1  N   UNL     1       4.545   4.371  18.155  0.00  0.00    +0.000 N 
ATOM      2  C   UNL     1       5.994   4.473  18.279  0.00  0.00    +0.000 C 
ATOM      3  C   UNL     1       6.465   4.847  16.877  0.00  0.00    +0.000 C 
ATOM      4  C   UNL     1       5.484   4.034  16.011  0.00  0.00    +0.000 C 
ATOM      5  C   UNL     1       4.141   4.115  16.771  0.00  0.00    +0.000 C 
ENDROOT
BRANCH   1  13
ATOM      6  C   UNL     1       3.108   5.871  19.430  0.00  0.00    +0.000 A 
ATOM      7  C   UNL     1       2.071   5.932  20.365  0.00  0.00    +0.000 A 
ATOM      8  C   UNL     1       1.307   7.171  20.735  0.00  0.00    +0.000 C 
ATOM      9  N   UNL     1       1.667   4.849  21.054  0.00  0.00    +0.000 NA
ATOM     10  C   UNL     1       2.284   3.687  20.805  0.00  0.00    +0.000 A 
ATOM     11  C   UNL     1       1.842   2.504  21.607  0.00  0.00    +0.000 C 
ATOM     12  N   UNL     1       3.244   3.526  19.883  0.00  0.00    +0.000 NA
ATOM     13  C   UNL     1       3.630   4.601  19.159  0.00  0.00    +0.000 A 
BRANCH   6  15
ATOM     14  C   UNL     1       2.826   7.590  17.584  0.00  0.00    +0.000 C 
ATOM     15  C   UNL     1       3.658   7.123  18.777  0.00  0.00    +0.000 C 
ENDBRANCH   6  15
ENDBRANCH   1  13
BRANCH   3  16
ATOM     16  C   UNL     1       6.460   6.369  16.689  0.00  0.00    +0.000 C 
BRANCH  16  17
ATOM     17  O   UNL     1       7.753   6.954  16.729  0.00  0.00    +0.000 OA
ATOM     18  H   UNL     1       7.781   7.680  16.073  0.00  0.00    +0.000 HD
ENDBRANCH  16  17
ENDBRANCH   3  16
BRANCH   4  19
ATOM     19  C   UNL     1       5.395   4.454  14.541  0.00  0.00    +0.000 C 
BRANCH  19  20
ATOM     20  N   UNL     1       6.481   3.899  13.703  0.00  0.00    +0.000 NA
ATOM     21  C   UNL     1       5.995   3.323  12.449  0.00  0.00    +0.000 C 
ATOM     22  C   UNL     1       7.465   4.947  13.412  0.00  0.00    +0.000 C 
ENDBRANCH  19  20
ENDBRANCH   4  19
TORSDOF 6
ENDMDL
MODEL 3
REMARK VINA RESULT:      -6.2      0.825      1.094
REMARK  Name = 
REMARK  11 active torsions:
REMARK  status: ('A' for Active; 'I' for Inactive)
REMARK    1  A    between atoms: C_1  and  C_2
REMARK    2  A    between atoms: C_2  and  C_3
REMARK    3  A    between atoms: C_4  and  C_5
REMARK    4  A    between atoms: C_7  and  C_8
REMARK    5  A    between atoms: C_10  and  N_11
REMARK    6  A    between atoms: C_13  and  C_14
REMARK    7  A    between atoms: C_14  and  O_15
REMARK    8  A    between atoms: C_16  and  C_17
REMARK    9  A    between atoms: C_17  and  N_18
REMARK   10  A    between atoms: N_18  and  C_19
REMARK   11  A    between atoms: N_18  and  C_20
REMARK                            x       y       z     vdW  Elec       q    Type
REMARK                         _______ _______ _______ _____ _____    ______ ____
ROOT
ATOM      1  N   UNL     1       4.829   4.799  18.176  0.00  0.00    +0.000 N 
ATOM      2  C   UNL     1       6.169   4.440  18.626  0.00  0.00    +0.000 C 
ATOM      3  C   UNL     1       7.096   5.110  17.616  0.00  0.00    +0.000 C 
ATOM      4  C   UNL     1       6.283   4.943  16.316  0.00  0.00    +0.000 C 
ATOM      5  C   UNL     1       4.814   5.142  16.753  0.00  0.00    +0.000 C 
ENDROOT
BRANCH   1  13
ATOM      6  C   UNL     1       3.053   3.831  19.536  0.00  0.00    +0.000 A 
ATOM      7  C   UNL     1       2.040   4.117  20.457  0.00  0.00    +0.000 A 
ATOM      8  C   UNL     1       1.267   3.097  21.242  0.00  0.00    +0.000 C 
ATOM      9  N   UNL     1       1.643   5.377  20.711  0.00  0.00    +0.000 NA
ATOM     10  C   UNL     1       2.265   6.369  20.062  0.00  0.00    +0.000 A 
ATOM     11  C   UNL     1       1.784   7.760  20.336  0.00  0.00    +0.000 C 
ATOM     12  N   UNL     1       3.285   6.190  19.211  0.00  0.00    +0.000 NA
ATOM     13  C   UNL     1       3.716   4.930  18.977  0.00  0.00    +0.000 A 
BRANCH   6  15
ATOM     14  C   UNL     1       2.720   1.980  17.832  0.00  0.00    +0.000 C 
ATOM     15  C   UNL     1       3.383   2.406  19.141  0.00  0.00    +0.000 C 
ENDBRANCH   6  15
ENDBRANCH   1  13
BRANCH   3  16
ATOM     16  C   UNL     1       7.427   6.544  18.046  0.00  0.00    +0.000 C 
BRANCH  16  17
ATOM     17  O   UNL     1       8.320   6.617  19.148  0.00  0.00    +0.000 OA
ATOM     18  H   UNL     1       9.175   6.227  18.875  0.00  0.00    +0.000 HD
ENDBRANCH  16  17
ENDBRANCH   3  16
BRANCH   4  19
ATOM     19  C   UNL     1       6.714   5.834  15.148  0.00  0.00    +0.000 C 
BRANCH  19  20
ATOM     20  N   UNL     1       6.680   5.146  13.839  0.00  0.00    +0.000 NA
ATOM     21  C   UNL     1       7.941   5.255  13.105  0.00  0.00    +0.000 C 
ATOM     22  C   UNL     1       6.346   3.730  14.032  0.00  0.00    +0.000 C 
ENDBRANCH  19  20
ENDBRANCH   4  19
TORSDOF 6
ENDMDL
MODEL 4
REMARK VINA RESULT:      -5.8      1.596      2.618
REMARK  Name = 
REMARK  11 active torsions:
REMARK  status: ('A' for Active; 'I' for Inactive)
REMARK    1  A    between atoms: C_1  and  C_2
REMARK    2  A    between atoms: C_2  and  C_3
REMARK    3  A    between atoms: C_4  and  C_5
REMARK    4  A    between atoms: C_7  and  C_8
REMARK    5  A    between atoms: C_10  and  N_11
REMARK    6  A    between atoms: C_13  and  C_14
REMARK    7  A    between atoms: C_14  and  O_15
REMARK    8  A    between atoms: C_16  and  C_17
REMARK    9  A    between atoms: C_17  and  N_18
REMARK   10  A    between atoms: N_18  and  C_19
REMARK   11  A    between atoms: N_18  and  C_20
REMARK                            x       y       z     vdW  Elec       q    Type
REMARK                         _______ _______ _______ _____ _____    ______ ____
ROOT
ATOM      1  N   UNL     1       5.519   3.986  17.795  0.00  0.00    +0.000 N 
ATOM      2  C   UNL     1       6.754   4.734  17.990  0.00  0.00    +0.000 C 
ATOM      3  C   UNL     1       6.965   5.462  16.666  0.00  0.00    +0.000 C 
ATOM      4  C   UNL     1       6.458   4.405  15.666  0.00  0.00    +0.000 C 
ATOM      5  C   UNL     1       5.251   3.751  16.375  0.00  0.00    +0.000 C 
ENDROOT
BRANCH   1  13
ATOM      6  C   UNL     1       3.333   4.166  18.860  0.00  0.00    +0.000 A 
ATOM      7  C   UNL     1       2.480   3.598  19.810  0.00  0.00    +0.000 A 
ATOM      8  C   UNL     1       1.033   3.952  20.000  0.00  0.00    +0.000 C 
ATOM      9  N   UNL     1       2.905   2.666  20.683  0.00  0.00    +0.000 NA
ATOM     10  C   UNL     1       4.183   2.276  20.605  0.00  0.00    +0.000 A 
ATOM     11  C   UNL     1       4.642   1.264  21.607  0.00  0.00    +0.000 C 
ATOM     12  N   UNL     1       5.052   2.722  19.686  0.00  0.00    +0.000 NA
ATOM     13  C   UNL     1       4.625   3.631  18.781  0.00  0.00    +0.000 A 
BRANCH   6  15
ATOM     14  C   UNL     1       3.119   6.686  18.642  0.00  0.00    +0.000 C 
ATOM     15  C   UNL     1       2.888   5.323  17.989  0.00  0.00    +0.000 C 
ENDBRANCH   6  15
ENDBRANCH   1  13
BRANCH   3  16
ATOM     16  C   UNL     1       6.244   6.816  16.667  0.00  0.00    +0.000 C 
BRANCH  16  17
ATOM     17  O   UNL     1       7.060   7.896  17.095  0.00  0.00    +0.000 OA
ATOM     18  H   UNL     1       7.092   8.560  16.376  0.00  0.00    +0.000 HD
ENDBRANCH  16  17
ENDBRANCH   3  16
BRANCH   4  19
ATOM     19  C   UNL     1       6.152   4.920  14.257  0.00  0.00    +0.000 C 
BRANCH  19  20
ATOM     20  N   UNL     1       6.600   4.005  13.184  0.00  0.00    +0.000 NA
ATOM     21  C   UNL     1       5.489   3.392  12.456  0.00  0.00    +0.000 C 
ATOM     22  C   UNL     1       7.461   4.732  12.244  0.00  0.00    +0.000 C 
ENDBRANCH  19  20
ENDBRANCH   4  19
TORSDOF 6
ENDMDL
MODEL 5
REMARK VINA RESULT:      -5.7      1.015      1.141
REMARK  Name = 
REMARK  11 active torsions:
REMARK  status: ('A' for Active; 'I' for Inactive)
REMARK    1  A    between atoms: C_1  and  C_2
REMARK    2  A    between atoms: C_2  and  C_3
REMARK    3  A    between atoms: C_4  and  C_5
REMARK    4  A    between atoms: C_7  and  C_8
REMARK    5  A    between atoms: C_10  and  N_11
REMARK    6  A    between atoms: C_13  and  C_14
REMARK    7  A    between atoms: C_14  and  O_15
REMARK    8  A    between atoms: C_16  and  C_17
REMARK    9  A    between atoms: C_17  and  N_18
REMARK   10  A    between atoms: N_18  and  C_19
REMARK   11  A    between atoms: N_18  and  C_20
REMARK                            x       y       z     vdW  Elec       q    Type
REMARK                         _______ _______ _______ _____ _____    ______ ____
ROOT
ATOM      1  N   UNL     1       5.379   4.738  18.681  0.00  0.00    +0.000 N 
ATOM      2  C   UNL     1       6.674   4.914  19.327  0.00  0.00    +0.000 C 
ATOM      3  C   UNL     1       7.587   5.408  18.209  0.00  0.00    +0.000 C 
ATOM      4  C   UNL     1       7.048   4.600  17.012  0.00  0.00    +0.000 C 
ATOM      5  C   UNL     1       5.520   4.552  17.236  0.00  0.00    +0.000 C 
ENDROOT
BRANCH   1  13
ATOM      6  C   UNL     1       3.481   3.751  19.849  0.00  0.00    +0.000 A 
ATOM      7  C   UNL     1       2.322   4.031  20.579  0.00  0.00    +0.000 A 
ATOM      8  C   UNL     1       1.506   3.022  21.334  0.00  0.00    +0.000 C 
ATOM      9  N   UNL     1       1.809   5.273  20.652  0.00  0.00    +0.000 NA
ATOM     10  C   UNL     1       2.457   6.253  20.011  0.00  0.00    +0.000 A 
ATOM     11  C   UNL     1       1.849   7.620  20.078  0.00  0.00    +0.000 C 
ATOM     12  N   UNL     1       3.606   6.085  19.341  0.00  0.00    +0.000 NA
ATOM     13  C   UNL     1       4.149   4.848  19.293  0.00  0.00    +0.000 A 
BRANCH   6  15
ATOM     14  C   UNL     1       3.384   1.678  18.387  0.00  0.00    +0.000 C 
ATOM     15  C   UNL     1       3.961   2.328  19.644  0.00  0.00    +0.000 C 
ENDBRANCH   6  15
ENDBRANCH   1  13
BRANCH   3  16
ATOM     16  C   UNL     1       7.532   6.936  18.094  0.00  0.00    +0.000 C 
BRANCH  16  17
ATOM     17  O   UNL     1       8.536   7.601  18.845  0.00  0.00    +0.000 OA
ATOM     18  H   UNL     1       8.888   6.975  19.509  0.00  0.00    +0.000 HD
ENDBRANCH  16  17
ENDBRANCH   3  16
BRANCH   4  19
ATOM     19  C   UNL     1       7.461   5.110  15.629  0.00  0.00    +0.000 C 
BRANCH  19  20
ATOM     20  N   UNL     1       6.320   5.314  14.710  0.00  0.00    +0.000 NA
ATOM     21  C   UNL     1       5.679   4.062  14.311  0.00  0.00    +0.000 C 
ATOM     22  C   UNL     1       5.328   6.193  15.342  0.00  0.00    +0.000 C 
ENDBRANCH  19  20
ENDBRANCH   4  19
TORSDOF 6
ENDMDL
MODEL 6
REMARK VINA RESULT:      -5.6      1.928      2.793
REMARK  Name = 
REMARK  11 active torsions:
REMARK  status: ('A' for Active; 'I' for Inactive)
REMARK    1  A    between atoms: C_1  and  C_2
REMARK    2  A    between atoms: C_2  and  C_3
REMARK    3  A    between atoms: C_4  and  C_5
REMARK    4  A    between atoms: C_7  and  C_8
REMARK    5  A    between atoms: C_10  and  N_11
REMARK    6  A    between atoms: C_13  and  C_14
REMARK    7  A    between atoms: C_14  and  O_15
REMARK    8  A    between atoms: C_16  and  C_17
REMARK    9  A    between atoms: C_17  and  N_18
REMARK   10  A    between atoms: N_18  and  C_19
REMARK   11  A    between atoms: N_18  and  C_20
REMARK                            x       y       z     vdW  Elec       q    Type
REMARK                         _______ _______ _______ _____ _____    ______ ____
ROOT
ATOM      1  N   UNL     1       4.228   5.760  18.172  0.00  0.00    +0.000 N 
ATOM      2  C   UNL     1       4.932   4.767  18.975  0.00  0.00    +0.000 C 
ATOM      3  C   UNL     1       6.277   4.602  18.273  0.00  0.00    +0.000 C 
ATOM      4  C   UNL     1       5.856   4.734  16.797  0.00  0.00    +0.000 C 
ATOM      5  C   UNL     1       4.752   5.815  16.806  0.00  0.00    +0.000 C 
ENDROOT
BRANCH   1  13
ATOM      6  C   UNL     1       2.498   6.389  19.770  0.00  0.00    +0.000 A 
ATOM      7  C   UNL     1       1.684   7.435  20.212  0.00  0.00    +0.000 A 
ATOM      8  C   UNL     1       0.848   7.416  21.460  0.00  0.00    +0.000 C 
ATOM      9  N   UNL     1       1.559   8.582  19.521  0.00  0.00    +0.000 NA
ATOM     10  C   UNL     1       2.261   8.706  18.388  0.00  0.00    +0.000 A 
ATOM     11  C   UNL     1       2.080   9.977  17.618  0.00  0.00    +0.000 C 
ATOM     12  N   UNL     1       3.111   7.780  17.923  0.00  0.00    +0.000 NA
ATOM     13  C   UNL     1       3.272   6.639  18.630  0.00  0.00    +0.000 A 
BRANCH   6  15
ATOM     14  C   UNL     1       1.379   4.124  20.015  0.00  0.00    +0.000 C 
ATOM     15  C   UNL     1       2.510   5.045  20.471  0.00  0.00    +0.000 C 
ENDBRANCH   6  15
ENDBRANCH   1  13
BRANCH   3  16
ATOM     16  C   UNL     1       7.294   5.623  18.798  0.00  0.00    +0.000 C 
BRANCH  16  17
ATOM     17  O   UNL     1       7.594   5.473  20.177  0.00  0.00    +0.000 OA
ATOM     18  H   UNL     1       8.545   5.261  20.263  0.00  0.00    +0.000 HD
ENDBRANCH  16  17
ENDBRANCH   3  16
BRANCH   4  19
ATOM     19  C   UNL     1       6.991   5.008  15.807  0.00  0.00    +0.000 C 
BRANCH  19  20
ATOM     20  N   UNL     1       6.542   5.083  14.400  0.00  0.00    +0.000 NA
ATOM     21  C   UNL     1       7.646   5.264  13.458  0.00  0.00    +0.000 C 
ATOM     22  C   UNL     1       5.796   3.868  14.054  0.00  0.00    +0.000 C 
ENDBRANCH  19  20
ENDBRANCH   4  19
TORSDOF 6
ENDMDL
MODEL 7
REMARK VINA RESULT:      -5.6      2.483      3.840
REMARK  Name = 
REMARK  11 active torsions:
REMARK  status: ('A' for Active; 'I' for Inactive)
REMARK    1  A    between atoms: C_1  and  C_2
REMARK    2  A    between atoms: C_2  and  C_3
REMARK    3  A    between atoms: C_4  and  C_5
REMARK    4  A    between atoms: C_7  and  C_8
REMARK    5  A    between atoms: C_10  and  N_11
REMARK    6  A    between atoms: C_13  and  C_14
REMARK    7  A    between atoms: C_14  and  O_15
REMARK    8  A    between atoms: C_16  and  C_17
REMARK    9  A    between atoms: C_17  and  N_18
REMARK   10  A    between atoms: N_18  and  C_19
REMARK   11  A    between atoms: N_18  and  C_20
REMARK                            x       y       z     vdW  Elec       q    Type
REMARK                         _______ _______ _______ _____ _____    ______ ____
ROOT
ATOM      1  N   UNL     1       3.254   5.992  18.119  0.00  0.00    +0.000 N 
ATOM      2  C   UNL     1       2.797   4.640  17.826  0.00  0.00    +0.000 C 
ATOM      3  C   UNL     1       4.066   3.794  17.885  0.00  0.00    +0.000 C 
ATOM      4  C   UNL     1       5.096   4.769  17.280  0.00  0.00    +0.000 C 
ATOM      5  C   UNL     1       4.679   6.155  17.823  0.00  0.00    +0.000 C 
ENDROOT
BRANCH   1  13
ATOM      6  C   UNL     1       2.031   6.892  20.026  0.00  0.00    +0.000 A 
ATOM      7  C   UNL     1       1.429   8.038  20.554  0.00  0.00    +0.000 A 
ATOM      8  C   UNL     1       0.934   8.187  21.964  0.00  0.00    +0.000 C 
ATOM      9  N   UNL     1       1.215   9.138  19.810  0.00  0.00    +0.000 NA
ATOM     10  C   UNL     1       1.616   9.114  18.533  0.00  0.00    +0.000 A 
ATOM     11  C   UNL     1       1.337  10.336  17.716  0.00  0.00    +0.000 C 
ATOM     12  N   UNL     1       2.255   8.082  17.963  0.00  0.00    +0.000 NA
ATOM     13  C   UNL     1       2.508   6.986  18.713  0.00  0.00    +0.000 A 
BRANCH   6  15
ATOM     14  C   UNL     1       0.994   4.627  20.513  0.00  0.00    +0.000 C 
ATOM     15  C   UNL     1       2.123   5.608  20.825  0.00  0.00    +0.000 C 
ENDBRANCH   6  15
ENDBRANCH   1  13
BRANCH   3  16
ATOM     16  C   UNL     1       4.330   3.305  19.313  0.00  0.00    +0.000 C 
BRANCH  16  17
ATOM     17  O   UNL     1       4.909   2.010  19.376  0.00  0.00    +0.000 OA
ATOM     18  H   UNL     1       5.252   1.870  20.282  0.00  0.00    +0.000 HD
ENDBRANCH  16  17
ENDBRANCH   3  16
BRANCH   4  19
ATOM     19  C   UNL     1       6.565   4.417  17.530  0.00  0.00    +0.000 C 
BRANCH  19  20
ATOM     20  N   UNL     1       7.497   5.072  16.586  0.00  0.00    +0.000 NA
ATOM     21  C   UNL     1       7.102   4.906  15.187  0.00  0.00    +0.000 C 
ATOM     22  C   UNL     1       7.595   6.502  16.901  0.00  0.00    +0.000 C 
ENDBRANCH  19  20
ENDBRANCH   4  19
TORSDOF 6
ENDMDL
MODEL 8
REMARK VINA RESULT:      -5.6      3.129      6.534
REMARK  Name = 
REMARK  11 active torsions:
REMARK  status: ('A' for Active; 'I' for Inactive)
REMARK    1  A    between atoms: C_1  and  C_2
REMARK    2  A    between atoms: C_2  and  C_3
REMARK    3  A    between atoms: C_4  and  C_5
REMARK    4  A    between atoms: C_7  and  C_8
REMARK    5  A    between atoms: C_10  and  N_11
REMARK    6  A    between atoms: C_13  and  C_14
REMARK    7  A    between atoms: C_14  and  O_15
REMARK    8  A    between atoms: C_16  and  C_17
REMARK    9  A    between atoms: C_17  and  N_18
REMARK   10  A    between atoms: N_18  and  C_19
REMARK   11  A    between atoms: N_18  and  C_20
REMARK                            x       y       z     vdW  Elec       q    Type
REMARK                         _______ _______ _______ _____ _____    ______ ____
ROOT
ATOM      1  N   UNL     1       2.384   6.770  19.123  0.00  0.00    +0.000 N 
ATOM      2  C   UNL     1       1.784   7.335  17.921  0.00  0.00    +0.000 C 
ATOM      3  C   UNL     1       1.447   8.772  18.309  0.00  0.00    +0.000 C 
ATOM      4  C   UNL     1       1.017   8.586  19.777  0.00  0.00    +0.000 C 
ATOM      5  C   UNL     1       1.971   7.500  20.324  0.00  0.00    +0.000 C 
ENDROOT
BRANCH   1  13
ATOM      6  C   UNL     1       2.969   4.404  19.153  0.00  0.00    +0.000 A 
ATOM      7  C   UNL     1       4.018   3.489  19.031  0.00  0.00    +0.000 A 
ATOM      8  C   UNL     1       3.863   2.001  18.907  0.00  0.00    +0.000 C 
ATOM      9  N   UNL     1       5.307   3.878  19.034  0.00  0.00    +0.000 NA
ATOM     10  C   UNL     1       5.562   5.188  19.142  0.00  0.00    +0.000 A 
ATOM     11  C   UNL     1       7.002   5.594  19.178  0.00  0.00    +0.000 C 
ATOM     12  N   UNL     1       4.617   6.137  19.202  0.00  0.00    +0.000 NA
ATOM     13  C   UNL     1       3.319   5.759  19.161  0.00  0.00    +0.000 A 
BRANCH   6  15
ATOM     14  C   UNL     1       1.133   3.709  20.762  0.00  0.00    +0.000 C 
ATOM     15  C   UNL     1       1.533   3.944  19.306  0.00  0.00    +0.000 C 
ENDBRANCH   6  15
ENDBRANCH   1  13
BRANCH   3  16
ATOM     16  C   UNL     1       2.639   9.701  18.049  0.00  0.00    +0.000 C 
BRANCH  16  17
ATOM     17  O   UNL     1       2.279  10.935  17.446  0.00  0.00    +0.000 OA
ATOM     18  H   UNL     1       2.646  10.951  16.538  0.00  0.00    +0.000 HD
ENDBRANCH  16  17
ENDBRANCH   3  16
BRANCH   4  19
ATOM     19  C   UNL     1       0.975   9.862  20.621  0.00  0.00    +0.000 C 
BRANCH  19  20
ATOM     20  N   UNL     1      -0.304  10.053  21.339  0.00  0.00    +0.000 NA
ATOM     21  C   UNL     1      -0.202   9.770  22.771  0.00  0.00    +0.000 C 
ATOM     22  C   UNL     1      -0.781  11.427  21.144  0.00  0.00    +0.000 C 
ENDBRANCH  19  20
ENDBRANCH   4  19
TORSDOF 6
ENDMDL
MODEL 9
REMARK VINA RESULT:      -5.6      3.218      7.071
REMARK  Name = 
REMARK  11 active torsions:
REMARK  status: ('A' for Active; 'I' for Inactive)
REMARK    1  A    between atoms: C_1  and  C_2
REMARK    2  A    between atoms: C_2  and  C_3
REMARK    3  A    between atoms: C_4  and  C_5
REMARK    4  A    between atoms: C_7  and  C_8
REMARK    5  A    between atoms: C_10  and  N_11
REMARK    6  A    between atoms: C_13  and  C_14
REMARK    7  A    between atoms: C_14  and  O_15
REMARK    8  A    between atoms: C_16  and  C_17
REMARK    9  A    between atoms: C_17  and  N_18
REMARK   10  A    between atoms: N_18  and  C_19
REMARK   11  A    between atoms: N_18  and  C_20
REMARK                            x       y       z     vdW  Elec       q    Type
REMARK                         _______ _______ _______ _____ _____    ______ ____
ROOT
ATOM      1  N   UNL     1       2.135   7.757  18.566  0.00  0.00    +0.000 N 
ATOM      2  C   UNL     1       1.358   8.568  17.638  0.00  0.00    +0.000 C 
ATOM      3  C   UNL     1       1.055   9.845  18.418  0.00  0.00    +0.000 C 
ATOM      4  C   UNL     1       0.845   9.279  19.836  0.00  0.00    +0.000 C 
ATOM      5  C   UNL     1       1.888   8.145  19.957  0.00  0.00    +0.000 C 
ENDROOT
BRANCH   1  13
ATOM      6  C   UNL     1       2.810   5.447  18.178  0.00  0.00    +0.000 A 
ATOM      7  C   UNL     1       3.815   4.628  17.657  0.00  0.00    +0.000 A 
ATOM      8  C   UNL     1       3.699   3.147  17.433  0.00  0.00    +0.000 C 
ATOM      9  N   UNL     1       5.025   5.110  17.318  0.00  0.00    +0.000 NA
ATOM     10  C   UNL     1       5.239   6.421  17.480  0.00  0.00    +0.000 A 
ATOM     11  C   UNL     1       6.603   6.930  17.129  0.00  0.00    +0.000 C 
ATOM     12  N   UNL     1       4.314   7.289  17.914  0.00  0.00    +0.000 NA
ATOM     13  C   UNL     1       3.084   6.820  18.221  0.00  0.00    +0.000 A 
BRANCH   6  15
ATOM     14  C   UNL     1       1.569   4.516  20.187  0.00  0.00    +0.000 C 
ATOM     15  C   UNL     1       1.511   4.870  18.702  0.00  0.00    +0.000 C 
ENDBRANCH   6  15
ENDBRANCH   1  13
BRANCH   3  16
ATOM     16  C   UNL     1       2.179  10.871  18.240  0.00  0.00    +0.000 C 
BRANCH  16  17
ATOM     17  O   UNL     1       1.716  12.180  17.941  0.00  0.00    +0.000 OA
ATOM     18  H   UNL     1       1.894  12.753  18.714  0.00  0.00    +0.000 HD
ENDBRANCH  16  17
ENDBRANCH   3  16
BRANCH   4  19
ATOM     19  C   UNL     1       0.903  10.304  20.972  0.00  0.00    +0.000 C 
BRANCH  19  20
ATOM     20  N   UNL     1      -0.270  10.254  21.872  0.00  0.00    +0.000 NA
ATOM     21  C   UNL     1      -0.016   9.497  23.097  0.00  0.00    +0.000 C 
ATOM     22  C   UNL     1      -0.687  11.618  22.216  0.00  0.00    +0.000 C 
ENDBRANCH  19  20
ENDBRANCH   4  19
TORSDOF 6
ENDMDL
