MODEL 1
REMARK VINA RESULT:      -6.0      0.000      0.000
REMARK  Name = 
REMARK  13 active torsions:
REMARK  status: ('A' for Active; 'I' for Inactive)
REMARK    1  A    between atoms: C_1  and  O_2
REMARK    2  A    between atoms: O_2  and  C_3
REMARK    3  A    between atoms: C_3  and  C_4
REMARK    4  A    between atoms: C_4  and  C_5
REMARK    5  A    between atoms: C_5  and  N_6
REMARK    6  A    between atoms: N_6  and  C_7
REMARK    7  A    between atoms: N_6  and  C_14
REMARK    8  A    between atoms: C_7  and  C_8
REMARK    9  A    between atoms: C_19  and  O_21
REMARK   10  A    between atoms: O_21  and  C_22
REMARK   11  A    between atoms: C_22  and  C_23
REMARK   12  A    between atoms: C_22  and  C_24
REMARK   13  A    between atoms: C_22  and  C_25
REMARK                            x       y       z     vdW  Elec       q    Type
REMARK                         _______ _______ _______ _____ _____    ______ ____
ROOT
ATOM      1  C   UNL     1       3.816   2.917  17.665  0.00  0.00    +0.000 C 
ATOM      2  C   UNL     1       3.871   2.465  19.156  0.00  0.00    +0.000 C 
ATOM      3  C   UNL     1       3.583   3.539  20.204  0.00  0.00    +0.000 C 
ATOM      4  C   UNL     1       2.171   4.108  20.095  0.00  0.00    +0.000 C 
ATOM      5  N   UNL     1       2.062   5.030  18.973  0.00  0.00    +0.000 N 
ATOM      6  C   UNL     1       2.438   6.347  19.207  0.00  0.00    +0.000 C 
ATOM      7  O   UNL     1       2.876   6.714  20.293  0.00  0.00    +0.000 OA
ATOM      8  C   UNL     1       1.689   4.504  17.672  0.00  0.00    +0.000 C 
ATOM      9  C   UNL     1       2.331   3.163  17.281  0.00  0.00    +0.000 C 
ENDROOT
BRANCH   1  10
ATOM     10  N   UNL     1       4.759   4.008  17.304  0.00  0.00    +0.000 NA
BRANCH  10  11
ATOM     11  C   UNL     1       5.652   3.684  16.162  0.00  0.00    +0.000 C 
BRANCH  11  12
ATOM     12  C   UNL     1       5.379   4.400  14.826  0.00  0.00    +0.000 C 
BRANCH  12  13
ATOM     13  C   UNL     1       6.524   4.207  13.831  0.00  0.00    +0.000 C 
BRANCH  13  15
ATOM     14  C   UNL     1       8.188   5.652  12.969  0.00  0.00    +0.000 C 
ATOM     15  O   UNL     1       7.560   5.138  14.135  0.00  0.00    +0.000 OA
ENDBRANCH  13  15
ENDBRANCH  12  13
ENDBRANCH  11  12
ENDBRANCH  10  11
BRANCH  10  16
ATOM     16  C   UNL     1       5.517   4.512  18.473  0.00  0.00    +0.000 C 
BRANCH  16  17
ATOM     17  C   UNL     1       6.290   5.784  18.286  0.00  0.00    +0.000 A 
ATOM     18  C   UNL     1       7.529   6.012  18.847  0.00  0.00    +0.000 A 
ATOM     19  N   UNL     1       8.298   7.088  18.578  0.00  0.00    +0.000 NA
ATOM     20  C   UNL     1       7.793   7.949  17.683  0.00  0.00    +0.000 A 
ATOM     21  N   UNL     1       6.611   7.838  17.057  0.00  0.00    +0.000 NA
ATOM     22  C   UNL     1       5.887   6.746  17.379  0.00  0.00    +0.000 A 
ENDBRANCH  16  17
ENDBRANCH  10  16
ENDBRANCH   1  10
BRANCH   6  23
ATOM     23  O   UNL     1       2.257   7.185  18.139  0.00  0.00    +0.000 OA
BRANCH  23  24
ATOM     24  C   UNL     1       1.771   8.533  18.388  0.00  0.00    +0.000 C 
ATOM     25  C   UNL     1       2.810   9.590  17.992  0.00  0.00    +0.000 C 
ATOM     26  C   UNL     1       0.545   8.731  17.476  0.00  0.00    +0.000 C 
ATOM     27  C   UNL     1       1.297   8.706  19.840  0.00  0.00    +0.000 C 
ENDBRANCH  23  24
ENDBRANCH   6  23
TORSDOF 9
ENDMDL
MODEL 2
REMARK VINA RESULT:      -5.9      0.659      1.186
REMARK  Name = 
REMARK  13 active torsions:
REMARK  status: ('A' for Active; 'I' for Inactive)
REMARK    1  A    between atoms: C_1  and  O_2
REMARK    2  A    between atoms: O_2  and  C_3
REMARK    3  A    between atoms: C_3  and  C_4
REMARK    4  A    between atoms: C_4  and  C_5
REMARK    5  A    between atoms: C_5  and  N_6
REMARK    6  A    between atoms: N_6  and  C_7
REMARK    7  A    between atoms: N_6  and  C_14
REMARK    8  A    between atoms: C_7  and  C_8
REMARK    9  A    between atoms: C_19  and  O_21
REMARK   10  A    between atoms: O_21  and  C_22
REMARK   11  A    between atoms: C_22  and  C_23
REMARK   12  A    between atoms: C_22  and  C_24
REMARK   13  A    between atoms: C_22  and  C_25
REMARK                            x       y       z     vdW  Elec       q    Type
REMARK                         _______ _______ _______ _____ _____    ______ ____
ROOT
ATOM      1  C   UNL     1       3.858   2.752  17.759  0.00  0.00    +0.000 C 
ATOM      2  C   UNL     1       3.895   2.341  19.263  0.00  0.00    +0.000 C 
ATOM      3  C   UNL     1       3.541   3.430  20.274  0.00  0.00    +0.000 C 
ATOM      4  C   UNL     1       2.111   3.941  20.117  0.00  0.00    +0.000 C 
ATOM      5  N   UNL     1       1.994   4.829  18.969  0.00  0.00    +0.000 N 
ATOM      6  C   UNL     1       2.314   6.165  19.175  0.00  0.00    +0.000 C 
ATOM      7  O   UNL     1       2.712   6.577  20.261  0.00  0.00    +0.000 OA
ATOM      8  C   UNL     1       1.673   4.255  17.675  0.00  0.00    +0.000 C 
ATOM      9  C   UNL     1       2.374   2.930  17.335  0.00  0.00    +0.000 C 
ENDROOT
BRANCH   1  10
ATOM     10  N   UNL     1       4.767   3.869  17.390  0.00  0.00    +0.000 NA
BRANCH  10  11
ATOM     11  C   UNL     1       5.578   3.613  16.172  0.00  0.00    +0.000 C 
BRANCH  11  12
ATOM     12  C   UNL     1       5.200   4.385  14.895  0.00  0.00    +0.000 C 
BRANCH  12  13
ATOM     13  C   UNL     1       6.396   4.561  13.958  0.00  0.00    +0.000 C 
BRANCH  13  15
ATOM     14  C   UNL     1       5.452   3.369  12.145  0.00  0.00    +0.000 C 
ATOM     15  O   UNL     1       6.490   3.417  13.113  0.00  0.00    +0.000 OA
ENDBRANCH  13  15
ENDBRANCH  12  13
ENDBRANCH  11  12
ENDBRANCH  10  11
BRANCH  10  16
ATOM     16  C   UNL     1       5.603   4.318  18.528  0.00  0.00    +0.000 C 
BRANCH  16  17
ATOM     17  C   UNL     1       6.337   5.615  18.362  0.00  0.00    +0.000 A 
ATOM     18  C   UNL     1       7.567   5.873  18.930  0.00  0.00    +0.000 A 
ATOM     19  N   UNL     1       8.304   6.975  18.679  0.00  0.00    +0.000 NA
ATOM     20  C   UNL     1       7.776   7.833  17.794  0.00  0.00    +0.000 A 
ATOM     21  N   UNL     1       6.600   7.695  17.163  0.00  0.00    +0.000 NA
ATOM     22  C   UNL     1       5.909   6.577  17.466  0.00  0.00    +0.000 A 
ENDBRANCH  16  17
ENDBRANCH  10  16
ENDBRANCH   1  10
BRANCH   6  23
ATOM     23  O   UNL     1       2.127   6.967  18.082  0.00  0.00    +0.000 OA
BRANCH  23  24
ATOM     24  C   UNL     1       1.765   8.360  18.295  0.00  0.00    +0.000 C 
ATOM     25  C   UNL     1       1.506   8.656  19.776  0.00  0.00    +0.000 C 
ATOM     26  C   UNL     1       2.985   9.199  17.866  0.00  0.00    +0.000 C 
ATOM     27  C   UNL     1       0.583   8.780  17.407  0.00  0.00    +0.000 C 
ENDBRANCH  23  24
ENDBRANCH   6  23
TORSDOF 9
ENDMDL
MODEL 3
REMARK VINA RESULT:      -5.7      6.118      9.955
REMARK  Name = 
REMARK  13 active torsions:
REMARK  status: ('A' for Active; 'I' for Inactive)
REMARK    1  A    between atoms: C_1  and  O_2
REMARK    2  A    between atoms: O_2  and  C_3
REMARK    3  A    between atoms: C_3  and  C_4
REMARK    4  A    between atoms: C_4  and  C_5
REMARK    5  A    between atoms: C_5  and  N_6
REMARK    6  A    between atoms: N_6  and  C_7
REMARK    7  A    between atoms: N_6  and  C_14
REMARK    8  A    between atoms: C_7  and  C_8
REMARK    9  A    between atoms: C_19  and  O_21
REMARK   10  A    between atoms: O_21  and  C_22
REMARK   11  A    between atoms: C_22  and  C_23
REMARK   12  A    between atoms: C_22  and  C_24
REMARK   13  A    between atoms: C_22  and  C_25
REMARK                            x       y       z     vdW  Elec       q    Type
REMARK                         _______ _______ _______ _____ _____    ______ ____
ROOT
ATOM      1  C   UNL     1       0.639  11.855  19.894  0.00  0.00    +0.000 C 
ATOM      2  C   UNL     1       0.664  13.070  18.917  0.00  0.00    +0.000 C 
ATOM      3  C   UNL     1      -0.562  13.982  18.934  0.00  0.00    +0.000 C 
ATOM      4  C   UNL     1      -0.774  14.662  20.284  0.00  0.00    +0.000 C 
ATOM      5  N   UNL     1      -1.328  13.732  21.258  0.00  0.00    +0.000 N 
ATOM      6  C   UNL     1      -2.708  13.577  21.262  0.00  0.00    +0.000 C 
ATOM      7  O   UNL     1      -3.430  14.165  20.461  0.00  0.00    +0.000 OA
ATOM      8  C   UNL     1      -0.414  12.949  22.071  0.00  0.00    +0.000 C 
ATOM      9  C   UNL     1       0.818  12.386  21.343  0.00  0.00    +0.000 C 
ENDROOT
BRANCH   1  10
ATOM     10  N   UNL     1      -0.493  10.911  19.695  0.00  0.00    +0.000 NA
BRANCH  10  11
ATOM     11  C   UNL     1      -0.440   9.709  20.566  0.00  0.00    +0.000 C 
BRANCH  11  12
ATOM     12  C   UNL     1       0.928   9.325  21.159  0.00  0.00    +0.000 C 
BRANCH  12  13
ATOM     13  C   UNL     1       1.498   8.063  20.511  0.00  0.00    +0.000 C 
BRANCH  13  15
ATOM     14  C   UNL     1       2.528   7.275  18.532  0.00  0.00    +0.000 C 
ATOM     15  O   UNL     1       1.893   8.370  19.176  0.00  0.00    +0.000 OA
ENDBRANCH  13  15
ENDBRANCH  12  13
ENDBRANCH  11  12
ENDBRANCH  10  11
BRANCH  10  16
ATOM     16  C   UNL     1      -0.687  10.553  18.270  0.00  0.00    +0.000 C 
BRANCH  16  17
ATOM     17  C   UNL     1      -2.012  10.899  17.657  0.00  0.00    +0.000 A 
ATOM     18  C   UNL     1      -2.340  10.623  16.346  0.00  0.00    +0.000 A 
ATOM     19  N   UNL     1      -3.569  10.799  15.818  0.00  0.00    +0.000 NA
ATOM     20  C   UNL     1      -4.503  11.249  16.667  0.00  0.00    +0.000 A 
ATOM     21  N   UNL     1      -4.319  11.543  17.963  0.00  0.00    +0.000 NA
ATOM     22  C   UNL     1      -3.066  11.355  18.426  0.00  0.00    +0.000 A 
ENDBRANCH  16  17
ENDBRANCH  10  16
ENDBRANCH   1  10
BRANCH   6  23
ATOM     23  O   UNL     1      -3.181  12.741  22.238  0.00  0.00    +0.000 OA
BRANCH  23  24
ATOM     24  C   UNL     1      -4.085  13.284  23.241  0.00  0.00    +0.000 C 
ATOM     25  C   UNL     1      -3.773  14.754  23.546  0.00  0.00    +0.000 C 
ATOM     26  C   UNL     1      -5.499  13.232  22.628  0.00  0.00    +0.000 C 
ATOM     27  C   UNL     1      -4.103  12.422  24.512  0.00  0.00    +0.000 C 
ENDBRANCH  23  24
ENDBRANCH   6  23
TORSDOF 9
ENDMDL
MODEL 4
REMARK VINA RESULT:      -5.7      6.843     10.112
REMARK  Name = 
REMARK  13 active torsions:
REMARK  status: ('A' for Active; 'I' for Inactive)
REMARK    1  A    between atoms: C_1  and  O_2
REMARK    2  A    between atoms: O_2  and  C_3
REMARK    3  A    between atoms: C_3  and  C_4
REMARK    4  A    between atoms: C_4  and  C_5
REMARK    5  A    between atoms: C_5  and  N_6
REMARK    6  A    between atoms: N_6  and  C_7
REMARK    7  A    between atoms: N_6  and  C_14
REMARK    8  A    between atoms: C_7  and  C_8
REMARK    9  A    between atoms: C_19  and  O_21
REMARK   10  A    between atoms: O_21  and  C_22
REMARK   11  A    between atoms: C_22  and  C_23
REMARK   12  A    between atoms: C_22  and  C_24
REMARK   13  A    between atoms: C_22  and  C_25
REMARK                            x       y       z     vdW  Elec       q    Type
REMARK                         _______ _______ _______ _____ _____    ______ ____
ROOT
ATOM      1  C   UNL     1      10.510  12.202  17.628  0.00  0.00    +0.000 C 
ATOM      2  C   UNL     1      11.021  13.491  16.914  0.00  0.00    +0.000 C 
ATOM      3  C   UNL     1      11.042  14.768  17.752  0.00  0.00    +0.000 C 
ATOM      4  C   UNL     1      11.981  14.674  18.952  0.00  0.00    +0.000 C 
ATOM      5  N   UNL     1      11.396  13.868  20.013  0.00  0.00    +0.000 N 
ATOM      6  C   UNL     1      10.542  14.518  20.895  0.00  0.00    +0.000 C 
ATOM      7  O   UNL     1      10.260  15.706  20.769  0.00  0.00    +0.000 OA
ATOM      8  C   UNL     1      11.641  12.437  20.017  0.00  0.00    +0.000 C 
ATOM      9  C   UNL     1      11.591  11.743  18.646  0.00  0.00    +0.000 C 
ENDROOT
BRANCH   1  10
ATOM     10  N   UNL     1       9.125  12.284  18.160  0.00  0.00    +0.000 NA
BRANCH  10  11
ATOM     11  C   UNL     1       8.625  11.015  18.749  0.00  0.00    +0.000 C 
BRANCH  11  12
ATOM     12  C   UNL     1       8.874   9.721  17.954  0.00  0.00    +0.000 C 
BRANCH  12  13
ATOM     13  C   UNL     1       7.622   8.846  17.880  0.00  0.00    +0.000 C 
BRANCH  13  15
ATOM     14  C   UNL     1       7.333   6.547  17.401  0.00  0.00    +0.000 C 
ATOM     15  O   UNL     1       7.975   7.509  18.226  0.00  0.00    +0.000 OA
ENDBRANCH  13  15
ENDBRANCH  12  13
ENDBRANCH  11  12
ENDBRANCH  10  11
BRANCH  10  16
ATOM     16  C   UNL     1       8.173  12.850  17.175  0.00  0.00    +0.000 C 
BRANCH  16  17
ATOM     17  C   UNL     1       7.365  14.036  17.614  0.00  0.00    +0.000 A 
ATOM     18  C   UNL     1       6.018  13.974  17.903  0.00  0.00    +0.000 A 
ATOM     19  N   UNL     1       5.308  14.993  18.431  0.00  0.00    +0.000 NA
ATOM     20  C   UNL     1       6.005  16.107  18.698  0.00  0.00    +0.000 A 
ATOM     21  N   UNL     1       7.316  16.290  18.477  0.00  0.00    +0.000 NA
ATOM     22  C   UNL     1       7.965  15.238  17.938  0.00  0.00    +0.000 A 
ENDBRANCH  16  17
ENDBRANCH  10  16
ENDBRANCH   1  10
BRANCH   6  23
ATOM     23  O   UNL     1      10.069  13.730  21.910  0.00  0.00    +0.000 OA
BRANCH  23  24
ATOM     24  C   UNL     1       8.740  13.998  22.438  0.00  0.00    +0.000 C 
ATOM     25  C   UNL     1       7.682  14.001  21.328  0.00  0.00    +0.000 C 
ATOM     26  C   UNL     1       8.405  12.832  23.389  0.00  0.00    +0.000 C 
ATOM     27  C   UNL     1       8.710  15.291  23.267  0.00  0.00    +0.000 C 
ENDBRANCH  23  24
ENDBRANCH   6  23
TORSDOF 9
ENDMDL
MODEL 5
REMARK VINA RESULT:      -5.6      1.100      1.791
REMARK  Name = 
REMARK  13 active torsions:
REMARK  status: ('A' for Active; 'I' for Inactive)
REMARK    1  A    between atoms: C_1  and  O_2
REMARK    2  A    between atoms: O_2  and  C_3
REMARK    3  A    between atoms: C_3  and  C_4
REMARK    4  A    between atoms: C_4  and  C_5
REMARK    5  A    between atoms: C_5  and  N_6
REMARK    6  A    between atoms: N_6  and  C_7
REMARK    7  A    between atoms: N_6  and  C_14
REMARK    8  A    between atoms: C_7  and  C_8
REMARK    9  A    between atoms: C_19  and  O_21
REMARK   10  A    between atoms: O_21  and  C_22
REMARK   11  A    between atoms: C_22  and  C_23
REMARK   12  A    between atoms: C_22  and  C_24
REMARK   13  A    between atoms: C_22  and  C_25
REMARK                            x       y       z     vdW  Elec       q    Type
REMARK                         _______ _______ _______ _____ _____    ______ ____
ROOT
ATOM      1  C   UNL     1       4.087   2.914  17.472  0.00  0.00    +0.000 C 
ATOM      2  C   UNL     1       4.421   2.053  18.729  0.00  0.00    +0.000 C 
ATOM      3  C   UNL     1       3.911   2.580  20.069  0.00  0.00    +0.000 C 
ATOM      4  C   UNL     1       2.388   2.662  20.132  0.00  0.00    +0.000 C 
ATOM      5  N   UNL     1       1.892   3.805  19.380  0.00  0.00    +0.000 N 
ATOM      6  C   UNL     1       1.858   5.025  20.044  0.00  0.00    +0.000 C 
ATOM      7  O   UNL     1       2.259   5.148  21.198  0.00  0.00    +0.000 OA
ATOM      8  C   UNL     1       1.582   3.631  17.972  0.00  0.00    +0.000 C 
ATOM      9  C   UNL     1       2.570   2.772  17.168  0.00  0.00    +0.000 C 
ENDROOT
BRANCH   1  10
ATOM     10  N   UNL     1       4.604   4.308  17.510  0.00  0.00    +0.000 NA
BRANCH  10  11
ATOM     11  C   UNL     1       4.811   4.914  16.169  0.00  0.00    +0.000 C 
BRANCH  11  12
ATOM     12  C   UNL     1       5.372   4.003  15.062  0.00  0.00    +0.000 C 
BRANCH  12  13
ATOM     13  C   UNL     1       6.764   4.446  14.608  0.00  0.00    +0.000 C 
BRANCH  13  15
ATOM     14  C   UNL     1       6.028   3.401  12.616  0.00  0.00    +0.000 C 
ATOM     15  O   UNL     1       6.805   4.447  13.183  0.00  0.00    +0.000 OA
ENDBRANCH  13  15
ENDBRANCH  12  13
ENDBRANCH  11  12
ENDBRANCH  10  11
BRANCH  10  16
ATOM     16  C   UNL     1       5.802   4.445  18.370  0.00  0.00    +0.000 C 
BRANCH  16  17
ATOM     17  C   UNL     1       6.661   5.655  18.153  0.00  0.00    +0.000 A 
ATOM     18  C   UNL     1       6.353   6.656  17.256  0.00  0.00    +0.000 A 
ATOM     19  N   UNL     1       7.038   7.815  17.147  0.00  0.00    +0.000 NA
ATOM     20  C   UNL     1       8.058   7.966  18.004  0.00  0.00    +0.000 A 
ATOM     21  N   UNL     1       8.451   7.077  18.930  0.00  0.00    +0.000 NA
ATOM     22  C   UNL     1       7.733   5.937  18.979  0.00  0.00    +0.000 A 
ENDBRANCH  16  17
ENDBRANCH  10  16
ENDBRANCH   1  10
BRANCH   6  23
ATOM     23  O   UNL     1       1.325   6.053  19.313  0.00  0.00    +0.000 OA
BRANCH  23  24
ATOM     24  C   UNL     1       2.054   7.309  19.246  0.00  0.00    +0.000 C 
ATOM     25  C   UNL     1       1.687   8.238  20.409  0.00  0.00    +0.000 C 
ATOM     26  C   UNL     1       3.547   6.957  19.393  0.00  0.00    +0.000 C 
ATOM     27  C   UNL     1       1.876   7.995  17.882  0.00  0.00    +0.000 C 
ENDBRANCH  23  24
ENDBRANCH   6  23
TORSDOF 9
ENDMDL
MODEL 6
REMARK VINA RESULT:      -5.6      7.888     11.455
REMARK  Name = 
REMARK  13 active torsions:
REMARK  status: ('A' for Active; 'I' for Inactive)
REMARK    1  A    between atoms: C_1  and  O_2
REMARK    2  A    between atoms: O_2  and  C_3
REMARK    3  A    between atoms: C_3  and  C_4
REMARK    4  A    between atoms: C_4  and  C_5
REMARK    5  A    between atoms: C_5  and  N_6
REMARK    6  A    between atoms: N_6  and  C_7
REMARK    7  A    between atoms: N_6  and  C_14
REMARK    8  A    between atoms: C_7  and  C_8
REMARK    9  A    between atoms: C_19  and  O_21
REMARK   10  A    between atoms: O_21  and  C_22
REMARK   11  A    between atoms: C_22  and  C_23
REMARK   12  A    between atoms: C_22  and  C_24
REMARK   13  A    between atoms: C_22  and  C_25
REMARK                            x       y       z     vdW  Elec       q    Type
REMARK                         _______ _______ _______ _____ _____    ______ ____
ROOT
ATOM      1  C   UNL     1       0.589  14.185  20.356  0.00  0.00    +0.000 C 
ATOM      2  C   UNL     1       1.585  13.064  20.785  0.00  0.00    +0.000 C 
ATOM      3  C   UNL     1       1.135  11.625  20.539  0.00  0.00    +0.000 C 
ATOM      4  C   UNL     1       0.924  11.315  19.060  0.00  0.00    +0.000 C 
ATOM      5  N   UNL     1      -0.322  11.893  18.575  0.00  0.00    +0.000 N 
ATOM      6  C   UNL     1      -1.475  11.144  18.766  0.00  0.00    +0.000 C 
ATOM      7  O   UNL     1      -1.459  10.063  19.347  0.00  0.00    +0.000 OA
ATOM      8  C   UNL     1      -0.301  13.243  18.040  0.00  0.00    +0.000 C 
ATOM      9  C   UNL     1       0.568  14.255  18.803  0.00  0.00    +0.000 C 
ENDROOT
BRANCH   1  10
ATOM     10  N   UNL     1      -0.744  14.127  21.011  0.00  0.00    +0.000 NA
BRANCH  10  11
ATOM     11  C   UNL     1      -1.621  15.287  20.705  0.00  0.00    +0.000 C 
BRANCH  11  12
ATOM     12  C   UNL     1      -1.157  16.671  21.192  0.00  0.00    +0.000 C 
BRANCH  12  13
ATOM     13  C   UNL     1      -1.455  17.767  20.168  0.00  0.00    +0.000 C 
BRANCH  13  15
ATOM     14  C   UNL     1      -1.153  18.340  17.892  0.00  0.00    +0.000 C 
ATOM     15  O   UNL     1      -0.970  17.350  18.894  0.00  0.00    +0.000 OA
ENDBRANCH  13  15
ENDBRANCH  12  13
ENDBRANCH  11  12
ENDBRANCH  10  11
BRANCH  10  16
ATOM     16  C   UNL     1      -0.648  13.876  22.468  0.00  0.00    +0.000 C 
BRANCH  16  17
ATOM     17  C   UNL     1      -1.921  13.539  23.186  0.00  0.00    +0.000 A 
ATOM     18  C   UNL     1      -2.562  12.324  23.072  0.00  0.00    +0.000 A 
ATOM     19  N   UNL     1      -3.627  11.954  23.813  0.00  0.00    +0.000 NA
ATOM     20  C   UNL     1      -4.036  12.849  24.723  0.00  0.00    +0.000 A 
ATOM     21  N   UNL     1      -3.494  14.057  24.944  0.00  0.00    +0.000 NA
ATOM     22  C   UNL     1      -2.440  14.369  24.162  0.00  0.00    +0.000 A 
ENDBRANCH  16  17
ENDBRANCH  10  16
ENDBRANCH   1  10
BRANCH   6  23
ATOM     23  O   UNL     1      -2.608  11.703  18.237  0.00  0.00    +0.000 OA
BRANCH  23  24
ATOM     24  C   UNL     1      -3.338  10.964  17.219  0.00  0.00    +0.000 C 
ATOM     25  C   UNL     1      -3.628   9.526  17.664  0.00  0.00    +0.000 C 
ATOM     26  C   UNL     1      -4.696  11.675  17.052  0.00  0.00    +0.000 C 
ATOM     27  C   UNL     1      -2.623  11.015  15.859  0.00  0.00    +0.000 C 
ENDBRANCH  23  24
ENDBRANCH   6  23
TORSDOF 9
ENDMDL
MODEL 7
REMARK VINA RESULT:      -5.6      7.192     10.802
REMARK  Name = 
REMARK  13 active torsions:
REMARK  status: ('A' for Active; 'I' for Inactive)
REMARK    1  A    between atoms: C_1  and  O_2
REMARK    2  A    between atoms: O_2  and  C_3
REMARK    3  A    between atoms: C_3  and  C_4
REMARK    4  A    between atoms: C_4  and  C_5
REMARK    5  A    between atoms: C_5  and  N_6
REMARK    6  A    between atoms: N_6  and  C_7
REMARK    7  A    between atoms: N_6  and  C_14
REMARK    8  A    between atoms: C_7  and  C_8
REMARK    9  A    between atoms: C_19  and  O_21
REMARK   10  A    between atoms: O_21  and  C_22
REMARK   11  A    between atoms: C_22  and  C_23
REMARK   12  A    between atoms: C_22  and  C_24
REMARK   13  A    between atoms: C_22  and  C_25
REMARK                            x       y       z     vdW  Elec       q    Type
REMARK                         _______ _______ _______ _____ _____    ______ ____
ROOT
ATOM      1  C   UNL     1       0.504  12.325  19.739  0.00  0.00    +0.000 C 
ATOM      2  C   UNL     1       0.637  13.682  18.983  0.00  0.00    +0.000 C 
ATOM      3  C   UNL     1      -0.483  14.697  19.203  0.00  0.00    +0.000 C 
ATOM      4  C   UNL     1      -0.593  15.151  20.656  0.00  0.00    +0.000 C 
ATOM      5  N   UNL     1      -1.222  14.127  21.479  0.00  0.00    +0.000 N 
ATOM      6  C   UNL     1      -2.610  14.115  21.510  0.00  0.00    +0.000 C 
ATOM      7  O   UNL     1      -3.283  14.902  20.850  0.00  0.00    +0.000 OA
ATOM      8  C   UNL     1      -0.380  13.126  22.109  0.00  0.00    +0.000 C 
ATOM      9  C   UNL     1       0.769  12.577  21.249  0.00  0.00    +0.000 C 
ENDROOT
BRANCH   1  10
ATOM     10  N   UNL     1      -0.726  11.550  19.427  0.00  0.00    +0.000 NA
BRANCH  10  11
ATOM     11  C   UNL     1      -0.647  10.113  19.796  0.00  0.00    +0.000 C 
BRANCH  11  12
ATOM     12  C   UNL     1       0.757   9.497  19.941  0.00  0.00    +0.000 C 
BRANCH  12  13
ATOM     13  C   UNL     1       0.957   8.849  21.311  0.00  0.00    +0.000 C 
BRANCH  13  15
ATOM     14  C   UNL     1      -0.017   9.513  23.363  0.00  0.00    +0.000 C 
ATOM     15  O   UNL     1      -0.246   8.984  22.065  0.00  0.00    +0.000 OA
ENDBRANCH  13  15
ENDBRANCH  12  13
ENDBRANCH  11  12
ENDBRANCH  10  11
BRANCH  10  16
ATOM     16  C   UNL     1      -1.173  11.737  18.026  0.00  0.00    +0.000 C 
BRANCH  16  17
ATOM     17  C   UNL     1      -2.650  11.688  17.772  0.00  0.00    +0.000 A 
ATOM     18  C   UNL     1      -3.205  11.251  16.587  0.00  0.00    +0.000 A 
ATOM     19  N   UNL     1      -4.527  11.067  16.390  0.00  0.00    +0.000 NA
ATOM     20  C   UNL     1      -5.309  11.314  17.450  0.00  0.00    +0.000 A 
ATOM     21  N   UNL     1      -4.896  11.730  18.658  0.00  0.00    +0.000 NA
ATOM     22  C   UNL     1      -3.565  11.904  18.785  0.00  0.00    +0.000 A 
ENDBRANCH  16  17
ENDBRANCH  10  16
ENDBRANCH   1  10
BRANCH   6  23
ATOM     23  O   UNL     1      -3.150  13.175  22.347  0.00  0.00    +0.000 OA
BRANCH  23  24
ATOM     24  C   UNL     1      -3.893  13.627  23.514  0.00  0.00    +0.000 C 
ATOM     25  C   UNL     1      -4.214  12.466  24.462  0.00  0.00    +0.000 C 
ATOM     26  C   UNL     1      -2.966  14.597  24.273  0.00  0.00    +0.000 C 
ATOM     27  C   UNL     1      -5.152  14.411  23.114  0.00  0.00    +0.000 C 
ENDBRANCH  23  24
ENDBRANCH   6  23
TORSDOF 9
ENDMDL
MODEL 8
REMARK VINA RESULT:      -5.6      1.095      1.334
REMARK  Name = 
REMARK  13 active torsions:
REMARK  status: ('A' for Active; 'I' for Inactive)
REMARK    1  A    between atoms: C_1  and  O_2
REMARK    2  A    between atoms: O_2  and  C_3
REMARK    3  A    between atoms: C_3  and  C_4
REMARK    4  A    between atoms: C_4  and  C_5
REMARK    5  A    between atoms: C_5  and  N_6
REMARK    6  A    between atoms: N_6  and  C_7
REMARK    7  A    between atoms: N_6  and  C_14
REMARK    8  A    between atoms: C_7  and  C_8
REMARK    9  A    between atoms: C_19  and  O_21
REMARK   10  A    between atoms: O_21  and  C_22
REMARK   11  A    between atoms: C_22  and  C_23
REMARK   12  A    between atoms: C_22  and  C_24
REMARK   13  A    between atoms: C_22  and  C_25
REMARK                            x       y       z     vdW  Elec       q    Type
REMARK                         _______ _______ _______ _____ _____    ______ ____
ROOT
ATOM      1  C   UNL     1       4.079   2.829  17.553  0.00  0.00    +0.000 C 
ATOM      2  C   UNL     1       4.385   2.005  18.842  0.00  0.00    +0.000 C 
ATOM      3  C   UNL     1       3.886   2.595  20.160  0.00  0.00    +0.000 C 
ATOM      4  C   UNL     1       2.367   2.722  20.215  0.00  0.00    +0.000 C 
ATOM      5  N   UNL     1       1.905   3.850  19.419  0.00  0.00    +0.000 N 
ATOM      6  C   UNL     1       1.904   5.094  20.038  0.00  0.00    +0.000 C 
ATOM      7  O   UNL     1       2.305   5.248  21.188  0.00  0.00    +0.000 OA
ATOM      8  C   UNL     1       1.594   3.634  18.018  0.00  0.00    +0.000 C 
ATOM      9  C   UNL     1       2.559   2.718  17.249  0.00  0.00    +0.000 C 
ENDROOT
BRANCH   1  10
ATOM     10  N   UNL     1       4.635   4.208  17.542  0.00  0.00    +0.000 NA
BRANCH  10  11
ATOM     11  C   UNL     1       4.821   4.775  16.181  0.00  0.00    +0.000 C 
BRANCH  11  12
ATOM     12  C   UNL     1       5.413   3.847  15.105  0.00  0.00    +0.000 C 
BRANCH  12  13
ATOM     13  C   UNL     1       6.384   4.587  14.184  0.00  0.00    +0.000 C 
BRANCH  13  15
ATOM     14  C   UNL     1       5.593   3.324  12.346  0.00  0.00    +0.000 C 
ATOM     15  O   UNL     1       6.728   3.733  13.096  0.00  0.00    +0.000 OA
ENDBRANCH  13  15
ENDBRANCH  12  13
ENDBRANCH  11  12
ENDBRANCH  10  11
BRANCH  10  16
ATOM     16  C   UNL     1       5.860   4.332  18.366  0.00  0.00    +0.000 C 
BRANCH  16  17
ATOM     17  C   UNL     1       6.592   5.639  18.303  0.00  0.00    +0.000 A 
ATOM     18  C   UNL     1       7.666   5.950  19.111  0.00  0.00    +0.000 A 
ATOM     19  N   UNL     1       8.422   7.060  18.974  0.00  0.00    +0.000 NA
ATOM     20  C   UNL     1       8.085   7.868  17.959  0.00  0.00    +0.000 A 
ATOM     21  N   UNL     1       7.075   7.674  17.096  0.00  0.00    +0.000 NA
ATOM     22  C   UNL     1       6.352   6.553  17.294  0.00  0.00    +0.000 A 
ENDBRANCH  16  17
ENDBRANCH  10  16
ENDBRANCH   1  10
BRANCH   6  23
ATOM     23  O   UNL     1       1.402   6.109  19.268  0.00  0.00    +0.000 OA
BRANCH  23  24
ATOM     24  C   UNL     1       2.104   7.383  19.253  0.00  0.00    +0.000 C 
ATOM     25  C   UNL     1       3.621   7.190  19.144  0.00  0.00    +0.000 C 
ATOM     26  C   UNL     1       1.643   8.120  17.980  0.00  0.00    +0.000 C 
ATOM     27  C   UNL     1       1.718   8.257  20.456  0.00  0.00    +0.000 C 
ENDBRANCH  23  24
ENDBRANCH   6  23
TORSDOF 9
ENDMDL
MODEL 9
REMARK VINA RESULT:      -5.6      6.825     10.791
REMARK  Name = 
REMARK  13 active torsions:
REMARK  status: ('A' for Active; 'I' for Inactive)
REMARK    1  A    between atoms: C_1  and  O_2
REMARK    2  A    between atoms: O_2  and  C_3
REMARK    3  A    between atoms: C_3  and  C_4
REMARK    4  A    between atoms: C_4  and  C_5
REMARK    5  A    between atoms: C_5  and  N_6
REMARK    6  A    between atoms: N_6  and  C_7
REMARK    7  A    between atoms: N_6  and  C_14
REMARK    8  A    between atoms: C_7  and  C_8
REMARK    9  A    between atoms: C_19  and  O_21
REMARK   10  A    between atoms: O_21  and  C_22
REMARK   11  A    between atoms: C_22  and  C_23
REMARK   12  A    between atoms: C_22  and  C_24
REMARK   13  A    between atoms: C_22  and  C_25
REMARK                            x       y       z     vdW  Elec       q    Type
REMARK                         _______ _______ _______ _____ _____    ______ ____
ROOT
ATOM      1  C   UNL     1       0.760  13.771  20.553  0.00  0.00    +0.000 C 
ATOM      2  C   UNL     1       0.439  14.913  19.541  0.00  0.00    +0.000 C 
ATOM      3  C   UNL     1      -1.026  15.333  19.431  0.00  0.00    +0.000 C 
ATOM      4  C   UNL     1      -1.580  15.898  20.736  0.00  0.00    +0.000 C 
ATOM      5  N   UNL     1      -1.851  14.835  21.695  0.00  0.00    +0.000 N 
ATOM      6  C   UNL     1      -3.083  14.201  21.595  0.00  0.00    +0.000 C 
ATOM      7  O   UNL     1      -3.894  14.492  20.720  0.00  0.00    +0.000 OA
ATOM      8  C   UNL     1      -0.793  14.428  22.602  0.00  0.00    +0.000 C 
ATOM      9  C   UNL     1       0.616  14.337  21.993  0.00  0.00    +0.000 C 
ENDROOT
BRANCH   1  10
ATOM     10  N   UNL     1       0.056  12.487  20.296  0.00  0.00    +0.000 NA
BRANCH  10  11
ATOM     11  C   UNL     1       0.504  11.367  21.162  0.00  0.00    +0.000 C 
BRANCH  11  12
ATOM     12  C   UNL     1      -0.560  10.681  22.038  0.00  0.00    +0.000 C 
BRANCH  12  13
ATOM     13  C   UNL     1      -0.071   9.339  22.586  0.00  0.00    +0.000 C 
BRANCH  13  15
ATOM     14  C   UNL     1       1.185   7.937  21.152  0.00  0.00    +0.000 C 
ATOM     15  O   UNL     1      -0.110   8.373  21.538  0.00  0.00    +0.000 OA
ENDBRANCH  13  15
ENDBRANCH  12  13
ENDBRANCH  11  12
ENDBRANCH  10  11
BRANCH  10  16
ATOM     16  C   UNL     1       0.062  12.115  18.862  0.00  0.00    +0.000 C 
BRANCH  16  17
ATOM     17  C   UNL     1      -1.192  11.501  18.313  0.00  0.00    +0.000 A 
ATOM     18  C   UNL     1      -1.211  10.328  17.588  0.00  0.00    +0.000 A 
ATOM     19  N   UNL     1      -2.338   9.689  17.208  0.00  0.00    +0.000 NA
ATOM     20  C   UNL     1      -3.486  10.256  17.606  0.00  0.00    +0.000 A 
ATOM     21  N   UNL     1      -3.604  11.384  18.324  0.00  0.00    +0.000 NA
ATOM     22  C   UNL     1      -2.441  11.979  18.662  0.00  0.00    +0.000 A 
ENDBRANCH  16  17
ENDBRANCH  10  16
ENDBRANCH   1  10
BRANCH   6  23
ATOM     23  O   UNL     1      -3.312  13.255  22.557  0.00  0.00    +0.000 OA
BRANCH  23  24
ATOM     24  C   UNL     1      -4.410  13.463  23.490  0.00  0.00    +0.000 C 
ATOM     25  C   UNL     1      -4.540  14.937  23.888  0.00  0.00    +0.000 C 
ATOM     26  C   UNL     1      -5.699  13.074  22.741  0.00  0.00    +0.000 C 
ATOM     27  C   UNL     1      -4.294  12.542  24.715  0.00  0.00    +0.000 C 
ENDBRANCH  23  24
ENDBRANCH   6  23
TORSDOF 9
ENDMDL
