MODEL 1
REMARK VINA RESULT:      -9.5      0.000      0.000
REMARK  Name = 
REMARK  5 active torsions:
REMARK  status: ('A' for Active; 'I' for Inactive)
REMARK    1  A    between atoms: S_2  and  N_4
REMARK    2  A    between atoms: S_2  and  C_10
REMARK    3  A    between atoms: N_4  and  C_5
REMARK    4  A    between atoms: C_14  and  C_15
REMARK    5  A    between atoms: C_18  and  C_19
REMARK                            x       y       z     vdW  Elec       q    Type
REMARK                         _______ _______ _______ _____ _____    ______ ____
ROOT
ATOM      1  C   UNL     1       5.387   5.520  17.433  0.00  0.00    +0.000 A 
ATOM      2  C   UNL     1       4.776   4.267  17.525  0.00  0.00    +0.000 A 
ATOM      3  C   UNL     1       3.424   4.187  17.839  0.00  0.00    +0.000 A 
ATOM      4  C   UNL     1       2.695   5.356  18.068  0.00  0.00    +0.000 A 
ATOM      5  C   UNL     1       3.299   6.625  17.989  0.00  0.00    +0.000 A 
ATOM      6  C   UNL     1       4.656   6.698  17.652  0.00  0.00    +0.000 A 
ENDROOT
BRANCH   5   7
ATOM      7  C   UNL     1       2.491   7.804  18.282  0.00  0.00    +0.000 A 
ATOM      8  N   UNL     1       2.213   8.829  17.500  0.00  0.00    +0.000 NA
ATOM      9  N   UNL     1       1.403   9.670  18.227  0.00  0.00    +0.000 NA
ATOM     10  C   UNL     1       1.244   9.111  19.410  0.00  0.00    +0.000 A 
ATOM     11  O   UNL     1       1.903   7.908  19.519  0.00  0.00    +0.000 OA
BRANCH  10  12
ATOM     12  C   UNL     1       0.524   9.619  20.572  0.00  0.00    +0.000 A 
ATOM     13  C   UNL     1       0.237  10.993  20.647  0.00  0.00    +0.000 A 
ATOM     14  C   UNL     1      -0.383  11.539  21.773  0.00  0.00    +0.000 A 
ATOM     15  C   UNL     1      -0.731  10.716  22.839  0.00  0.00    +0.000 A 
ATOM     16  C   UNL     1      -0.477   9.346  22.771  0.00  0.00    +0.000 A 
ATOM     17  C   UNL     1       0.144   8.799  21.643  0.00  0.00    +0.000 A 
ENDBRANCH  10  12
ENDBRANCH   5   7
BRANCH   1  19
ATOM     18  O   UNL     1       7.714   4.309  17.253  0.00  0.00    +0.000 OA
ATOM     19  S   UNL     1       7.109   5.598  17.004  0.00  0.00    +0.000 S 
ATOM     20  O   UNL     1       7.636   6.813  17.580  0.00  0.00    +0.000 OA
BRANCH  19  21
ATOM     21  N   UNL     1       7.068   5.852  15.335  0.00  0.00    +0.000 NA
ATOM     22  H   UNL     1       7.686   6.622  15.077  0.00  0.00    +0.000 HD
BRANCH  21  23
ATOM     23  C   UNL     1       7.037   4.694  14.436  0.00  0.00    +0.000 C 
ATOM     24  C   UNL     1       5.627   4.290  14.035  0.00  0.00    +0.000 C 
ATOM     25  C   UNL     1       5.836   3.451  12.785  0.00  0.00    +0.000 C 
ATOM     26  C   UNL     1       7.074   4.030  12.106  0.00  0.00    +0.000 C 
ATOM     27  C   UNL     1       7.661   5.046  13.086  0.00  0.00    +0.000 C 
ENDBRANCH  21  23
ENDBRANCH  19  21
ENDBRANCH   1  19
TORSDOF 5
ENDMDL
MODEL 2
REMARK VINA RESULT:      -8.8      1.771      2.057
REMARK  Name = 
REMARK  5 active torsions:
REMARK  status: ('A' for Active; 'I' for Inactive)
REMARK    1  A    between atoms: S_2  and  N_4
REMARK    2  A    between atoms: S_2  and  C_10
REMARK    3  A    between atoms: N_4  and  C_5
REMARK    4  A    between atoms: C_14  and  C_15
REMARK    5  A    between atoms: C_18  and  C_19
REMARK                            x       y       z     vdW  Elec       q    Type
REMARK                         _______ _______ _______ _____ _____    ______ ____
ROOT
ATOM      1  C   UNL     1       5.105   5.424  17.105  0.00  0.00    +0.000 A 
ATOM      2  C   UNL     1       4.495   4.180  16.927  0.00  0.00    +0.000 A 
ATOM      3  C   UNL     1       3.195   3.985  17.379  0.00  0.00    +0.000 A 
ATOM      4  C   UNL     1       2.517   5.028  18.013  0.00  0.00    +0.000 A 
ATOM      5  C   UNL     1       3.122   6.285  18.210  0.00  0.00    +0.000 A 
ATOM      6  C   UNL     1       4.424   6.480  17.733  0.00  0.00    +0.000 A 
ENDROOT
BRANCH   5   7
ATOM      7  C   UNL     1       2.374   7.318  18.917  0.00  0.00    +0.000 A 
ATOM      8  N   UNL     1       2.049   7.373  20.194  0.00  0.00    +0.000 NA
ATOM      9  N   UNL     1       1.360   8.549  20.374  0.00  0.00    +0.000 NA
ATOM     10  C   UNL     1       1.300   9.136  19.195  0.00  0.00    +0.000 A 
ATOM     11  O   UNL     1       1.935   8.412  18.213  0.00  0.00    +0.000 OA
BRANCH  10  12
ATOM     12  C   UNL     1       0.631  10.377  18.824  0.00  0.00    +0.000 A 
ATOM     13  C   UNL     1       1.349  11.583  18.887  0.00  0.00    +0.000 A 
ATOM     14  C   UNL     1       0.732  12.806  18.614  0.00  0.00    +0.000 A 
ATOM     15  C   UNL     1      -0.615  12.838  18.268  0.00  0.00    +0.000 A 
ATOM     16  C   UNL     1      -1.338  11.649  18.176  0.00  0.00    +0.000 A 
ATOM     17  C   UNL     1      -0.719  10.424  18.449  0.00  0.00    +0.000 A 
ENDBRANCH  10  12
ENDBRANCH   5   7
BRANCH   1  19
ATOM     18  O   UNL     1       7.534   4.472  16.779  0.00  0.00    +0.000 OA
ATOM     19  S   UNL     1       6.757   5.658  16.496  0.00  0.00    +0.000 S 
ATOM     20  O   UNL     1       7.185   6.971  16.920  0.00  0.00    +0.000 OA
BRANCH  19  21
ATOM     21  N   UNL     1       6.530   5.758  14.825  0.00  0.00    +0.000 NA
ATOM     22  H   UNL     1       6.915   6.631  14.466  0.00  0.00    +0.000 HD
BRANCH  21  23
ATOM     23  C   UNL     1       6.720   4.558  14.005  0.00  0.00    +0.000 C 
ATOM     24  C   UNL     1       5.417   4.001  13.454  0.00  0.00    +0.000 C 
ATOM     25  C   UNL     1       5.862   3.123  12.296  0.00  0.00    +0.000 C 
ATOM     26  C   UNL     1       7.124   3.782  11.746  0.00  0.00    +0.000 C 
ATOM     27  C   UNL     1       7.484   4.898  12.726  0.00  0.00    +0.000 C 
ENDBRANCH  21  23
ENDBRANCH  19  21
ENDBRANCH   1  19
TORSDOF 5
ENDMDL
MODEL 3
REMARK VINA RESULT:      -8.5      0.733      1.200
REMARK  Name = 
REMARK  5 active torsions:
REMARK  status: ('A' for Active; 'I' for Inactive)
REMARK    1  A    between atoms: S_2  and  N_4
REMARK    2  A    between atoms: S_2  and  C_10
REMARK    3  A    between atoms: N_4  and  C_5
REMARK    4  A    between atoms: C_14  and  C_15
REMARK    5  A    between atoms: C_18  and  C_19
REMARK                            x       y       z     vdW  Elec       q    Type
REMARK                         _______ _______ _______ _____ _____    ______ ____
ROOT
ATOM      1  C   UNL     1       5.352   5.741  17.527  0.00  0.00    +0.000 A 
ATOM      2  C   UNL     1       5.065   4.641  18.338  0.00  0.00    +0.000 A 
ATOM      3  C   UNL     1       3.927   4.660  19.137  0.00  0.00    +0.000 A 
ATOM      4  C   UNL     1       3.091   5.779  19.129  0.00  0.00    +0.000 A 
ATOM      5  C   UNL     1       3.374   6.899  18.325  0.00  0.00    +0.000 A 
ATOM      6  C   UNL     1       4.510   6.864  17.507  0.00  0.00    +0.000 A 
ENDROOT
BRANCH   5   7
ATOM      7  C   UNL     1       2.483   8.053  18.395  0.00  0.00    +0.000 A 
ATOM      8  N   UNL     1       2.052   8.823  17.415  0.00  0.00    +0.000 NA
ATOM      9  N   UNL     1       1.225   9.761  17.987  0.00  0.00    +0.000 NA
ATOM     10  C   UNL     1       1.209   9.510  19.282  0.00  0.00    +0.000 A 
ATOM     11  O   UNL     1       1.983   8.425  19.619  0.00  0.00    +0.000 OA
BRANCH  10  12
ATOM     12  C   UNL     1       0.535  10.244  20.347  0.00  0.00    +0.000 A 
ATOM     13  C   UNL     1      -0.083   9.525  21.384  0.00  0.00    +0.000 A 
ATOM     14  C   UNL     1      -0.804  10.179  22.385  0.00  0.00    +0.000 A 
ATOM     15  C   UNL     1      -0.912  11.566  22.366  0.00  0.00    +0.000 A 
ATOM     16  C   UNL     1      -0.284  12.298  21.359  0.00  0.00    +0.000 A 
ATOM     17  C   UNL     1       0.439  11.642  20.356  0.00  0.00    +0.000 A 
ENDBRANCH  10  12
ENDBRANCH   5   7
BRANCH   1  19
ATOM     18  O   UNL     1       7.514   4.457  16.759  0.00  0.00    +0.000 OA
ATOM     19  S   UNL     1       6.796   5.683  16.495  0.00  0.00    +0.000 S 
ATOM     20  O   UNL     1       7.436   6.976  16.585  0.00  0.00    +0.000 OA
BRANCH  19  21
ATOM     21  N   UNL     1       6.143   5.593  14.940  0.00  0.00    +0.000 NA
ATOM     22  H   UNL     1       6.144   6.513  14.500  0.00  0.00    +0.000 HD
BRANCH  21  23
ATOM     23  C   UNL     1       6.480   4.447  14.089  0.00  0.00    +0.000 C 
ATOM     24  C   UNL     1       5.279   3.887  13.343  0.00  0.00    +0.000 C 
ATOM     25  C   UNL     1       5.901   3.089  12.209  0.00  0.00    +0.000 C 
ATOM     26  C   UNL     1       7.199   3.813  11.865  0.00  0.00    +0.000 C 
ATOM     27  C   UNL     1       7.390   4.881  12.941  0.00  0.00    +0.000 C 
ENDBRANCH  21  23
ENDBRANCH  19  21
ENDBRANCH   1  19
TORSDOF 5
ENDMDL
MODEL 4
REMARK VINA RESULT:      -8.5      1.414      1.749
REMARK  Name = 
REMARK  5 active torsions:
REMARK  status: ('A' for Active; 'I' for Inactive)
REMARK    1  A    between atoms: S_2  and  N_4
REMARK    2  A    between atoms: S_2  and  C_10
REMARK    3  A    between atoms: N_4  and  C_5
REMARK    4  A    between atoms: C_14  and  C_15
REMARK    5  A    between atoms: C_18  and  C_19
REMARK                            x       y       z     vdW  Elec       q    Type
REMARK                         _______ _______ _______ _____ _____    ______ ____
ROOT
ATOM      1  C   UNL     1       5.294   5.050  17.324  0.00  0.00    +0.000 A 
ATOM      2  C   UNL     1       4.763   3.810  16.962  0.00  0.00    +0.000 A 
ATOM      3  C   UNL     1       3.487   3.462  17.391  0.00  0.00    +0.000 A 
ATOM      4  C   UNL     1       2.756   4.347  18.187  0.00  0.00    +0.000 A 
ATOM      5  C   UNL     1       3.283   5.595  18.569  0.00  0.00    +0.000 A 
ATOM      6  C   UNL     1       4.560   5.948  18.115  0.00  0.00    +0.000 A 
ENDROOT
BRANCH   5   7
ATOM      7  C   UNL     1       2.485   6.455  19.436  0.00  0.00    +0.000 A 
ATOM      8  N   UNL     1       1.910   6.162  20.586  0.00  0.00    +0.000 NA
ATOM      9  N   UNL     1       1.289   7.309  21.020  0.00  0.00    +0.000 NA
ATOM     10  C   UNL     1       1.515   8.230  20.103  0.00  0.00    +0.000 A 
ATOM     11  O   UNL     1       2.282   7.761  19.063  0.00  0.00    +0.000 OA
BRANCH  10  12
ATOM     12  C   UNL     1       1.030   9.604  20.049  0.00  0.00    +0.000 A 
ATOM     13  C   UNL     1       1.151  10.321  18.847  0.00  0.00    +0.000 A 
ATOM     14  C   UNL     1       0.769  11.662  18.766  0.00  0.00    +0.000 A 
ATOM     15  C   UNL     1       0.255  12.304  19.888  0.00  0.00    +0.000 A 
ATOM     16  C   UNL     1       0.104  11.601  21.083  0.00  0.00    +0.000 A 
ATOM     17  C   UNL     1       0.486  10.257  21.163  0.00  0.00    +0.000 A 
ENDBRANCH  10  12
ENDBRANCH   5   7
BRANCH   1  19
ATOM     18  O   UNL     1       7.793   4.347  16.902  0.00  0.00    +0.000 OA
ATOM     19  S   UNL     1       6.914   5.485  16.741  0.00  0.00    +0.000 S 
ATOM     20  O   UNL     1       7.233   6.780  17.296  0.00  0.00    +0.000 OA
BRANCH  19  21
ATOM     21  N   UNL     1       6.665   5.734  15.089  0.00  0.00    +0.000 NA
ATOM     22  H   UNL     1       7.023   6.646  14.809  0.00  0.00    +0.000 HD
BRANCH  21  23
ATOM     23  C   UNL     1       6.876   4.621  14.159  0.00  0.00    +0.000 C 
ATOM     24  C   UNL     1       5.579   4.057  13.601  0.00  0.00    +0.000 C 
ATOM     25  C   UNL     1       6.019   3.306  12.355  0.00  0.00    +0.000 C 
ATOM     26  C   UNL     1       7.232   4.067  11.827  0.00  0.00    +0.000 C 
ATOM     27  C   UNL     1       7.580   5.107  12.892  0.00  0.00    +0.000 C 
ENDBRANCH  21  23
ENDBRANCH  19  21
ENDBRANCH   1  19
TORSDOF 5
ENDMDL
MODEL 5
REMARK VINA RESULT:      -8.5      1.534      1.968
REMARK  Name = 
REMARK  5 active torsions:
REMARK  status: ('A' for Active; 'I' for Inactive)
REMARK    1  A    between atoms: S_2  and  N_4
REMARK    2  A    between atoms: S_2  and  C_10
REMARK    3  A    between atoms: N_4  and  C_5
REMARK    4  A    between atoms: C_14  and  C_15
REMARK    5  A    between atoms: C_18  and  C_19
REMARK                            x       y       z     vdW  Elec       q    Type
REMARK                         _______ _______ _______ _____ _____    ______ ____
ROOT
ATOM      1  C   UNL     1       5.255   5.221  17.140  0.00  0.00    +0.000 A 
ATOM      2  C   UNL     1       4.710   3.957  16.900  0.00  0.00    +0.000 A 
ATOM      3  C   UNL     1       3.442   3.657  17.386  0.00  0.00    +0.000 A 
ATOM      4  C   UNL     1       2.733   4.614  18.115  0.00  0.00    +0.000 A 
ATOM      5  C   UNL     1       3.274   5.888  18.374  0.00  0.00    +0.000 A 
ATOM      6  C   UNL     1       4.543   6.191  17.863  0.00  0.00    +0.000 A 
ENDROOT
BRANCH   5   7
ATOM      7  C   UNL     1       2.499   6.827  19.178  0.00  0.00    +0.000 A 
ATOM      8  N   UNL     1       2.044   6.681  20.407  0.00  0.00    +0.000 NA
ATOM      9  N   UNL     1       1.390   7.847  20.726  0.00  0.00    +0.000 NA
ATOM     10  C   UNL     1       1.478   8.630  19.668  0.00  0.00    +0.000 A 
ATOM     11  O   UNL     1       2.182   8.050  18.639  0.00  0.00    +0.000 OA
BRANCH  10  12
ATOM     12  C   UNL     1       0.903   9.954  19.461  0.00  0.00    +0.000 A 
ATOM     13  C   UNL     1      -0.393  10.216  19.937  0.00  0.00    +0.000 A 
ATOM     14  C   UNL     1      -1.015  11.443  19.698  0.00  0.00    +0.000 A 
ATOM     15  C   UNL     1      -0.345  12.430  18.982  0.00  0.00    +0.000 A 
ATOM     16  C   UNL     1       0.951  12.197  18.523  0.00  0.00    +0.000 A 
ATOM     17  C   UNL     1       1.574  10.967  18.764  0.00  0.00    +0.000 A 
ENDBRANCH  10  12
ENDBRANCH   5   7
BRANCH   1  19
ATOM     18  O   UNL     1       7.734   4.458  16.708  0.00  0.00    +0.000 OA
ATOM     19  S   UNL     1       6.864   5.591  16.486  0.00  0.00    +0.000 S 
ATOM     20  O   UNL     1       7.211   6.919  16.937  0.00  0.00    +0.000 OA
BRANCH  19  21
ATOM     21  N   UNL     1       6.574   5.723  14.827  0.00  0.00    +0.000 NA
ATOM     22  H   UNL     1       6.923   6.614  14.475  0.00  0.00    +0.000 HD
BRANCH  21  23
ATOM     23  C   UNL     1       6.768   4.547  13.973  0.00  0.00    +0.000 C 
ATOM     24  C   UNL     1       5.464   3.988  13.426  0.00  0.00    +0.000 C 
ATOM     25  C   UNL     1       5.903   3.147  12.239  0.00  0.00    +0.000 C 
ATOM     26  C   UNL     1       7.148   3.836  11.688  0.00  0.00    +0.000 C 
ATOM     27  C   UNL     1       7.509   4.931  12.692  0.00  0.00    +0.000 C 
ENDBRANCH  21  23
ENDBRANCH  19  21
ENDBRANCH   1  19
TORSDOF 5
ENDMDL
MODEL 6
REMARK VINA RESULT:      -8.2      2.765      4.324
REMARK  Name = 
REMARK  5 active torsions:
REMARK  status: ('A' for Active; 'I' for Inactive)
REMARK    1  A    between atoms: S_2  and  N_4
REMARK    2  A    between atoms: S_2  and  C_10
REMARK    3  A    between atoms: N_4  and  C_5
REMARK    4  A    between atoms: C_14  and  C_15
REMARK    5  A    between atoms: C_18  and  C_19
REMARK                            x       y       z     vdW  Elec       q    Type
REMARK                         _______ _______ _______ _____ _____    ______ ____
ROOT
ATOM      1  C   UNL     1       2.206   7.127  19.029  0.00  0.00    +0.000 A 
ATOM      2  C   UNL     1       2.232   7.900  17.866  0.00  0.00    +0.000 A 
ATOM      3  C   UNL     1       1.744   9.201  17.899  0.00  0.00    +0.000 A 
ATOM      4  C   UNL     1       1.225   9.718  19.088  0.00  0.00    +0.000 A 
ATOM      5  C   UNL     1       1.183   8.948  20.266  0.00  0.00    +0.000 A 
ATOM      6  C   UNL     1       1.695   7.645  20.230  0.00  0.00    +0.000 A 
ENDROOT
BRANCH   5   7
ATOM      7  C   UNL     1       0.589   9.533  21.463  0.00  0.00    +0.000 A 
ATOM      8  N   UNL     1       0.676   9.121  22.713  0.00  0.00    +0.000 NA
ATOM      9  N   UNL     1      -0.042  10.015  23.472  0.00  0.00    +0.000 NA
ATOM     10  C   UNL     1      -0.530  10.913  22.638  0.00  0.00    +0.000 A 
ATOM     11  O   UNL     1      -0.161  10.676  21.335  0.00  0.00    +0.000 OA
BRANCH  10  12
ATOM     12  C   UNL     1      -1.408  12.041  22.921  0.00  0.00    +0.000 A 
ATOM     13  C   UNL     1      -0.934  13.345  22.700  0.00  0.00    +0.000 A 
ATOM     14  C   UNL     1      -1.711  14.460  23.026  0.00  0.00    +0.000 A 
ATOM     15  C   UNL     1      -2.977  14.284  23.573  0.00  0.00    +0.000 A 
ATOM     16  C   UNL     1      -3.474  12.997  23.777  0.00  0.00    +0.000 A 
ATOM     17  C   UNL     1      -2.696  11.881  23.449  0.00  0.00    +0.000 A 
ENDBRANCH  10  12
ENDBRANCH   5   7
BRANCH   1  19
ATOM     18  O   UNL     1       2.036   4.676  18.091  0.00  0.00    +0.000 OA
ATOM     19  S   UNL     1       2.860   5.477  18.969  0.00  0.00    +0.000 S 
ATOM     20  O   UNL     1       3.134   5.078  20.331  0.00  0.00    +0.000 OA
BRANCH  19  21
ATOM     21  N   UNL     1       4.365   5.696  18.235  0.00  0.00    +0.000 NA
ATOM     22  H   UNL     1       5.114   5.564  18.913  0.00  0.00    +0.000 HD
BRANCH  21  23
ATOM     23  C   UNL     1       4.586   5.163  16.887  0.00  0.00    +0.000 C 
ATOM     24  C   UNL     1       5.209   6.177  15.940  0.00  0.00    +0.000 C 
ATOM     25  C   UNL     1       5.783   5.321  14.824  0.00  0.00    +0.000 C 
ATOM     26  C   UNL     1       6.186   4.006  15.484  0.00  0.00    +0.000 C 
ATOM     27  C   UNL     1       5.645   4.062  16.912  0.00  0.00    +0.000 C 
ENDBRANCH  21  23
ENDBRANCH  19  21
ENDBRANCH   1  19
TORSDOF 5
ENDMDL
MODEL 7
REMARK VINA RESULT:      -8.1      1.899      2.259
REMARK  Name = 
REMARK  5 active torsions:
REMARK  status: ('A' for Active; 'I' for Inactive)
REMARK    1  A    between atoms: S_2  and  N_4
REMARK    2  A    between atoms: S_2  and  C_10
REMARK    3  A    between atoms: N_4  and  C_5
REMARK    4  A    between atoms: C_14  and  C_15
REMARK    5  A    between atoms: C_18  and  C_19
REMARK                            x       y       z     vdW  Elec       q    Type
REMARK                         _______ _______ _______ _____ _____    ______ ____
ROOT
ATOM      1  C   UNL     1       4.958   5.796  17.341  0.00  0.00    +0.000 A 
ATOM      2  C   UNL     1       4.258   4.638  17.690  0.00  0.00    +0.000 A 
ATOM      3  C   UNL     1       2.930   4.736  18.091  0.00  0.00    +0.000 A 
ATOM      4  C   UNL     1       2.314   5.987  18.150  0.00  0.00    +0.000 A 
ATOM      5  C   UNL     1       3.009   7.164  17.811  0.00  0.00    +0.000 A 
ATOM      6  C   UNL     1       4.340   7.055  17.389  0.00  0.00    +0.000 A 
ENDROOT
BRANCH   5   7
ATOM      7  C   UNL     1       2.319   8.444  17.936  0.00  0.00    +0.000 A 
ATOM      8  N   UNL     1       2.831   9.640  18.152  0.00  0.00    +0.000 NA
ATOM      9  N   UNL     1       1.776  10.521  18.171  0.00  0.00    +0.000 NA
ATOM     10  C   UNL     1       0.684   9.808  17.975  0.00  0.00    +0.000 A 
ATOM     11  O   UNL     1       0.952   8.470  17.806  0.00  0.00    +0.000 OA
BRANCH  10  12
ATOM     12  C   UNL     1      -0.706  10.249  17.963  0.00  0.00    +0.000 A 
ATOM     13  C   UNL     1      -1.121  11.215  18.895  0.00  0.00    +0.000 A 
ATOM     14  C   UNL     1      -2.457  11.615  18.973  0.00  0.00    +0.000 A 
ATOM     15  C   UNL     1      -3.397  11.055  18.113  0.00  0.00    +0.000 A 
ATOM     16  C   UNL     1      -2.999  10.113  17.165  0.00  0.00    +0.000 A 
ATOM     17  C   UNL     1      -1.660   9.714  17.087  0.00  0.00    +0.000 A 
ENDBRANCH  10  12
ENDBRANCH   5   7
BRANCH   1  19
ATOM     18  O   UNL     1       7.104   4.300  17.080  0.00  0.00    +0.000 OA
ATOM     19  S   UNL     1       6.644   5.643  16.807  0.00  0.00    +0.000 S 
ATOM     20  O   UNL     1       7.351   6.805  17.293  0.00  0.00    +0.000 OA
BRANCH  19  21
ATOM     21  N   UNL     1       6.526   5.835  15.133  0.00  0.00    +0.000 NA
ATOM     22  H   UNL     1       6.943   6.719  14.846  0.00  0.00    +0.000 HD
BRANCH  21  23
ATOM     23  C   UNL     1       6.757   4.677  14.263  0.00  0.00    +0.000 C 
ATOM     24  C   UNL     1       5.473   4.096  13.693  0.00  0.00    +0.000 C 
ATOM     25  C   UNL     1       5.946   3.283  12.499  0.00  0.00    +0.000 C 
ATOM     26  C   UNL     1       7.180   4.010  11.973  0.00  0.00    +0.000 C 
ATOM     27  C   UNL     1       7.503   5.097  12.998  0.00  0.00    +0.000 C 
ENDBRANCH  21  23
ENDBRANCH  19  21
ENDBRANCH   1  19
TORSDOF 5
ENDMDL
MODEL 8
REMARK VINA RESULT:      -8.0      1.147      1.465
REMARK  Name = 
REMARK  5 active torsions:
REMARK  status: ('A' for Active; 'I' for Inactive)
REMARK    1  A    between atoms: S_2  and  N_4
REMARK    2  A    between atoms: S_2  and  C_10
REMARK    3  A    between atoms: N_4  and  C_5
REMARK    4  A    between atoms: C_14  and  C_15
REMARK    5  A    between atoms: C_18  and  C_19
REMARK                            x       y       z     vdW  Elec       q    Type
REMARK                         _______ _______ _______ _____ _____    ______ ____
ROOT
ATOM      1  C   UNL     1       5.180   4.846  16.808  0.00  0.00    +0.000 A 
ATOM      2  C   UNL     1       4.652   3.664  17.334  0.00  0.00    +0.000 A 
ATOM      3  C   UNL     1       3.490   3.715  18.097  0.00  0.00    +0.000 A 
ATOM      4  C   UNL     1       2.871   4.943  18.338  0.00  0.00    +0.000 A 
ATOM      5  C   UNL     1       3.398   6.144  17.824  0.00  0.00    +0.000 A 
ATOM      6  C   UNL     1       4.556   6.082  17.038  0.00  0.00    +0.000 A 
ENDROOT
BRANCH   5   7
ATOM      7  C   UNL     1       2.726   7.397  18.148  0.00  0.00    +0.000 A 
ATOM      8  N   UNL     1       2.629   8.494  17.423  0.00  0.00    +0.000 NA
ATOM      9  N   UNL     1       1.886   9.387  18.157  0.00  0.00    +0.000 NA
ATOM     10  C   UNL     1       1.582   8.785  19.290  0.00  0.00    +0.000 A 
ATOM     11  O   UNL     1       2.077   7.503  19.355  0.00  0.00    +0.000 OA
BRANCH  10  12
ATOM     12  C   UNL     1       0.859   9.312  20.441  0.00  0.00    +0.000 A 
ATOM     13  C   UNL     1       0.125  10.502  20.297  0.00  0.00    +0.000 A 
ATOM     14  C   UNL     1      -0.523  11.086  21.387  0.00  0.00    +0.000 A 
ATOM     15  C   UNL     1      -0.450  10.483  22.639  0.00  0.00    +0.000 A 
ATOM     16  C   UNL     1       0.253   9.289  22.796  0.00  0.00    +0.000 A 
ATOM     17  C   UNL     1       0.901   8.704  21.702  0.00  0.00    +0.000 A 
ENDBRANCH  10  12
ENDBRANCH   5   7
BRANCH   1  19
ATOM     18  O   UNL     1       7.764   4.386  16.656  0.00  0.00    +0.000 OA
ATOM     19  S   UNL     1       6.648   4.754  15.814  0.00  0.00    +0.000 S 
ATOM     20  O   UNL     1       6.676   5.936  14.984  0.00  0.00    +0.000 OA
BRANCH  19  21
ATOM     21  N   UNL     1       6.318   3.463  14.775  0.00  0.00    +0.000 NA
ATOM     22  H   UNL     1       5.728   2.774  15.240  0.00  0.00    +0.000 HD
BRANCH  21  23
ATOM     23  C   UNL     1       6.034   3.738  13.363  0.00  0.00    +0.000 C 
ATOM     24  C   UNL     1       6.576   2.668  12.428  0.00  0.00    +0.000 C 
ATOM     25  C   UNL     1       5.783   2.872  11.149  0.00  0.00    +0.000 C 
ATOM     26  C   UNL     1       4.417   3.388  11.593  0.00  0.00    +0.000 C 
ATOM     27  C   UNL     1       4.532   3.661  13.093  0.00  0.00    +0.000 C 
ENDBRANCH  21  23
ENDBRANCH  19  21
ENDBRANCH   1  19
TORSDOF 5
ENDMDL
MODEL 9
REMARK VINA RESULT:      -8.0      3.471      8.675
REMARK  Name = 
REMARK  5 active torsions:
REMARK  status: ('A' for Active; 'I' for Inactive)
REMARK    1  A    between atoms: S_2  and  N_4
REMARK    2  A    between atoms: S_2  and  C_10
REMARK    3  A    between atoms: N_4  and  C_5
REMARK    4  A    between atoms: C_14  and  C_15
REMARK    5  A    between atoms: C_18  and  C_19
REMARK                            x       y       z     vdW  Elec       q    Type
REMARK                         _______ _______ _______ _____ _____    ______ ____
ROOT
ATOM      1  C   UNL     1       0.398  10.847  20.367  0.00  0.00    +0.000 A 
ATOM      2  C   UNL     1      -0.266  10.810  21.595  0.00  0.00    +0.000 A 
ATOM      3  C   UNL     1      -0.236   9.644  22.353  0.00  0.00    +0.000 A 
ATOM      4  C   UNL     1       0.447   8.523  21.876  0.00  0.00    +0.000 A 
ATOM      5  C   UNL     1       1.112   8.543  20.635  0.00  0.00    +0.000 A 
ATOM      6  C   UNL     1       1.095   9.727  19.887  0.00  0.00    +0.000 A 
ENDROOT
BRANCH   5   7
ATOM      7  C   UNL     1       1.770   7.325  20.176  0.00  0.00    +0.000 A 
ATOM      8  N   UNL     1       1.763   6.126  20.725  0.00  0.00    +0.000 NA
ATOM      9  N   UNL     1       2.515   5.315  19.908  0.00  0.00    +0.000 NA
ATOM     10  C   UNL     1       2.942   6.070  18.915  0.00  0.00    +0.000 A 
ATOM     11  O   UNL     1       2.498   7.368  19.012  0.00  0.00    +0.000 OA
BRANCH  10  12
ATOM     12  C   UNL     1       3.823   5.715  17.809  0.00  0.00    +0.000 A 
ATOM     13  C   UNL     1       4.473   6.739  17.100  0.00  0.00    +0.000 A 
ATOM     14  C   UNL     1       5.268   6.454  15.988  0.00  0.00    +0.000 A 
ATOM     15  C   UNL     1       5.429   5.136  15.572  0.00  0.00    +0.000 A 
ATOM     16  C   UNL     1       4.812   4.104  16.279  0.00  0.00    +0.000 A 
ATOM     17  C   UNL     1       4.016   4.390  17.394  0.00  0.00    +0.000 A 
ENDBRANCH  10  12
ENDBRANCH   5   7
BRANCH   1  19
ATOM     18  O   UNL     1       1.706  12.641  18.957  0.00  0.00    +0.000 OA
ATOM     19  S   UNL     1       0.369  12.355  19.429  0.00  0.00    +0.000 S 
ATOM     20  O   UNL     1      -0.392  13.317  20.194  0.00  0.00    +0.000 OA
BRANCH  19  21
ATOM     21  N   UNL     1      -0.591  11.952  18.099  0.00  0.00    +0.000 NA
ATOM     22  H   UNL     1      -0.010  11.797  17.276  0.00  0.00    +0.000 HD
BRANCH  21  23
ATOM     23  C   UNL     1      -1.732  11.051  18.289  0.00  0.00    +0.000 C 
ATOM     24  C   UNL     1      -3.074  11.749  18.134  0.00  0.00    +0.000 C 
ATOM     25  C   UNL     1      -4.045  10.609  17.880  0.00  0.00    +0.000 C 
ATOM     26  C   UNL     1      -3.241   9.544  17.140  0.00  0.00    +0.000 C 
ATOM     27  C   UNL     1      -1.786  10.011  17.171  0.00  0.00    +0.000 C 
ENDBRANCH  21  23
ENDBRANCH  19  21
ENDBRANCH   1  19
TORSDOF 5
ENDMDL
