MODEL 1
REMARK VINA RESULT:      -6.3      0.000      0.000
REMARK  Name = 
REMARK  6 active torsions:
REMARK  status: ('A' for Active; 'I' for Inactive)
REMARK    1  A    between atoms: N_1  and  C_2
REMARK    2  A    between atoms: C_2  and  C_3
REMARK    3  A    between atoms: C_3  and  O_5
REMARK    4  A    between atoms: C_7  and  C_8
REMARK    5  A    between atoms: C_10  and  C_11
REMARK    6  A    between atoms: C_11  and  O_13
REMARK                            x       y       z     vdW  Elec       q    Type
REMARK                         _______ _______ _______ _____ _____    ______ ____
ROOT
ATOM      1  C   UNL     1       5.883   5.372  17.032  0.00  0.00    +0.000 C 
ATOM      2  C   UNL     1       5.203   4.590  15.925  0.00  0.00    +0.000 C 
ATOM      3  C   UNL     1       4.525   4.723  17.261  0.00  0.00    +0.000 C 
ENDROOT
BRANCH   3   4
ATOM      4  C   UNL     1       4.299   3.461  18.054  0.00  0.00    +0.000 C 
ATOM      5  C   UNL     1       4.022   3.717  19.521  0.00  0.00    +0.000 C 
ATOM      6  C   UNL     1       2.754   2.977  19.643  0.00  0.00    +0.000 C 
ATOM      7  N   UNL     1       2.247   2.467  18.570  0.00  0.00    +0.000 NA
ATOM      8  O   UNL     1       3.121   2.810  17.517  0.00  0.00    +0.000 OA
BRANCH   6   9
ATOM      9  C   UNL     1       2.058   2.841  20.977  0.00  0.00    +0.000 C 
ATOM     10  O   UNL     1       2.668   2.645  22.008  0.00  0.00    +0.000 OA
BRANCH   9  11
ATOM     11  O   UNL     1       0.729   2.978  20.852  0.00  0.00    +0.000 OA
ATOM     12  H   UNL     1       0.300   2.092  20.816  0.00  0.00    +0.000 HD
ENDBRANCH   9  11
ENDBRANCH   6   9
ENDBRANCH   3   4
BRANCH   1  13
ATOM     13  N   UNL     1       5.984   6.836  16.782  0.00  0.00    +0.000 NA
ATOM     14  H   UNL     1       5.248   7.333  17.289  0.00  0.00    +0.000 HD
ATOM     15  H   UNL     1       6.855   7.209  17.174  0.00  0.00    +0.000 HD
ENDBRANCH   1  13
BRANCH   1  16
ATOM     16  C   UNL     1       7.155   4.803  17.607  0.00  0.00    +0.000 C 
ATOM     17  O   UNL     1       7.427   4.851  18.794  0.00  0.00    +0.000 OA
BRANCH  16  18
ATOM     18  O   UNL     1       7.970   4.307  16.646  0.00  0.00    +0.000 OA
ATOM     19  H   UNL     1       7.422   3.977  15.902  0.00  0.00    +0.000 HD
ENDBRANCH  16  18
ENDBRANCH   1  16
TORSDOF 6
ENDMDL
MODEL 2
REMARK VINA RESULT:      -6.3      1.298      1.315
REMARK  Name = 
REMARK  6 active torsions:
REMARK  status: ('A' for Active; 'I' for Inactive)
REMARK    1  A    between atoms: N_1  and  C_2
REMARK    2  A    between atoms: C_2  and  C_3
REMARK    3  A    between atoms: C_3  and  O_5
REMARK    4  A    between atoms: C_7  and  C_8
REMARK    5  A    between atoms: C_10  and  C_11
REMARK    6  A    between atoms: C_11  and  O_13
REMARK                            x       y       z     vdW  Elec       q    Type
REMARK                         _______ _______ _______ _____ _____    ______ ____
ROOT
ATOM      1  C   UNL     1       5.824   5.357  16.685  0.00  0.00    +0.000 C 
ATOM      2  C   UNL     1       5.203   3.976  16.601  0.00  0.00    +0.000 C 
ATOM      3  C   UNL     1       4.581   5.013  17.496  0.00  0.00    +0.000 C 
ENDROOT
BRANCH   3   4
ATOM      4  C   UNL     1       4.572   4.736  18.977  0.00  0.00    +0.000 C 
ATOM      5  C   UNL     1       3.211   4.931  19.614  0.00  0.00    +0.000 C 
ATOM      6  C   UNL     1       3.071   3.611  20.256  0.00  0.00    +0.000 C 
ATOM      7  N   UNL     1       3.992   2.732  20.035  0.00  0.00    +0.000 NA
ATOM      8  O   UNL     1       4.922   3.342  19.165  0.00  0.00    +0.000 OA
BRANCH   6   9
ATOM      9  C   UNL     1       1.878   3.291  21.124  0.00  0.00    +0.000 C 
ATOM     10  O   UNL     1       1.995   2.891  22.263  0.00  0.00    +0.000 OA
BRANCH   9  11
ATOM     11  O   UNL     1       0.725   3.522  20.476  0.00  0.00    +0.000 OA
ATOM     12  H   UNL     1       0.905   3.969  19.616  0.00  0.00    +0.000 HD
ENDBRANCH   9  11
ENDBRANCH   6   9
ENDBRANCH   3   4
BRANCH   1  13
ATOM     13  N   UNL     1       5.708   6.163  15.439  0.00  0.00    +0.000 NA
ATOM     14  H   UNL     1       5.554   5.550  14.635  0.00  0.00    +0.000 HD
ATOM     15  H   UNL     1       4.872   6.755  15.469  0.00  0.00    +0.000 HD
ENDBRANCH   1  13
BRANCH   1  16
ATOM     16  C   UNL     1       7.189   5.470  17.313  0.00  0.00    +0.000 C 
ATOM     17  O   UNL     1       7.570   6.467  17.900  0.00  0.00    +0.000 OA
BRANCH  16  18
ATOM     18  O   UNL     1       7.946   4.370  17.084  0.00  0.00    +0.000 OA
ATOM     19  H   UNL     1       8.018   4.229  16.116  0.00  0.00    +0.000 HD
ENDBRANCH  16  18
ENDBRANCH   1  16
TORSDOF 6
ENDMDL
MODEL 3
REMARK VINA RESULT:      -6.3      2.948      6.020
REMARK  Name = 
REMARK  6 active torsions:
REMARK  status: ('A' for Active; 'I' for Inactive)
REMARK    1  A    between atoms: N_1  and  C_2
REMARK    2  A    between atoms: C_2  and  C_3
REMARK    3  A    between atoms: C_3  and  O_5
REMARK    4  A    between atoms: C_7  and  C_8
REMARK    5  A    between atoms: C_10  and  C_11
REMARK    6  A    between atoms: C_11  and  O_13
REMARK                            x       y       z     vdW  Elec       q    Type
REMARK                         _______ _______ _______ _____ _____    ______ ____
ROOT
ATOM      1  C   UNL     1       4.957   5.495  18.281  0.00  0.00    +0.000 C 
ATOM      2  C   UNL     1       5.543   6.665  17.515  0.00  0.00    +0.000 C 
ATOM      3  C   UNL     1       5.143   5.420  16.771  0.00  0.00    +0.000 C 
ENDROOT
BRANCH   3   4
ATOM      4  C   UNL     1       6.235   4.645  16.079  0.00  0.00    +0.000 C 
ATOM      5  C   UNL     1       5.740   3.849  14.888  0.00  0.00    +0.000 C 
ATOM      6  C   UNL     1       6.669   4.368  13.868  0.00  0.00    +0.000 C 
ATOM      7  N   UNL     1       7.477   5.315  14.214  0.00  0.00    +0.000 NA
ATOM      8  O   UNL     1       7.196   5.602  15.567  0.00  0.00    +0.000 OA
BRANCH   6   9
ATOM      9  C   UNL     1       6.659   3.826  12.459  0.00  0.00    +0.000 C 
ATOM     10  O   UNL     1       5.973   2.878  12.135  0.00  0.00    +0.000 OA
BRANCH   9  11
ATOM     11  O   UNL     1       7.474   4.530  11.658  0.00  0.00    +0.000 OA
ATOM     12  H   UNL     1       6.972   4.872  10.882  0.00  0.00    +0.000 HD
ENDBRANCH   9  11
ENDBRANCH   6   9
ENDBRANCH   3   4
BRANCH   1  13
ATOM     13  N   UNL     1       3.609   5.749  18.859  0.00  0.00    +0.000 NA
ATOM     14  H   UNL     1       3.474   6.751  19.013  0.00  0.00    +0.000 HD
ATOM     15  H   UNL     1       2.876   5.496  18.189  0.00  0.00    +0.000 HD
ENDBRANCH   1  13
BRANCH   1  16
ATOM     16  C   UNL     1       5.862   4.768  19.241  0.00  0.00    +0.000 C 
ATOM     17  O   UNL     1       6.786   5.308  19.822  0.00  0.00    +0.000 OA
BRANCH  16  18
ATOM     18  O   UNL     1       5.567   3.448  19.316  0.00  0.00    +0.000 OA
ATOM     19  H   UNL     1       4.793   3.261  18.743  0.00  0.00    +0.000 HD
ENDBRANCH  16  18
ENDBRANCH   1  16
TORSDOF 6
ENDMDL
MODEL 4
REMARK VINA RESULT:      -6.2      1.182      1.201
REMARK  Name = 
REMARK  6 active torsions:
REMARK  status: ('A' for Active; 'I' for Inactive)
REMARK    1  A    between atoms: N_1  and  C_2
REMARK    2  A    between atoms: C_2  and  C_3
REMARK    3  A    between atoms: C_3  and  O_5
REMARK    4  A    between atoms: C_7  and  C_8
REMARK    5  A    between atoms: C_10  and  C_11
REMARK    6  A    between atoms: C_11  and  O_13
REMARK                            x       y       z     vdW  Elec       q    Type
REMARK                         _______ _______ _______ _____ _____    ______ ____
ROOT
ATOM      1  C   UNL     1       6.194   5.710  17.063  0.00  0.00    +0.000 C 
ATOM      2  C   UNL     1       5.553   5.143  15.812  0.00  0.00    +0.000 C 
ATOM      3  C   UNL     1       4.725   5.311  17.056  0.00  0.00    +0.000 C 
ENDROOT
BRANCH   3   4
ATOM      4  C   UNL     1       4.171   4.063  17.695  0.00  0.00    +0.000 C 
ATOM      5  C   UNL     1       3.424   4.334  18.986  0.00  0.00    +0.000 C 
ATOM      6  C   UNL     1       2.150   3.673  18.653  0.00  0.00    +0.000 C 
ATOM      7  N   UNL     1       2.011   3.197  17.460  0.00  0.00    +0.000 NA
ATOM      8  O   UNL     1       3.210   3.488  16.775  0.00  0.00    +0.000 OA
BRANCH   6   9
ATOM      9  C   UNL     1       1.036   3.576  19.667  0.00  0.00    +0.000 C 
ATOM     10  O   UNL     1       0.950   4.337  20.609  0.00  0.00    +0.000 OA
BRANCH   9  11
ATOM     11  O   UNL     1       0.188   2.578  19.370  0.00  0.00    +0.000 OA
ATOM     12  H   UNL     1       0.178   2.423  18.397  0.00  0.00    +0.000 HD
ENDBRANCH   9  11
ENDBRANCH   6   9
ENDBRANCH   3   4
BRANCH   1  13
ATOM     13  N   UNL     1       6.585   7.143  16.962  0.00  0.00    +0.000 NA
ATOM     14  H   UNL     1       5.800   7.699  16.614  0.00  0.00    +0.000 HD
ATOM     15  H   UNL     1       6.776   7.530  17.891  0.00  0.00    +0.000 HD
ENDBRANCH   1  13
BRANCH   1  16
ATOM     16  C   UNL     1       7.251   4.877  17.742  0.00  0.00    +0.000 C 
ATOM     17  O   UNL     1       7.490   4.951  18.935  0.00  0.00    +0.000 OA
BRANCH  16  18
ATOM     18  O   UNL     1       7.934   4.107  16.863  0.00  0.00    +0.000 OA
ATOM     19  H   UNL     1       7.358   3.915  16.092  0.00  0.00    +0.000 HD
ENDBRANCH  16  18
ENDBRANCH   1  16
TORSDOF 6
ENDMDL
MODEL 5
REMARK VINA RESULT:      -6.2      2.047      2.241
REMARK  Name = 
REMARK  6 active torsions:
REMARK  status: ('A' for Active; 'I' for Inactive)
REMARK    1  A    between atoms: N_1  and  C_2
REMARK    2  A    between atoms: C_2  and  C_3
REMARK    3  A    between atoms: C_3  and  O_5
REMARK    4  A    between atoms: C_7  and  C_8
REMARK    5  A    between atoms: C_10  and  C_11
REMARK    6  A    between atoms: C_11  and  O_13
REMARK                            x       y       z     vdW  Elec       q    Type
REMARK                         _______ _______ _______ _____ _____    ______ ____
ROOT
ATOM      1  C   UNL     1       6.691   4.587  17.433  0.00  0.00    +0.000 C 
ATOM      2  C   UNL     1       6.366   5.897  18.123  0.00  0.00    +0.000 C 
ATOM      3  C   UNL     1       5.782   4.616  18.653  0.00  0.00    +0.000 C 
ENDROOT
BRANCH   3   4
ATOM      4  C   UNL     1       4.282   4.468  18.611  0.00  0.00    +0.000 C 
ATOM      5  C   UNL     1       3.774   3.291  19.419  0.00  0.00    +0.000 C 
ATOM      6  C   UNL     1       2.801   4.003  20.266  0.00  0.00    +0.000 C 
ATOM      7  N   UNL     1       2.737   5.289  20.163  0.00  0.00    +0.000 NA
ATOM      8  O   UNL     1       3.706   5.658  19.204  0.00  0.00    +0.000 OA
BRANCH   6   9
ATOM      9  C   UNL     1       1.923   3.254  21.240  0.00  0.00    +0.000 C 
ATOM     10  O   UNL     1       2.327   2.881  22.322  0.00  0.00    +0.000 OA
BRANCH   9  11
ATOM     11  O   UNL     1       0.683   3.087  20.753  0.00  0.00    +0.000 OA
ATOM     12  H   UNL     1       0.173   2.473  21.331  0.00  0.00    +0.000 HD
ENDBRANCH   9  11
ENDBRANCH   6   9
ENDBRANCH   3   4
BRANCH   1  13
ATOM     13  N   UNL     1       8.110   4.155  17.563  0.00  0.00    +0.000 NA
ATOM     14  H   UNL     1       8.517   3.994  16.640  0.00  0.00    +0.000 HD
ATOM     15  H   UNL     1       8.680   4.908  17.962  0.00  0.00    +0.000 HD
ENDBRANCH   1  13
BRANCH   1  16
ATOM     16  C   UNL     1       6.159   4.384  16.037  0.00  0.00    +0.000 C 
ATOM     17  O   UNL     1       5.800   5.303  15.323  0.00  0.00    +0.000 OA
BRANCH  16  18
ATOM     18  O   UNL     1       6.067   3.072  15.714  0.00  0.00    +0.000 OA
ATOM     19  H   UNL     1       6.949   2.654  15.820  0.00  0.00    +0.000 HD
ENDBRANCH  16  18
ENDBRANCH   1  16
TORSDOF 6
ENDMDL
MODEL 6
REMARK VINA RESULT:      -6.2      2.230      2.492
REMARK  Name = 
REMARK  6 active torsions:
REMARK  status: ('A' for Active; 'I' for Inactive)
REMARK    1  A    between atoms: N_1  and  C_2
REMARK    2  A    between atoms: C_2  and  C_3
REMARK    3  A    between atoms: C_3  and  O_5
REMARK    4  A    between atoms: C_7  and  C_8
REMARK    5  A    between atoms: C_10  and  C_11
REMARK    6  A    between atoms: C_11  and  O_13
REMARK                            x       y       z     vdW  Elec       q    Type
REMARK                         _______ _______ _______ _____ _____    ______ ____
ROOT
ATOM      1  C   UNL     1       6.647   4.579  16.986  0.00  0.00    +0.000 C 
ATOM      2  C   UNL     1       6.040   5.736  17.755  0.00  0.00    +0.000 C 
ATOM      3  C   UNL     1       5.404   4.376  17.841  0.00  0.00    +0.000 C 
ENDROOT
BRANCH   3   4
ATOM      4  C   UNL     1       4.004   4.230  17.300  0.00  0.00    +0.000 C 
ATOM      5  C   UNL     1       3.253   3.057  17.897  0.00  0.00    +0.000 C 
ATOM      6  C   UNL     1       2.054   3.773  18.367  0.00  0.00    +0.000 C 
ATOM      7  N   UNL     1       2.032   5.059  18.244  0.00  0.00    +0.000 NA
ATOM      8  O   UNL     1       3.266   5.423  17.663  0.00  0.00    +0.000 OA
BRANCH   6   9
ATOM      9  C   UNL     1       0.900   3.029  18.994  0.00  0.00    +0.000 C 
ATOM     10  O   UNL     1       0.361   2.089  18.447  0.00  0.00    +0.000 OA
BRANCH   9  11
ATOM     11  O   UNL     1       0.588   3.534  20.198  0.00  0.00    +0.000 OA
ATOM     12  H   UNL     1       1.248   4.217  20.459  0.00  0.00    +0.000 HD
ENDBRANCH   9  11
ENDBRANCH   6   9
ENDBRANCH   3   4
BRANCH   1  13
ATOM     13  N   UNL     1       7.980   4.140  17.482  0.00  0.00    +0.000 NA
ATOM     14  H   UNL     1       8.716   4.465  16.851  0.00  0.00    +0.000 HD
ATOM     15  H   UNL     1       8.197   4.590  18.376  0.00  0.00    +0.000 HD
ENDBRANCH   1  13
BRANCH   1  16
ATOM     16  C   UNL     1       6.589   4.636  15.481  0.00  0.00    +0.000 C 
ATOM     17  O   UNL     1       6.605   5.681  14.854  0.00  0.00    +0.000 OA
BRANCH  16  18
ATOM     18  O   UNL     1       6.445   3.407  14.931  0.00  0.00    +0.000 OA
ATOM     19  H   UNL     1       5.615   3.004  15.263  0.00  0.00    +0.000 HD
ENDBRANCH  16  18
ENDBRANCH   1  16
TORSDOF 6
ENDMDL
MODEL 7
REMARK VINA RESULT:      -6.2      2.154      2.640
REMARK  Name = 
REMARK  6 active torsions:
REMARK  status: ('A' for Active; 'I' for Inactive)
REMARK    1  A    between atoms: N_1  and  C_2
REMARK    2  A    between atoms: C_2  and  C_3
REMARK    3  A    between atoms: C_3  and  O_5
REMARK    4  A    between atoms: C_7  and  C_8
REMARK    5  A    between atoms: C_10  and  C_11
REMARK    6  A    between atoms: C_11  and  O_13
REMARK                            x       y       z     vdW  Elec       q    Type
REMARK                         _______ _______ _______ _____ _____    ______ ____
ROOT
ATOM      1  C   UNL     1       6.895   5.030  17.628  0.00  0.00    +0.000 C 
ATOM      2  C   UNL     1       6.726   5.434  19.080  0.00  0.00    +0.000 C 
ATOM      3  C   UNL     1       5.730   4.498  18.452  0.00  0.00    +0.000 C 
ENDROOT
BRANCH   3   4
ATOM      4  C   UNL     1       4.306   4.979  18.334  0.00  0.00    +0.000 C 
ATOM      5  C   UNL     1       3.321   3.864  18.042  0.00  0.00    +0.000 C 
ATOM      6  C   UNL     1       2.382   4.096  19.154  0.00  0.00    +0.000 C 
ATOM      7  N   UNL     1       2.682   5.008  20.018  0.00  0.00    +0.000 NA
ATOM      8  O   UNL     1       3.925   5.542  19.614  0.00  0.00    +0.000 OA
BRANCH   6   9
ATOM      9  C   UNL     1       1.121   3.276  19.290  0.00  0.00    +0.000 C 
ATOM     10  O   UNL     1       0.707   2.571  18.394  0.00  0.00    +0.000 OA
BRANCH   9  11
ATOM     11  O   UNL     1       0.565   3.431  20.502  0.00  0.00    +0.000 OA
ATOM     12  H   UNL     1       1.239   3.755  21.144  0.00  0.00    +0.000 HD
ENDBRANCH   9  11
ENDBRANCH   6   9
ENDBRANCH   3   4
BRANCH   1  13
ATOM     13  N   UNL     1       8.080   4.169  17.360  0.00  0.00    +0.000 NA
ATOM     14  H   UNL     1       7.907   3.217  17.690  0.00  0.00    +0.000 HD
ATOM     15  H   UNL     1       8.227   4.064  16.352  0.00  0.00    +0.000 HD
ENDBRANCH   1  13
BRANCH   1  16
ATOM     16  C   UNL     1       6.719   6.100  16.582  0.00  0.00    +0.000 C 
ATOM     17  O   UNL     1       6.290   5.873  15.465  0.00  0.00    +0.000 OA
BRANCH  16  18
ATOM     18  O   UNL     1       7.158   7.307  17.012  0.00  0.00    +0.000 OA
ATOM     19  H   UNL     1       7.058   7.355  17.987  0.00  0.00    +0.000 HD
ENDBRANCH  16  18
ENDBRANCH   1  16
TORSDOF 6
ENDMDL
MODEL 8
REMARK VINA RESULT:      -6.1      1.770      5.686
REMARK  Name = 
REMARK  6 active torsions:
REMARK  status: ('A' for Active; 'I' for Inactive)
REMARK    1  A    between atoms: N_1  and  C_2
REMARK    2  A    between atoms: C_2  and  C_3
REMARK    3  A    between atoms: C_3  and  O_5
REMARK    4  A    between atoms: C_7  and  C_8
REMARK    5  A    between atoms: C_10  and  C_11
REMARK    6  A    between atoms: C_11  and  O_13
REMARK                            x       y       z     vdW  Elec       q    Type
REMARK                         _______ _______ _______ _____ _____    ______ ____
ROOT
ATOM      1  C   UNL     1       2.570   3.173  20.679  0.00  0.00    +0.000 C 
ATOM      2  C   UNL     1       2.609   2.233  19.490  0.00  0.00    +0.000 C 
ATOM      3  C   UNL     1       3.784   3.132  19.761  0.00  0.00    +0.000 C 
ENDROOT
BRANCH   3   4
ATOM      4  C   UNL     1       4.112   4.176  18.724  0.00  0.00    +0.000 C 
ATOM      5  C   UNL     1       5.560   4.622  18.761  0.00  0.00    +0.000 C 
ATOM      6  C   UNL     1       5.907   4.375  17.351  0.00  0.00    +0.000 C 
ATOM      7  N   UNL     1       5.017   3.819  16.598  0.00  0.00    +0.000 NA
ATOM      8  O   UNL     1       3.894   3.584  17.420  0.00  0.00    +0.000 OA
BRANCH   6   9
ATOM      9  C   UNL     1       7.270   4.738  16.811  0.00  0.00    +0.000 C 
ATOM     10  O   UNL     1       8.288   4.219  17.219  0.00  0.00    +0.000 OA
BRANCH   9  11
ATOM     11  O   UNL     1       7.182   5.668  15.846  0.00  0.00    +0.000 OA
ATOM     12  H   UNL     1       6.257   6.001  15.782  0.00  0.00    +0.000 HD
ENDBRANCH   9  11
ENDBRANCH   6   9
ENDBRANCH   3   4
BRANCH   1  13
ATOM     13  N   UNL     1       2.607   2.494  22.004  0.00  0.00    +0.000 NA
ATOM     14  H   UNL     1       1.809   2.785  22.572  0.00  0.00    +0.000 HD
ATOM     15  H   UNL     1       2.484   1.483  21.894  0.00  0.00    +0.000 HD
ENDBRANCH   1  13
BRANCH   1  16
ATOM     16  C   UNL     1       1.571   4.300  20.643  0.00  0.00    +0.000 C 
ATOM     17  O   UNL     1       1.839   5.437  20.990  0.00  0.00    +0.000 OA
BRANCH  16  18
ATOM     18  O   UNL     1       0.344   3.879  20.253  0.00  0.00    +0.000 OA
ATOM     19  H   UNL     1       0.102   3.079  20.767  0.00  0.00    +0.000 HD
ENDBRANCH  16  18
ENDBRANCH   1  16
TORSDOF 6
ENDMDL
MODEL 9
REMARK VINA RESULT:      -6.1      1.208      1.484
REMARK  Name = 
REMARK  6 active torsions:
REMARK  status: ('A' for Active; 'I' for Inactive)
REMARK    1  A    between atoms: N_1  and  C_2
REMARK    2  A    between atoms: C_2  and  C_3
REMARK    3  A    between atoms: C_3  and  O_5
REMARK    4  A    between atoms: C_7  and  C_8
REMARK    5  A    between atoms: C_10  and  C_11
REMARK    6  A    between atoms: C_11  and  O_13
REMARK                            x       y       z     vdW  Elec       q    Type
REMARK                         _______ _______ _______ _____ _____    ______ ____
ROOT
ATOM      1  C   UNL     1       6.176   5.548  16.995  0.00  0.00    +0.000 C 
ATOM      2  C   UNL     1       5.592   4.554  16.010  0.00  0.00    +0.000 C 
ATOM      3  C   UNL     1       4.752   5.033  17.163  0.00  0.00    +0.000 C 
ENDROOT
BRANCH   3   4
ATOM      4  C   UNL     1       4.324   4.009  18.182  0.00  0.00    +0.000 C 
ATOM      5  C   UNL     1       2.977   4.312  18.806  0.00  0.00    +0.000 C 
ATOM      6  C   UNL     1       2.306   3.029  18.528  0.00  0.00    +0.000 C 
ATOM      7  N   UNL     1       2.946   2.153  17.826  0.00  0.00    +0.000 NA
ATOM      8  O   UNL     1       4.188   2.738  17.498  0.00  0.00    +0.000 OA
BRANCH   6   9
ATOM      9  C   UNL     1       0.907   2.759  19.028  0.00  0.00    +0.000 C 
ATOM     10  O   UNL     1       0.152   1.997  18.460  0.00  0.00    +0.000 OA
BRANCH   9  11
ATOM     11  O   UNL     1       0.648   3.447  20.151  0.00  0.00    +0.000 OA
ATOM     12  H   UNL     1       1.328   3.246  20.835  0.00  0.00    +0.000 HD
ENDBRANCH   9  11
ENDBRANCH   6   9
ENDBRANCH   3   4
BRANCH   1  13
ATOM     13  N   UNL     1       6.423   6.904  16.432  0.00  0.00    +0.000 NA
ATOM     14  H   UNL     1       5.580   7.477  16.509  0.00  0.00    +0.000 HD
ATOM     15  H   UNL     1       7.121   7.404  16.991  0.00  0.00    +0.000 HD
ENDBRANCH   1  13
BRANCH   1  16
ATOM     16  C   UNL     1       7.309   5.078  17.869  0.00  0.00    +0.000 C 
ATOM     17  O   UNL     1       7.540   5.549  18.969  0.00  0.00    +0.000 OA
BRANCH  16  18
ATOM     18  O   UNL     1       8.066   4.135  17.258  0.00  0.00    +0.000 OA
ATOM     19  H   UNL     1       8.714   3.779  17.902  0.00  0.00    +0.000 HD
ENDBRANCH  16  18
ENDBRANCH   1  16
TORSDOF 6
ENDMDL
