MODEL 1
REMARK VINA RESULT:      -9.5      0.000      0.000
REMARK  Name = 
REMARK  6 active torsions:
REMARK  status: ('A' for Active; 'I' for Inactive)
REMARK    1  A    between atoms: C_1  and  C_2
REMARK    2  A    between atoms: N_4  and  C_5
REMARK    3  A    between atoms: C_9  and  C_10
REMARK    4  A    between atoms: C_11  and  C_12
REMARK    5  A    between atoms: C_12  and  N_13
REMARK    6  A    between atoms: N_16  and  C_17
REMARK                            x       y       z     vdW  Elec       q    Type
REMARK                         _______ _______ _______ _____ _____    ______ ____
ROOT
ATOM      1  C   UNL     1       7.075   7.490  17.270  0.00  0.00    +0.000 C 
ENDROOT
BRANCH   1   2
ATOM      2  N   UNL     1       7.607   6.127  17.433  0.00  0.00    +0.000 NA
ATOM      3  C   UNL     1       7.311   5.599  18.786  0.00  0.00    +0.000 C 
ATOM      4  C   UNL     1       5.818   5.289  19.050  0.00  0.00    +0.000 C 
ATOM      5  N   UNL     1       5.290   4.369  18.027  0.00  0.00    +0.000 N 
ATOM      6  C   UNL     1       5.570   4.775  16.631  0.00  0.00    +0.000 C 
ATOM      7  C   UNL     1       7.058   5.166  16.448  0.00  0.00    +0.000 C 
BRANCH   5   8
ATOM      8  C   UNL     1       4.024   3.807  18.237  0.00  0.00    +0.000 A 
ATOM      9  C   UNL     1       3.826   2.562  18.857  0.00  0.00    +0.000 A 
ATOM     10  C   UNL     1       2.547   2.009  18.993  0.00  0.00    +0.000 A 
ATOM     11  C   UNL     1       1.449   2.695  18.500  0.00  0.00    +0.000 A 
ATOM     12  F   UNL     1       0.227   2.157  18.609  0.00  0.00    +0.000 F 
ATOM     13  C   UNL     1       1.603   3.929  17.887  0.00  0.00    +0.000 A 
ATOM     14  C   UNL     1       2.883   4.479  17.762  0.00  0.00    +0.000 A 
ENDBRANCH   5   8
ENDBRANCH   1   2
BRANCH   1  16
ATOM     15  C   UNL     1       8.651   9.342  18.377  0.00  0.00    +0.000 C 
ATOM     16  C   UNL     1       7.974   8.487  17.866  0.00  0.00    +0.000 C 
BRANCH  15  21
ATOM     17  C   UNL     1       9.825  11.776  20.941  0.00  0.00    +0.000 A 
ATOM     18  C   UNL     1      10.749  12.507  20.192  0.00  0.00    +0.000 A 
ATOM     19  C   UNL     1      10.977  12.207  18.847  0.00  0.00    +0.000 A 
ATOM     20  C   UNL     1      10.278  11.169  18.234  0.00  0.00    +0.000 A 
ATOM     21  C   UNL     1       9.369  10.419  18.978  0.00  0.00    +0.000 A 
ATOM     22  C   UNL     1       9.155  10.710  20.329  0.00  0.00    +0.000 A 
BRANCH  17  26
ATOM     23  C   UNL     1       8.443  12.914  24.259  0.00  0.00    +0.000 C 
ATOM     24  C   UNL     1       8.449  12.786  22.758  0.00  0.00    +0.000 C 
ATOM     25  O   UNL     1       7.566  13.303  22.085  0.00  0.00    +0.000 OA
ATOM     26  N   UNL     1       9.525  12.049  22.290  0.00  0.00    +0.000 N 
ATOM     27  H   UNL     1      10.092  11.575  22.984  0.00  0.00    +0.000 HD
ENDBRANCH  17  26
ENDBRANCH  15  21
ENDBRANCH   1  16
TORSDOF 5
ENDMDL
MODEL 2
REMARK VINA RESULT:      -9.3      1.827      2.722
REMARK  Name = 
REMARK  6 active torsions:
REMARK  status: ('A' for Active; 'I' for Inactive)
REMARK    1  A    between atoms: C_1  and  C_2
REMARK    2  A    between atoms: N_4  and  C_5
REMARK    3  A    between atoms: C_9  and  C_10
REMARK    4  A    between atoms: C_11  and  C_12
REMARK    5  A    between atoms: C_12  and  N_13
REMARK    6  A    between atoms: N_16  and  C_17
REMARK                            x       y       z     vdW  Elec       q    Type
REMARK                         _______ _______ _______ _____ _____    ______ ____
ROOT
ATOM      1  C   UNL     1       7.172   7.563  17.262  0.00  0.00    +0.000 C 
ENDROOT
BRANCH   1   2
ATOM      2  N   UNL     1       7.721   6.214  17.478  0.00  0.00    +0.000 NA
ATOM      3  C   UNL     1       7.445   5.741  18.855  0.00  0.00    +0.000 C 
ATOM      4  C   UNL     1       5.959   5.426  19.148  0.00  0.00    +0.000 C 
ATOM      5  N   UNL     1       5.431   4.457  18.171  0.00  0.00    +0.000 N 
ATOM      6  C   UNL     1       5.692   4.806  16.756  0.00  0.00    +0.000 C 
ATOM      7  C   UNL     1       7.174   5.205  16.541  0.00  0.00    +0.000 C 
BRANCH   5   8
ATOM      8  C   UNL     1       4.174   3.890  18.418  0.00  0.00    +0.000 A 
ATOM      9  C   UNL     1       3.537   3.007  17.529  0.00  0.00    +0.000 A 
ATOM     10  C   UNL     1       2.254   2.511  17.787  0.00  0.00    +0.000 A 
ATOM     11  C   UNL     1       1.589   2.899  18.940  0.00  0.00    +0.000 A 
ATOM     12  F   UNL     1       0.353   2.441  19.177  0.00  0.00    +0.000 F 
ATOM     13  C   UNL     1       2.187   3.763  19.844  0.00  0.00    +0.000 A 
ATOM     14  C   UNL     1       3.472   4.249  19.583  0.00  0.00    +0.000 A 
ENDBRANCH   5   8
ENDBRANCH   1   2
BRANCH   1  16
ATOM     15  C   UNL     1       8.631   9.474  18.426  0.00  0.00    +0.000 C 
ATOM     16  C   UNL     1       8.003   8.586  17.908  0.00  0.00    +0.000 C 
BRANCH  15  21
ATOM     17  C   UNL     1      10.421  12.733  18.656  0.00  0.00    +0.000 A 
ATOM     18  C   UNL     1      10.646  12.802  20.032  0.00  0.00    +0.000 A 
ATOM     19  C   UNL     1      10.220  11.775  20.879  0.00  0.00    +0.000 A 
ATOM     20  C   UNL     1       9.563  10.664  20.355  0.00  0.00    +0.000 A 
ATOM     21  C   UNL     1       9.314  10.595  18.986  0.00  0.00    +0.000 A 
ATOM     22  C   UNL     1       9.726  11.631  18.141  0.00  0.00    +0.000 A 
BRANCH  17  26
ATOM     23  C   UNL     1      11.037  15.795  16.546  0.00  0.00    +0.000 C 
ATOM     24  C   UNL     1      10.379  15.015  17.654  0.00  0.00    +0.000 C 
ATOM     25  O   UNL     1       9.524  15.534  18.359  0.00  0.00    +0.000 OA
ATOM     26  N   UNL     1      10.854  13.716  17.745  0.00  0.00    +0.000 N 
ATOM     27  H   UNL     1      11.659  13.481  17.176  0.00  0.00    +0.000 HD
ENDBRANCH  17  26
ENDBRANCH  15  21
ENDBRANCH   1  16
TORSDOF 5
ENDMDL
MODEL 3
REMARK VINA RESULT:      -8.8      0.684      1.133
REMARK  Name = 
REMARK  6 active torsions:
REMARK  status: ('A' for Active; 'I' for Inactive)
REMARK    1  A    between atoms: C_1  and  C_2
REMARK    2  A    between atoms: N_4  and  C_5
REMARK    3  A    between atoms: C_9  and  C_10
REMARK    4  A    between atoms: C_11  and  C_12
REMARK    5  A    between atoms: C_12  and  N_13
REMARK    6  A    between atoms: N_16  and  C_17
REMARK                            x       y       z     vdW  Elec       q    Type
REMARK                         _______ _______ _______ _____ _____    ______ ____
ROOT
ATOM      1  C   UNL     1       7.229   7.696  17.291  0.00  0.00    +0.000 C 
ENDROOT
BRANCH   1   2
ATOM      2  N   UNL     1       7.724   6.317  17.444  0.00  0.00    +0.000 NA
ATOM      3  C   UNL     1       7.339   5.756  18.760  0.00  0.00    +0.000 C 
ATOM      4  C   UNL     1       5.828   5.469  18.926  0.00  0.00    +0.000 C 
ATOM      5  N   UNL     1       5.344   4.591  17.846  0.00  0.00    +0.000 N 
ATOM      6  C   UNL     1       5.714   5.031  16.482  0.00  0.00    +0.000 C 
ATOM      7  C   UNL     1       7.217   5.397  16.399  0.00  0.00    +0.000 C 
BRANCH   5   8
ATOM      8  C   UNL     1       4.058   4.048  17.965  0.00  0.00    +0.000 A 
ATOM      9  C   UNL     1       2.889   4.827  17.978  0.00  0.00    +0.000 A 
ATOM     10  C   UNL     1       1.627   4.249  18.159  0.00  0.00    +0.000 A 
ATOM     11  C   UNL     1       1.522   2.878  18.337  0.00  0.00    +0.000 A 
ATOM     12  F   UNL     1       0.317   2.326  18.532  0.00  0.00    +0.000 F 
ATOM     13  C   UNL     1       2.652   2.075  18.324  0.00  0.00    +0.000 A 
ATOM     14  C   UNL     1       3.908   2.659  18.135  0.00  0.00    +0.000 A 
ENDBRANCH   5   8
ENDBRANCH   1   2
BRANCH   1  16
ATOM     15  C   UNL     1       8.725   9.476  18.605  0.00  0.00    +0.000 C 
ATOM     16  C   UNL     1       8.059   8.646  18.042  0.00  0.00    +0.000 C 
BRANCH  15  21
ATOM     17  C   UNL     1       9.817  12.193  20.907  0.00  0.00    +0.000 A 
ATOM     18  C   UNL     1      11.048  12.528  20.338  0.00  0.00    +0.000 A 
ATOM     19  C   UNL     1      11.511  11.870  19.196  0.00  0.00    +0.000 A 
ATOM     20  C   UNL     1      10.744  10.867  18.608  0.00  0.00    +0.000 A 
ATOM     21  C   UNL     1       9.524  10.510  19.179  0.00  0.00    +0.000 A 
ATOM     22  C   UNL     1       9.069  11.158  20.333  0.00  0.00    +0.000 A 
BRANCH  17  26
ATOM     23  C   UNL     1       8.128  13.225  24.115  0.00  0.00    +0.000 C 
ATOM     24  C   UNL     1       8.600  12.236  23.082  0.00  0.00    +0.000 C 
ATOM     25  O   UNL     1       8.373  11.040  23.215  0.00  0.00    +0.000 OA
ATOM     26  N   UNL     1       9.278  12.840  22.037  0.00  0.00    +0.000 N 
ATOM     27  H   UNL     1       9.501  13.824  22.142  0.00  0.00    +0.000 HD
ENDBRANCH  17  26
ENDBRANCH  15  21
ENDBRANCH   1  16
TORSDOF 5
ENDMDL
MODEL 4
REMARK VINA RESULT:      -8.6      2.045      3.127
REMARK  Name = 
REMARK  6 active torsions:
REMARK  status: ('A' for Active; 'I' for Inactive)
REMARK    1  A    between atoms: C_1  and  C_2
REMARK    2  A    between atoms: N_4  and  C_5
REMARK    3  A    between atoms: C_9  and  C_10
REMARK    4  A    between atoms: C_11  and  C_12
REMARK    5  A    between atoms: C_12  and  N_13
REMARK    6  A    between atoms: N_16  and  C_17
REMARK                            x       y       z     vdW  Elec       q    Type
REMARK                         _______ _______ _______ _____ _____    ______ ____
ROOT
ATOM      1  C   UNL     1       7.602   6.810  17.703  0.00  0.00    +0.000 C 
ENDROOT
BRANCH   1   2
ATOM      2  N   UNL     1       6.733   6.956  16.523  0.00  0.00    +0.000 NA
ATOM      3  C   UNL     1       6.577   5.664  15.815  0.00  0.00    +0.000 C 
ATOM      4  C   UNL     1       5.745   4.604  16.575  0.00  0.00    +0.000 C 
ATOM      5  N   UNL     1       4.420   5.142  16.933  0.00  0.00    +0.000 N 
ATOM      6  C   UNL     1       4.453   6.460  17.607  0.00  0.00    +0.000 C 
ATOM      7  C   UNL     1       5.377   7.451  16.856  0.00  0.00    +0.000 C 
BRANCH   5   8
ATOM      8  C   UNL     1       3.457   4.251  17.423  0.00  0.00    +0.000 A 
ATOM      9  C   UNL     1       2.166   4.646  17.813  0.00  0.00    +0.000 A 
ATOM     10  C   UNL     1       1.255   3.732  18.354  0.00  0.00    +0.000 A 
ATOM     11  C   UNL     1       1.629   2.408  18.519  0.00  0.00    +0.000 A 
ATOM     12  F   UNL     1       0.765   1.537  19.057  0.00  0.00    +0.000 F 
ATOM     13  C   UNL     1       2.891   1.979  18.141  0.00  0.00    +0.000 A 
ATOM     14  C   UNL     1       3.794   2.895  17.594  0.00  0.00    +0.000 A 
ENDBRANCH   5   8
ENDBRANCH   1   2
BRANCH   1  16
ATOM     15  C   UNL     1       8.638   9.151  18.468  0.00  0.00    +0.000 C 
ATOM     16  C   UNL     1       8.195   8.097  18.090  0.00  0.00    +0.000 C 
BRANCH  15  21
ATOM     17  C   UNL     1       9.686  12.724  18.552  0.00  0.00    +0.000 A 
ATOM     18  C   UNL     1       9.926  12.886  19.918  0.00  0.00    +0.000 A 
ATOM     19  C   UNL     1       9.754  11.821  20.806  0.00  0.00    +0.000 A 
ATOM     20  C   UNL     1       9.340  10.577  20.334  0.00  0.00    +0.000 A 
ATOM     21  C   UNL     1       9.077  10.410  18.975  0.00  0.00    +0.000 A 
ATOM     22  C   UNL     1       9.233  11.482  18.090  0.00  0.00    +0.000 A 
BRANCH  17  26
ATOM     23  C   UNL     1      10.797  15.638  16.435  0.00  0.00    +0.000 C 
ATOM     24  C   UNL     1      10.920  14.653  17.567  0.00  0.00    +0.000 C 
ATOM     25  O   UNL     1      11.870  14.706  18.339  0.00  0.00    +0.000 OA
ATOM     26  N   UNL     1       9.873  13.747  17.601  0.00  0.00    +0.000 N 
ATOM     27  H   UNL     1       9.237  13.752  16.812  0.00  0.00    +0.000 HD
ENDBRANCH  17  26
ENDBRANCH  15  21
ENDBRANCH   1  16
TORSDOF 5
ENDMDL
MODEL 5
REMARK VINA RESULT:      -8.4      2.071      2.686
REMARK  Name = 
REMARK  6 active torsions:
REMARK  status: ('A' for Active; 'I' for Inactive)
REMARK    1  A    between atoms: C_1  and  C_2
REMARK    2  A    between atoms: N_4  and  C_5
REMARK    3  A    between atoms: C_9  and  C_10
REMARK    4  A    between atoms: C_11  and  C_12
REMARK    5  A    between atoms: C_12  and  N_13
REMARK    6  A    between atoms: N_16  and  C_17
REMARK                            x       y       z     vdW  Elec       q    Type
REMARK                         _______ _______ _______ _____ _____    ______ ____
ROOT
ATOM      1  C   UNL     1       6.895   7.923  17.570  0.00  0.00    +0.000 C 
ENDROOT
BRANCH   1   2
ATOM      2  N   UNL     1       7.514   6.588  17.614  0.00  0.00    +0.000 NA
ATOM      3  C   UNL     1       7.305   5.948  18.933  0.00  0.00    +0.000 C 
ATOM      4  C   UNL     1       5.845   5.526  19.226  0.00  0.00    +0.000 C 
ATOM      5  N   UNL     1       5.333   4.649  18.157  0.00  0.00    +0.000 N 
ATOM      6  C   UNL     1       5.533   5.170  16.786  0.00  0.00    +0.000 C 
ATOM      7  C   UNL     1       6.987   5.667  16.580  0.00  0.00    +0.000 C 
BRANCH   5   8
ATOM      8  C   UNL     1       4.114   3.994  18.369  0.00  0.00    +0.000 A 
ATOM      9  C   UNL     1       3.983   2.846  19.169  0.00  0.00    +0.000 A 
ATOM     10  C   UNL     1       2.756   2.187  19.305  0.00  0.00    +0.000 A 
ATOM     11  C   UNL     1       1.642   2.668  18.634  0.00  0.00    +0.000 A 
ATOM     12  F   UNL     1       0.473   2.025  18.746  0.00  0.00    +0.000 F 
ATOM     13  C   UNL     1       1.731   3.801  17.841  0.00  0.00    +0.000 A 
ATOM     14  C   UNL     1       2.958   4.458  17.716  0.00  0.00    +0.000 A 
ENDBRANCH   5   8
ENDBRANCH   1   2
BRANCH   1  16
ATOM     15  C   UNL     1       8.597   9.843  18.313  0.00  0.00    +0.000 C 
ATOM     16  C   UNL     1       7.854   8.969  17.947  0.00  0.00    +0.000 C 
BRANCH  15  21
ATOM     17  C   UNL     1       9.976  13.280  18.715  0.00  0.00    +0.000 A 
ATOM     18  C   UNL     1      10.924  13.057  19.716  0.00  0.00    +0.000 A 
ATOM     19  C   UNL     1      11.116  11.780  20.248  0.00  0.00    +0.000 A 
ATOM     20  C   UNL     1      10.359  10.707  19.782  0.00  0.00    +0.000 A 
ATOM     21  C   UNL     1       9.395  10.922  18.798  0.00  0.00    +0.000 A 
ATOM     22  C   UNL     1       9.193  12.205  18.278  0.00  0.00    +0.000 A 
BRANCH  17  26
ATOM     23  C   UNL     1      10.137  16.749  17.249  0.00  0.00    +0.000 C 
ATOM     24  C   UNL     1      10.715  15.509  17.879  0.00  0.00    +0.000 C 
ATOM     25  O   UNL     1      11.911  15.438  18.131  0.00  0.00    +0.000 OA
ATOM     26  N   UNL     1       9.758  14.535  18.114  0.00  0.00    +0.000 N 
ATOM     27  H   UNL     1       8.836  14.695  17.724  0.00  0.00    +0.000 HD
ENDBRANCH  17  26
ENDBRANCH  15  21
ENDBRANCH   1  16
TORSDOF 5
ENDMDL
MODEL 6
REMARK VINA RESULT:      -8.4      1.063      1.345
REMARK  Name = 
REMARK  6 active torsions:
REMARK  status: ('A' for Active; 'I' for Inactive)
REMARK    1  A    between atoms: C_1  and  C_2
REMARK    2  A    between atoms: N_4  and  C_5
REMARK    3  A    between atoms: C_9  and  C_10
REMARK    4  A    between atoms: C_11  and  C_12
REMARK    5  A    between atoms: C_12  and  N_13
REMARK    6  A    between atoms: N_16  and  C_17
REMARK                            x       y       z     vdW  Elec       q    Type
REMARK                         _______ _______ _______ _____ _____    ______ ____
ROOT
ATOM      1  C   UNL     1       7.129   7.815  17.487  0.00  0.00    +0.000 C 
ENDROOT
BRANCH   1   2
ATOM      2  N   UNL     1       7.799   6.503  17.499  0.00  0.00    +0.000 NA
ATOM      3  C   UNL     1       7.626   5.829  18.807  0.00  0.00    +0.000 C 
ATOM      4  C   UNL     1       6.186   5.347  19.103  0.00  0.00    +0.000 C 
ATOM      5  N   UNL     1       5.698   4.473  18.022  0.00  0.00    +0.000 N 
ATOM      6  C   UNL     1       5.866   5.028  16.660  0.00  0.00    +0.000 C 
ATOM      7  C   UNL     1       7.297   5.583  16.451  0.00  0.00    +0.000 C 
BRANCH   5   8
ATOM      8  C   UNL     1       4.506   3.768  18.231  0.00  0.00    +0.000 A 
ATOM      9  C   UNL     1       3.501   3.644  17.257  0.00  0.00    +0.000 A 
ATOM     10  C   UNL     1       2.298   2.981  17.528  0.00  0.00    +0.000 A 
ATOM     11  C   UNL     1       2.085   2.439  18.786  0.00  0.00    +0.000 A 
ATOM     12  F   UNL     1       0.925   1.824  19.054  0.00  0.00    +0.000 F 
ATOM     13  C   UNL     1       3.055   2.535  19.771  0.00  0.00    +0.000 A 
ATOM     14  C   UNL     1       4.257   3.192  19.490  0.00  0.00    +0.000 A 
ENDBRANCH   5   8
ENDBRANCH   1   2
BRANCH   1  16
ATOM     15  C   UNL     1       8.746   9.805  18.236  0.00  0.00    +0.000 C 
ATOM     16  C   UNL     1       8.041   8.882  17.919  0.00  0.00    +0.000 C 
BRANCH  15  21
ATOM     17  C   UNL     1       9.883  12.964  19.849  0.00  0.00    +0.000 A 
ATOM     18  C   UNL     1      11.063  13.201  19.140  0.00  0.00    +0.000 A 
ATOM     19  C   UNL     1      11.476  12.331  18.128  0.00  0.00    +0.000 A 
ATOM     20  C   UNL     1      10.709  11.211  17.813  0.00  0.00    +0.000 A 
ATOM     21  C   UNL     1       9.542  10.953  18.529  0.00  0.00    +0.000 A 
ATOM     22  C   UNL     1       9.138  11.816  19.553  0.00  0.00    +0.000 A 
BRANCH  17  26
ATOM     23  C   UNL     1       8.557  14.616  22.967  0.00  0.00    +0.000 C 
ATOM     24  C   UNL     1       9.089  13.462  22.160  0.00  0.00    +0.000 C 
ATOM     25  O   UNL     1       9.213  12.353  22.663  0.00  0.00    +0.000 OA
ATOM     26  N   UNL     1       9.394  13.820  20.856  0.00  0.00    +0.000 N 
ATOM     27  H   UNL     1       9.363  14.808  20.633  0.00  0.00    +0.000 HD
ENDBRANCH  17  26
ENDBRANCH  15  21
ENDBRANCH   1  16
TORSDOF 5
ENDMDL
MODEL 7
REMARK VINA RESULT:      -8.3      2.168      2.513
REMARK  Name = 
REMARK  6 active torsions:
REMARK  status: ('A' for Active; 'I' for Inactive)
REMARK    1  A    between atoms: C_1  and  C_2
REMARK    2  A    between atoms: N_4  and  C_5
REMARK    3  A    between atoms: C_9  and  C_10
REMARK    4  A    between atoms: C_11  and  C_12
REMARK    5  A    between atoms: C_12  and  N_13
REMARK    6  A    between atoms: N_16  and  C_17
REMARK                            x       y       z     vdW  Elec       q    Type
REMARK                         _______ _______ _______ _____ _____    ______ ____
ROOT
ATOM      1  C   UNL     1       7.760   6.958  18.209  0.00  0.00    +0.000 C 
ENDROOT
BRANCH   1   2
ATOM      2  N   UNL     1       7.402   6.547  16.841  0.00  0.00    +0.000 NA
ATOM      3  C   UNL     1       7.379   5.070  16.719  0.00  0.00    +0.000 C 
ATOM      4  C   UNL     1       6.220   4.375  17.471  0.00  0.00    +0.000 C 
ATOM      5  N   UNL     1       4.921   4.931  17.053  0.00  0.00    +0.000 N 
ATOM      6  C   UNL     1       4.845   6.409  17.091  0.00  0.00    +0.000 C 
ATOM      7  C   UNL     1       6.078   7.053  16.408  0.00  0.00    +0.000 C 
BRANCH   5   8
ATOM      8  C   UNL     1       3.757   4.268  17.463  0.00  0.00    +0.000 A 
ATOM      9  C   UNL     1       2.585   4.937  17.855  0.00  0.00    +0.000 A 
ATOM     10  C   UNL     1       1.464   4.236  18.316  0.00  0.00    +0.000 A 
ATOM     11  C   UNL     1       1.506   2.853  18.395  0.00  0.00    +0.000 A 
ATOM     12  F   UNL     1       0.442   2.183  18.856  0.00  0.00    +0.000 F 
ATOM     13  C   UNL     1       2.642   2.158  18.011  0.00  0.00    +0.000 A 
ATOM     14  C   UNL     1       3.756   2.864  17.545  0.00  0.00    +0.000 A 
ENDBRANCH   5   8
ENDBRANCH   1   2
BRANCH   1  16
ATOM     15  C   UNL     1       8.631   9.483  18.244  0.00  0.00    +0.000 C 
ATOM     16  C   UNL     1       8.204   8.358  18.245  0.00  0.00    +0.000 C 
BRANCH  15  21
ATOM     17  C   UNL     1       9.060  13.156  18.693  0.00  0.00    +0.000 A 
ATOM     18  C   UNL     1      10.372  13.315  18.241  0.00  0.00    +0.000 A 
ATOM     19  C   UNL     1      11.108  12.220  17.781  0.00  0.00    +0.000 A 
ATOM     20  C   UNL     1      10.536  10.950  17.766  0.00  0.00    +0.000 A 
ATOM     21  C   UNL     1       9.235  10.776  18.235  0.00  0.00    +0.000 A 
ATOM     22  C   UNL     1       8.506  11.870  18.712  0.00  0.00    +0.000 A 
BRANCH  17  26
ATOM     23  C   UNL     1       6.548  15.918  19.211  0.00  0.00    +0.000 C 
ATOM     24  C   UNL     1       7.167  14.763  18.470  0.00  0.00    +0.000 C 
ATOM     25  O   UNL     1       6.709  14.393  17.396  0.00  0.00    +0.000 OA
ATOM     26  N   UNL     1       8.254  14.223  19.138  0.00  0.00    +0.000 N 
ATOM     27  H   UNL     1       8.424  14.554  20.080  0.00  0.00    +0.000 HD
ENDBRANCH  17  26
ENDBRANCH  15  21
ENDBRANCH   1  16
TORSDOF 5
ENDMDL
MODEL 8
REMARK VINA RESULT:      -8.1      1.764      1.972
REMARK  Name = 
REMARK  6 active torsions:
REMARK  status: ('A' for Active; 'I' for Inactive)
REMARK    1  A    between atoms: C_1  and  C_2
REMARK    2  A    between atoms: N_4  and  C_5
REMARK    3  A    between atoms: C_9  and  C_10
REMARK    4  A    between atoms: C_11  and  C_12
REMARK    5  A    between atoms: C_12  and  N_13
REMARK    6  A    between atoms: N_16  and  C_17
REMARK                            x       y       z     vdW  Elec       q    Type
REMARK                         _______ _______ _______ _____ _____    ______ ____
ROOT
ATOM      1  C   UNL     1       7.162   7.656  17.335  0.00  0.00    +0.000 C 
ENDROOT
BRANCH   1   2
ATOM      2  N   UNL     1       7.681   6.325  17.690  0.00  0.00    +0.000 NA
ATOM      3  C   UNL     1       7.233   5.923  19.044  0.00  0.00    +0.000 C 
ATOM      4  C   UNL     1       5.722   5.612  19.162  0.00  0.00    +0.000 C 
ATOM      5  N   UNL     1       5.323   4.589  18.180  0.00  0.00    +0.000 N 
ATOM      6  C   UNL     1       5.762   4.865  16.793  0.00  0.00    +0.000 C 
ATOM      7  C   UNL     1       7.258   5.264  16.746  0.00  0.00    +0.000 C 
BRANCH   5   8
ATOM      8  C   UNL     1       4.046   4.026  18.295  0.00  0.00    +0.000 A 
ATOM      9  C   UNL     1       3.041   4.555  19.122  0.00  0.00    +0.000 A 
ATOM     10  C   UNL     1       1.798   3.925  19.255  0.00  0.00    +0.000 A 
ATOM     11  C   UNL     1       1.549   2.750  18.563  0.00  0.00    +0.000 A 
ATOM     12  F   UNL     1       0.368   2.135  18.706  0.00  0.00    +0.000 F 
ATOM     13  C   UNL     1       2.513   2.200  17.734  0.00  0.00    +0.000 A 
ATOM     14  C   UNL     1       3.750   2.839  17.600  0.00  0.00    +0.000 A 
ENDBRANCH   5   8
ENDBRANCH   1   2
BRANCH   1  16
ATOM     15  C   UNL     1       8.686   9.643  18.267  0.00  0.00    +0.000 C 
ATOM     16  C   UNL     1       8.018   8.722  17.872  0.00  0.00    +0.000 C 
BRANCH  15  21
ATOM     17  C   UNL     1       9.523  13.037  19.553  0.00  0.00    +0.000 A 
ATOM     18  C   UNL     1      10.911  13.031  19.400  0.00  0.00    +0.000 A 
ATOM     19  C   UNL     1      11.567  11.919  18.866  0.00  0.00    +0.000 A 
ATOM     20  C   UNL     1      10.838  10.798  18.477  0.00  0.00    +0.000 A 
ATOM     21  C   UNL     1       9.454  10.784  18.645  0.00  0.00    +0.000 A 
ATOM     22  C   UNL     1       8.801  11.892  19.195  0.00  0.00    +0.000 A 
BRANCH  17  26
ATOM     23  C   UNL     1       7.497  16.160  20.150  0.00  0.00    +0.000 C 
ATOM     24  C   UNL     1       8.147  15.101  19.299  0.00  0.00    +0.000 C 
ATOM     25  O   UNL     1       8.070  15.148  18.078  0.00  0.00    +0.000 OA
ATOM     26  N   UNL     1       8.799  14.138  20.053  0.00  0.00    +0.000 N 
ATOM     27  H   UNL     1       8.656  14.166  21.056  0.00  0.00    +0.000 HD
ENDBRANCH  17  26
ENDBRANCH  15  21
ENDBRANCH   1  16
TORSDOF 5
ENDMDL
MODEL 9
REMARK VINA RESULT:      -7.9      1.121      1.594
REMARK  Name = 
REMARK  6 active torsions:
REMARK  status: ('A' for Active; 'I' for Inactive)
REMARK    1  A    between atoms: C_1  and  C_2
REMARK    2  A    between atoms: N_4  and  C_5
REMARK    3  A    between atoms: C_9  and  C_10
REMARK    4  A    between atoms: C_11  and  C_12
REMARK    5  A    between atoms: C_12  and  N_13
REMARK    6  A    between atoms: N_16  and  C_17
REMARK                            x       y       z     vdW  Elec       q    Type
REMARK                         _______ _______ _______ _____ _____    ______ ____
ROOT
ATOM      1  C   UNL     1       7.681   7.015  18.115  0.00  0.00    +0.000 C 
ENDROOT
BRANCH   1   2
ATOM      2  N   UNL     1       7.106   6.889  16.765  0.00  0.00    +0.000 NA
ATOM      3  C   UNL     1       7.098   5.476  16.319  0.00  0.00    +0.000 C 
ATOM      4  C   UNL     1       6.101   4.564  17.072  0.00  0.00    +0.000 C 
ATOM      5  N   UNL     1       4.737   5.117  17.005  0.00  0.00    +0.000 N 
ATOM      6  C   UNL     1       4.633   6.545  17.385  0.00  0.00    +0.000 C 
ATOM      7  C   UNL     1       5.716   7.395  16.675  0.00  0.00    +0.000 C 
BRANCH   5   8
ATOM      8  C   UNL     1       3.675   4.311  17.437  0.00  0.00    +0.000 A 
ATOM      9  C   UNL     1       2.428   4.823  17.831  0.00  0.00    +0.000 A 
ATOM     10  C   UNL     1       1.415   3.986  18.314  0.00  0.00    +0.000 A 
ATOM     11  C   UNL     1       1.643   2.623  18.414  0.00  0.00    +0.000 A 
ATOM     12  F   UNL     1       0.682   1.824  18.896  0.00  0.00    +0.000 F 
ATOM     13  C   UNL     1       2.858   2.080  18.028  0.00  0.00    +0.000 A 
ATOM     14  C   UNL     1       3.863   2.920  17.540  0.00  0.00    +0.000 A 
ENDBRANCH   5   8
ENDBRANCH   1   2
BRANCH   1  16
ATOM     15  C   UNL     1       8.853   9.380  18.523  0.00  0.00    +0.000 C 
ATOM     16  C   UNL     1       8.326   8.321  18.299  0.00  0.00    +0.000 C 
BRANCH  15  21
ATOM     17  C   UNL     1       9.336  12.668  20.206  0.00  0.00    +0.000 A 
ATOM     18  C   UNL     1      10.543  13.072  19.631  0.00  0.00    +0.000 A 
ATOM     19  C   UNL     1      11.189  12.271  18.687  0.00  0.00    +0.000 A 
ATOM     20  C   UNL     1      10.632  11.053  18.305  0.00  0.00    +0.000 A 
ATOM     21  C   UNL     1       9.438  10.630  18.887  0.00  0.00    +0.000 A 
ATOM     22  C   UNL     1       8.801  11.425  19.845  0.00  0.00    +0.000 A 
BRANCH  17  26
ATOM     23  C   UNL     1       7.623  14.200  23.194  0.00  0.00    +0.000 C 
ATOM     24  C   UNL     1       8.488  13.187  22.492  0.00  0.00    +0.000 C 
ATOM     25  O   UNL     1       8.992  12.260  23.113  0.00  0.00    +0.000 OA
ATOM     26  N   UNL     1       8.618  13.444  21.137  0.00  0.00    +0.000 N 
ATOM     27  H   UNL     1       8.250  14.327  20.801  0.00  0.00    +0.000 HD
ENDBRANCH  17  26
ENDBRANCH  15  21
ENDBRANCH   1  16
TORSDOF 5
ENDMDL
