MODEL 1
REMARK VINA RESULT:      -8.6      0.000      0.000
REMARK  Name = 
REMARK  6 active torsions:
REMARK  status: ('A' for Active; 'I' for Inactive)
REMARK    1  A    between atoms: C_2  and  C_25
REMARK    2  A    between atoms: N_3  and  C_4
REMARK    3  A    between atoms: C_7  and  O_8
REMARK    4  A    between atoms: O_8  and  C_9
REMARK    5  A    between atoms: C_11  and  C_12
REMARK    6  A    between atoms: C_17  and  C_18
REMARK                            x       y       z     vdW  Elec       q    Type
REMARK                         _______ _______ _______ _____ _____    ______ ____
ROOT
ATOM      1  C   UNL     1       2.086   7.576  19.885  0.00  0.00    +0.000 A 
ATOM      2  C   UNL     1       1.428   8.296  20.885  0.00  0.00    +0.000 A 
ATOM      3  C   UNL     1       0.901   9.562  20.616  0.00  0.00    +0.000 A 
ATOM      4  C   UNL     1       1.023  10.115  19.342  0.00  0.00    +0.000 A 
ATOM      5  C   UNL     1       1.641   9.382  18.329  0.00  0.00    +0.000 A 
ATOM      6  C   UNL     1       2.210   8.137  18.610  0.00  0.00    +0.000 A 
ENDROOT
BRANCH   1   9
ATOM      7  O   UNL     1       0.675   5.068  20.473  0.00  0.00    +0.000 OA
ATOM      8  C   UNL     1       1.885   5.127  20.305  0.00  0.00    +0.000 C 
ATOM      9  N   UNL     1       2.615   6.281  20.066  0.00  0.00    +0.000 N 
ATOM     10  H   UNL     1       3.589   6.162  19.823  0.00  0.00    +0.000 HD
BRANCH   8  11
ATOM     11  C   UNL     1       2.766   3.869  20.250  0.00  0.00    +0.000 C 
ATOM     12  C   UNL     1       1.960   2.558  20.255  0.00  0.00    +0.000 C 
ATOM     13  C   UNL     1       1.555   2.018  18.879  0.00  0.00    +0.000 C 
ATOM     14  C   UNL     1       2.645   2.149  17.824  0.00  0.00    +0.000 C 
ATOM     15  C   UNL     1       3.163   3.576  17.761  0.00  0.00    +0.000 C 
ATOM     16  C   UNL     1       3.778   3.954  19.103  0.00  0.00    +0.000 C 
ENDBRANCH   8  11
ENDBRANCH   1   9
BRANCH   4  17
ATOM     17  O   UNL     1       0.459  11.359  19.169  0.00  0.00    +0.000 OA
BRANCH  17  18
ATOM     18  C   UNL     1      -0.879  11.453  18.868  0.00  0.00    +0.000 A 
ATOM     19  C   UNL     1      -1.686  12.041  19.844  0.00  0.00    +0.000 A 
ATOM     20  C   UNL     1      -3.069  12.162  19.646  0.00  0.00    +0.000 A 
ATOM     21  C   UNL     1      -3.626  11.703  18.437  0.00  0.00    +0.000 A 
ATOM     22  C   UNL     1      -2.817  11.141  17.433  0.00  0.00    +0.000 A 
ATOM     23  C   UNL     1      -1.440  11.042  17.655  0.00  0.00    +0.000 A 
BRANCH  20  24
ATOM     24  C   UNL     1      -3.960  12.745  20.715  0.00  0.00    +0.000 C 
ATOM     25  F   UNL     1      -4.223  14.070  20.546  0.00  0.00    +0.000 F 
ATOM     26  F   UNL     1      -5.168  12.125  20.780  0.00  0.00    +0.000 F 
ATOM     27  F   UNL     1      -3.412  12.629  21.956  0.00  0.00    +0.000 F 
ENDBRANCH  20  24
BRANCH  22  28
ATOM     28  C   UNL     1      -3.398  10.589  16.158  0.00  0.00    +0.000 C 
ATOM     29  F   UNL     1      -2.783  11.065  15.032  0.00  0.00    +0.000 F 
ATOM     30  F   UNL     1      -3.302   9.231  16.089  0.00  0.00    +0.000 F 
ATOM     31  F   UNL     1      -4.721  10.886  16.013  0.00  0.00    +0.000 F 
ENDBRANCH  22  28
ENDBRANCH  17  18
ENDBRANCH   4  17
TORSDOF 6
ENDMDL
MODEL 2
REMARK VINA RESULT:      -8.6      0.176      1.000
REMARK  Name = 
REMARK  6 active torsions:
REMARK  status: ('A' for Active; 'I' for Inactive)
REMARK    1  A    between atoms: C_2  and  C_25
REMARK    2  A    between atoms: N_3  and  C_4
REMARK    3  A    between atoms: C_7  and  O_8
REMARK    4  A    between atoms: O_8  and  C_9
REMARK    5  A    between atoms: C_11  and  C_12
REMARK    6  A    between atoms: C_17  and  C_18
REMARK                            x       y       z     vdW  Elec       q    Type
REMARK                         _______ _______ _______ _____ _____    ______ ____
ROOT
ATOM      1  C   UNL     1       2.104   7.518  19.842  0.00  0.00    +0.000 A 
ATOM      2  C   UNL     1       1.461   8.264  20.833  0.00  0.00    +0.000 A 
ATOM      3  C   UNL     1       0.934   9.525  20.542  0.00  0.00    +0.000 A 
ATOM      4  C   UNL     1       1.044  10.048  19.255  0.00  0.00    +0.000 A 
ATOM      5  C   UNL     1       1.648   9.291  18.251  0.00  0.00    +0.000 A 
ATOM      6  C   UNL     1       2.216   8.051  18.554  0.00  0.00    +0.000 A 
ENDROOT
BRANCH   1   9
ATOM      7  O   UNL     1       0.688   5.021  20.460  0.00  0.00    +0.000 OA
ATOM      8  C   UNL     1       1.899   5.077  20.299  0.00  0.00    +0.000 C 
ATOM      9  N   UNL     1       2.631   6.226  20.047  0.00  0.00    +0.000 N 
ATOM     10  H   UNL     1       3.606   6.103  19.811  0.00  0.00    +0.000 HD
BRANCH   8  11
ATOM     11  C   UNL     1       2.778   3.817  20.268  0.00  0.00    +0.000 C 
ATOM     12  C   UNL     1       1.971   2.508  20.219  0.00  0.00    +0.000 C 
ATOM     13  C   UNL     1       1.629   1.988  18.819  0.00  0.00    +0.000 C 
ATOM     14  C   UNL     1       2.768   2.129  17.817  0.00  0.00    +0.000 C 
ATOM     15  C   UNL     1       3.292   3.556  17.797  0.00  0.00    +0.000 C 
ATOM     16  C   UNL     1       3.843   3.914  19.171  0.00  0.00    +0.000 C 
ENDBRANCH   8  11
ENDBRANCH   1   9
BRANCH   4  17
ATOM     17  O   UNL     1       0.482  11.291  19.060  0.00  0.00    +0.000 OA
BRANCH  17  18
ATOM     18  C   UNL     1      -0.853  11.381  18.747  0.00  0.00    +0.000 A 
ATOM     19  C   UNL     1      -1.666  11.989  19.705  0.00  0.00    +0.000 A 
ATOM     20  C   UNL     1      -3.047  12.110  19.495  0.00  0.00    +0.000 A 
ATOM     21  C   UNL     1      -3.596  11.628  18.291  0.00  0.00    +0.000 A 
ATOM     22  C   UNL     1      -2.781  11.045  17.304  0.00  0.00    +0.000 A 
ATOM     23  C   UNL     1      -1.406  10.948  17.538  0.00  0.00    +0.000 A 
BRANCH  20  24
ATOM     24  C   UNL     1      -3.945  12.715  20.546  0.00  0.00    +0.000 C 
ATOM     25  F   UNL     1      -3.613  12.364  21.817  0.00  0.00    +0.000 F 
ATOM     26  F   UNL     1      -3.937  14.075  20.515  0.00  0.00    +0.000 F 
ATOM     27  F   UNL     1      -5.244  12.344  20.383  0.00  0.00    +0.000 F 
ENDBRANCH  20  24
BRANCH  22  28
ATOM     28  C   UNL     1      -3.354  10.470  16.035  0.00  0.00    +0.000 C 
ATOM     29  F   UNL     1      -4.644  10.857  15.800  0.00  0.00    +0.000 F 
ATOM     30  F   UNL     1      -2.645  10.841  14.931  0.00  0.00    +0.000 F 
ATOM     31  F   UNL     1      -3.369   9.107  16.039  0.00  0.00    +0.000 F 
ENDBRANCH  22  28
ENDBRANCH  17  18
ENDBRANCH   4  17
TORSDOF 6
ENDMDL
MODEL 3
REMARK VINA RESULT:      -8.6      0.232      3.338
REMARK  Name = 
REMARK  6 active torsions:
REMARK  status: ('A' for Active; 'I' for Inactive)
REMARK    1  A    between atoms: C_2  and  C_25
REMARK    2  A    between atoms: N_3  and  C_4
REMARK    3  A    between atoms: C_7  and  O_8
REMARK    4  A    between atoms: O_8  and  C_9
REMARK    5  A    between atoms: C_11  and  C_12
REMARK    6  A    between atoms: C_17  and  C_18
REMARK                            x       y       z     vdW  Elec       q    Type
REMARK                         _______ _______ _______ _____ _____    ______ ____
ROOT
ATOM      1  C   UNL     1       2.139   7.482  19.726  0.00  0.00    +0.000 A 
ATOM      2  C   UNL     1       2.247   8.108  18.481  0.00  0.00    +0.000 A 
ATOM      3  C   UNL     1       1.693   9.374  18.275  0.00  0.00    +0.000 A 
ATOM      4  C   UNL     1       1.030  10.026  19.313  0.00  0.00    +0.000 A 
ATOM      5  C   UNL     1       0.957   9.424  20.570  0.00  0.00    +0.000 A 
ATOM      6  C   UNL     1       1.469   8.139  20.763  0.00  0.00    +0.000 A 
ENDROOT
BRANCH   1   9
ATOM      7  O   UNL     1       0.783   4.986  20.471  0.00  0.00    +0.000 OA
ATOM      8  C   UNL     1       1.996   5.069  20.334  0.00  0.00    +0.000 C 
ATOM      9  N   UNL     1       2.699   6.223  20.025  0.00  0.00    +0.000 N 
ATOM     10  H   UNL     1       3.683   6.115  19.820  0.00  0.00    +0.000 HD
BRANCH   8  11
ATOM     11  C   UNL     1       2.914   3.838  20.404  0.00  0.00    +0.000 C 
ATOM     12  C   UNL     1       2.149   2.503  20.379  0.00  0.00    +0.000 C 
ATOM     13  C   UNL     1       1.891   1.908  18.990  0.00  0.00    +0.000 C 
ATOM     14  C   UNL     1       3.072   2.040  18.037  0.00  0.00    +0.000 C 
ATOM     15  C   UNL     1       3.553   3.481  17.974  0.00  0.00    +0.000 C 
ATOM     16  C   UNL     1       4.027   3.919  19.354  0.00  0.00    +0.000 C 
ENDBRANCH   8  11
ENDBRANCH   1   9
BRANCH   4  17
ATOM     17  O   UNL     1       0.531  11.276  19.019  0.00  0.00    +0.000 OA
BRANCH  17  18
ATOM     18  C   UNL     1      -0.829  11.446  18.914  0.00  0.00    +0.000 A 
ATOM     19  C   UNL     1      -1.417  10.971  17.741  0.00  0.00    +0.000 A 
ATOM     20  C   UNL     1      -2.794  11.117  17.524  0.00  0.00    +0.000 A 
ATOM     21  C   UNL     1      -3.578  11.730  18.521  0.00  0.00    +0.000 A 
ATOM     22  C   UNL     1      -3.002  12.181  19.722  0.00  0.00    +0.000 A 
ATOM     23  C   UNL     1      -1.627  12.013  19.913  0.00  0.00    +0.000 A 
BRANCH  20  24
ATOM     24  C   UNL     1      -3.433  10.657  16.237  0.00  0.00    +0.000 C 
ATOM     25  F   UNL     1      -4.761  10.939  16.154  0.00  0.00    +0.000 F 
ATOM     26  F   UNL     1      -2.858  11.221  15.141  0.00  0.00    +0.000 F 
ATOM     27  F   UNL     1      -3.326   9.310  16.066  0.00  0.00    +0.000 F 
ENDBRANCH  20  24
BRANCH  22  28
ATOM     28  C   UNL     1      -3.809  12.892  20.775  0.00  0.00    +0.000 C 
ATOM     29  F   UNL     1      -4.980  12.254  21.082  0.00  0.00    +0.000 F 
ATOM     30  F   UNL     1      -3.132  13.016  21.952  0.00  0.00    +0.000 F 
ATOM     31  F   UNL     1      -4.161  14.155  20.401  0.00  0.00    +0.000 F 
ENDBRANCH  22  28
ENDBRANCH  17  18
ENDBRANCH   4  17
TORSDOF 6
ENDMDL
MODEL 4
REMARK VINA RESULT:      -8.6      5.940      9.783
REMARK  Name = 
REMARK  6 active torsions:
REMARK  status: ('A' for Active; 'I' for Inactive)
REMARK    1  A    between atoms: C_2  and  C_25
REMARK    2  A    between atoms: N_3  and  C_4
REMARK    3  A    between atoms: C_7  and  O_8
REMARK    4  A    between atoms: O_8  and  C_9
REMARK    5  A    between atoms: C_11  and  C_12
REMARK    6  A    between atoms: C_17  and  C_18
REMARK                            x       y       z     vdW  Elec       q    Type
REMARK                         _______ _______ _______ _____ _____    ______ ____
ROOT
ATOM      1  C   UNL     1       1.451   9.079  19.491  0.00  0.00    +0.000 A 
ATOM      2  C   UNL     1       1.564   8.065  20.445  0.00  0.00    +0.000 A 
ATOM      3  C   UNL     1       2.080   6.815  20.094  0.00  0.00    +0.000 A 
ATOM      4  C   UNL     1       2.491   6.571  18.784  0.00  0.00    +0.000 A 
ATOM      5  C   UNL     1       2.420   7.593  17.837  0.00  0.00    +0.000 A 
ATOM      6  C   UNL     1       1.860   8.827  18.178  0.00  0.00    +0.000 A 
ENDROOT
BRANCH   1   9
ATOM      7  O   UNL     1      -1.250  10.174  19.127  0.00  0.00    +0.000 OA
ATOM      8  C   UNL     1      -0.330  10.818  19.612  0.00  0.00    +0.000 C 
ATOM      9  N   UNL     1       0.974  10.375  19.773  0.00  0.00    +0.000 N 
ATOM     10  H   UNL     1       1.595  10.971  20.303  0.00  0.00    +0.000 HD
BRANCH   8  11
ATOM     11  C   UNL     1      -0.538  12.221  20.206  0.00  0.00    +0.000 C 
ATOM     12  C   UNL     1      -1.950  12.783  19.967  0.00  0.00    +0.000 C 
ATOM     13  C   UNL     1      -2.989  12.457  21.045  0.00  0.00    +0.000 C 
ATOM     14  C   UNL     1      -2.448  12.545  22.465  0.00  0.00    +0.000 C 
ATOM     15  C   UNL     1      -1.180  11.719  22.609  0.00  0.00    +0.000 C 
ATOM     16  C   UNL     1      -0.108  12.267  21.676  0.00  0.00    +0.000 C 
ENDBRANCH   8  11
ENDBRANCH   1   9
BRANCH   4  17
ATOM     17  O   UNL     1       2.999   5.315  18.536  0.00  0.00    +0.000 OA
BRANCH  17  18
ATOM     18  C   UNL     1       4.238   5.196  17.953  0.00  0.00    +0.000 A 
ATOM     19  C   UNL     1       5.332   5.455  18.780  0.00  0.00    +0.000 A 
ATOM     20  C   UNL     1       6.638   5.385  18.276  0.00  0.00    +0.000 A 
ATOM     21  C   UNL     1       6.829   5.027  16.928  0.00  0.00    +0.000 A 
ATOM     22  C   UNL     1       5.736   4.729  16.095  0.00  0.00    +0.000 A 
ATOM     23  C   UNL     1       4.445   4.798  16.628  0.00  0.00    +0.000 A 
BRANCH  20  24
ATOM     24  C   UNL     1       7.826   5.717  19.145  0.00  0.00    +0.000 C 
ATOM     25  F   UNL     1       7.536   5.767  20.473  0.00  0.00    +0.000 F 
ATOM     26  F   UNL     1       8.835   4.814  19.013  0.00  0.00    +0.000 F 
ATOM     27  F   UNL     1       8.364   6.929  18.834  0.00  0.00    +0.000 F 
ENDBRANCH  20  24
BRANCH  22  28
ATOM     28  C   UNL     1       5.912   4.402  14.635  0.00  0.00    +0.000 C 
ATOM     29  F   UNL     1       4.750   4.488  13.918  0.00  0.00    +0.000 F 
ATOM     30  F   UNL     1       6.794   5.239  14.019  0.00  0.00    +0.000 F 
ATOM     31  F   UNL     1       6.380   3.137  14.435  0.00  0.00    +0.000 F 
ENDBRANCH  22  28
ENDBRANCH  17  18
ENDBRANCH   4  17
TORSDOF 6
ENDMDL
MODEL 5
REMARK VINA RESULT:      -8.5      5.998     10.212
REMARK  Name = 
REMARK  6 active torsions:
REMARK  status: ('A' for Active; 'I' for Inactive)
REMARK    1  A    between atoms: C_2  and  C_25
REMARK    2  A    between atoms: N_3  and  C_4
REMARK    3  A    between atoms: C_7  and  O_8
REMARK    4  A    between atoms: O_8  and  C_9
REMARK    5  A    between atoms: C_11  and  C_12
REMARK    6  A    between atoms: C_17  and  C_18
REMARK                            x       y       z     vdW  Elec       q    Type
REMARK                         _______ _______ _______ _____ _____    ______ ____
ROOT
ATOM      1  C   UNL     1       1.440   9.138  19.518  0.00  0.00    +0.000 A 
ATOM      2  C   UNL     1       1.571   8.053  20.389  0.00  0.00    +0.000 A 
ATOM      3  C   UNL     1       2.090   6.838  19.935  0.00  0.00    +0.000 A 
ATOM      4  C   UNL     1       2.486   6.700  18.605  0.00  0.00    +0.000 A 
ATOM      5  C   UNL     1       2.397   7.792  17.742  0.00  0.00    +0.000 A 
ATOM      6  C   UNL     1       1.834   8.992  18.185  0.00  0.00    +0.000 A 
ENDROOT
BRANCH   1   9
ATOM      7  O   UNL     1      -1.288  10.212  19.343  0.00  0.00    +0.000 OA
ATOM      8  C   UNL     1      -0.357  10.837  19.831  0.00  0.00    +0.000 C 
ATOM      9  N   UNL     1       0.958  10.405  19.907  0.00  0.00    +0.000 N 
ATOM     10  H   UNL     1       1.594  10.974  20.449  0.00  0.00    +0.000 HD
BRANCH   8  11
ATOM     11  C   UNL     1      -0.557  12.193  20.526  0.00  0.00    +0.000 C 
ATOM     12  C   UNL     1      -1.909  12.851  20.204  0.00  0.00    +0.000 C 
ATOM     13  C   UNL     1      -3.066  12.494  21.143  0.00  0.00    +0.000 C 
ATOM     14  C   UNL     1      -2.667  12.431  22.612  0.00  0.00    +0.000 C 
ATOM     15  C   UNL     1      -1.460  11.526  22.801  0.00  0.00    +0.000 C 
ATOM     16  C   UNL     1      -0.275  12.091  22.028  0.00  0.00    +0.000 C 
ENDBRANCH   8  11
ENDBRANCH   1   9
BRANCH   4  17
ATOM     17  O   UNL     1       2.999   5.471  18.254  0.00  0.00    +0.000 OA
BRANCH  17  18
ATOM     18  C   UNL     1       4.305   5.384  17.835  0.00  0.00    +0.000 A 
ATOM     19  C   UNL     1       4.498   5.024  16.501  0.00  0.00    +0.000 A 
ATOM     20  C   UNL     1       5.792   4.885  15.980  0.00  0.00    +0.000 A 
ATOM     21  C   UNL     1       6.894   5.137  16.820  0.00  0.00    +0.000 A 
ATOM     22  C   UNL     1       6.711   5.535  18.156  0.00  0.00    +0.000 A 
ATOM     23  C   UNL     1       5.408   5.674  18.645  0.00  0.00    +0.000 A 
BRANCH  20  24
ATOM     24  C   UNL     1       6.014   4.442  14.555  0.00  0.00    +0.000 C 
ATOM     25  F   UNL     1       6.893   5.223  13.870  0.00  0.00    +0.000 F 
ATOM     26  F   UNL     1       6.494   3.172  14.474  0.00  0.00    +0.000 F 
ATOM     27  F   UNL     1       4.862   4.454  13.831  0.00  0.00    +0.000 F 
ENDBRANCH  20  24
BRANCH  22  28
ATOM     28  C   UNL     1       7.873   5.752  19.089  0.00  0.00    +0.000 C 
ATOM     29  F   UNL     1       8.853   4.806  18.962  0.00  0.00    +0.000 F 
ATOM     30  F   UNL     1       8.485   6.953  18.885  0.00  0.00    +0.000 F 
ATOM     31  F   UNL     1       7.503   5.730  20.401  0.00  0.00    +0.000 F 
ENDBRANCH  22  28
ENDBRANCH  17  18
ENDBRANCH   4  17
TORSDOF 6
ENDMDL
MODEL 6
REMARK VINA RESULT:      -8.5      0.242      3.337
REMARK  Name = 
REMARK  6 active torsions:
REMARK  status: ('A' for Active; 'I' for Inactive)
REMARK    1  A    between atoms: C_2  and  C_25
REMARK    2  A    between atoms: N_3  and  C_4
REMARK    3  A    between atoms: C_7  and  O_8
REMARK    4  A    between atoms: O_8  and  C_9
REMARK    5  A    between atoms: C_11  and  C_12
REMARK    6  A    between atoms: C_17  and  C_18
REMARK                            x       y       z     vdW  Elec       q    Type
REMARK                         _______ _______ _______ _____ _____    ______ ____
ROOT
ATOM      1  C   UNL     1       2.146   7.577  19.535  0.00  0.00    +0.000 A 
ATOM      2  C   UNL     1       2.215   8.273  18.326  0.00  0.00    +0.000 A 
ATOM      3  C   UNL     1       1.625   9.533  18.198  0.00  0.00    +0.000 A 
ATOM      4  C   UNL     1       0.965  10.109  19.282  0.00  0.00    +0.000 A 
ATOM      5  C   UNL     1       0.929   9.438  20.504  0.00  0.00    +0.000 A 
ATOM      6  C   UNL     1       1.477   8.158  20.618  0.00  0.00    +0.000 A 
ENDROOT
BRANCH   1   9
ATOM      7  O   UNL     1       0.931   5.106  20.557  0.00  0.00    +0.000 OA
ATOM      8  C   UNL     1       2.100   5.177  20.206  0.00  0.00    +0.000 C 
ATOM      9  N   UNL     1       2.744   6.319  19.755  0.00  0.00    +0.000 N 
ATOM     10  H   UNL     1       3.675   6.199  19.381  0.00  0.00    +0.000 HD
BRANCH   8  11
ATOM     11  C   UNL     1       3.009   3.940  20.137  0.00  0.00    +0.000 C 
ATOM     12  C   UNL     1       2.252   2.613  20.320  0.00  0.00    +0.000 C 
ATOM     13  C   UNL     1       1.716   1.969  19.037  0.00  0.00    +0.000 C 
ATOM     14  C   UNL     1       2.679   2.052  17.860  0.00  0.00    +0.000 C 
ATOM     15  C   UNL     1       3.142   3.484  17.644  0.00  0.00    +0.000 C 
ATOM     16  C   UNL     1       3.887   3.969  18.881  0.00  0.00    +0.000 C 
ENDBRANCH   8  11
ENDBRANCH   1   9
BRANCH   4  17
ATOM     17  O   UNL     1       0.428  11.359  19.065  0.00  0.00    +0.000 OA
BRANCH  17  18
ATOM     18  C   UNL     1      -0.932  11.487  18.911  0.00  0.00    +0.000 A 
ATOM     19  C   UNL     1      -1.463  10.993  17.719  0.00  0.00    +0.000 A 
ATOM     20  C   UNL     1      -2.835  11.095  17.454  0.00  0.00    +0.000 A 
ATOM     21  C   UNL     1      -3.673  11.685  18.420  0.00  0.00    +0.000 A 
ATOM     22  C   UNL     1      -3.154  12.154  19.640  0.00  0.00    +0.000 A 
ATOM     23  C   UNL     1      -1.782  12.029  19.880  0.00  0.00    +0.000 A 
BRANCH  20  24
ATOM     24  C   UNL     1      -3.413  10.615  16.145  0.00  0.00    +0.000 C 
ATOM     25  F   UNL     1      -3.305   9.272  15.959  0.00  0.00    +0.000 F 
ATOM     26  F   UNL     1      -4.736  10.908  16.022  0.00  0.00    +0.000 F 
ATOM     27  F   UNL     1      -2.801  11.191  15.074  0.00  0.00    +0.000 F 
ENDBRANCH  20  24
BRANCH  22  28
ATOM     28  C   UNL     1      -4.020  12.841  20.663  0.00  0.00    +0.000 C 
ATOM     29  F   UNL     1      -3.869  14.201  20.674  0.00  0.00    +0.000 F 
ATOM     30  F   UNL     1      -5.349  12.615  20.453  0.00  0.00    +0.000 F 
ATOM     31  F   UNL     1      -3.758  12.426  21.935  0.00  0.00    +0.000 F 
ENDBRANCH  22  28
ENDBRANCH  17  18
ENDBRANCH   4  17
TORSDOF 6
ENDMDL
MODEL 7
REMARK VINA RESULT:      -8.5      5.953      9.818
REMARK  Name = 
REMARK  6 active torsions:
REMARK  status: ('A' for Active; 'I' for Inactive)
REMARK    1  A    between atoms: C_2  and  C_25
REMARK    2  A    between atoms: N_3  and  C_4
REMARK    3  A    between atoms: C_7  and  O_8
REMARK    4  A    between atoms: O_8  and  C_9
REMARK    5  A    between atoms: C_11  and  C_12
REMARK    6  A    between atoms: C_17  and  C_18
REMARK                            x       y       z     vdW  Elec       q    Type
REMARK                         _______ _______ _______ _____ _____    ______ ____
ROOT
ATOM      1  C   UNL     1       1.591   9.126  19.312  0.00  0.00    +0.000 A 
ATOM      2  C   UNL     1       2.010   8.786  18.024  0.00  0.00    +0.000 A 
ATOM      3  C   UNL     1       2.477   7.499  17.747  0.00  0.00    +0.000 A 
ATOM      4  C   UNL     1       2.524   6.539  18.757  0.00  0.00    +0.000 A 
ATOM      5  C   UNL     1       2.067   6.860  20.035  0.00  0.00    +0.000 A 
ATOM      6  C   UNL     1       1.645   8.161  20.323  0.00  0.00    +0.000 A 
ENDROOT
BRANCH   1   9
ATOM      7  O   UNL     1      -1.192  10.063  19.273  0.00  0.00    +0.000 OA
ATOM      8  C   UNL     1      -0.262  10.757  19.659  0.00  0.00    +0.000 C 
ATOM      9  N   UNL     1       1.075  10.390  19.664  0.00  0.00    +0.000 N 
ATOM     10  H   UNL     1       1.717  11.018  20.128  0.00  0.00    +0.000 HD
BRANCH   8  11
ATOM     11  C   UNL     1      -0.481  12.141  20.291  0.00  0.00    +0.000 C 
ATOM     12  C   UNL     1      -1.824  12.784  19.905  0.00  0.00    +0.000 C 
ATOM     13  C   UNL     1      -3.006  12.464  20.827  0.00  0.00    +0.000 C 
ATOM     14  C   UNL     1      -2.647  12.463  22.307  0.00  0.00    +0.000 C 
ATOM     15  C   UNL     1      -1.446  11.568  22.567  0.00  0.00    +0.000 C 
ATOM     16  C   UNL     1      -0.240  12.101  21.804  0.00  0.00    +0.000 C 
ENDBRANCH   8  11
ENDBRANCH   1   9
BRANCH   4  17
ATOM     17  O   UNL     1       2.986   5.295  18.386  0.00  0.00    +0.000 OA
BRANCH  17  18
ATOM     18  C   UNL     1       4.237   5.183  17.829  0.00  0.00    +0.000 A 
ATOM     19  C   UNL     1       5.312   5.438  18.682  0.00  0.00    +0.000 A 
ATOM     20  C   UNL     1       6.629   5.374  18.207  0.00  0.00    +0.000 A 
ATOM     21  C   UNL     1       6.850   5.026  16.861  0.00  0.00    +0.000 A 
ATOM     22  C   UNL     1       5.777   4.733  16.001  0.00  0.00    +0.000 A 
ATOM     23  C   UNL     1       4.474   4.796  16.506  0.00  0.00    +0.000 A 
BRANCH  20  24
ATOM     24  C   UNL     1       7.797   5.701  19.105  0.00  0.00    +0.000 C 
ATOM     25  F   UNL     1       7.477   5.739  20.427  0.00  0.00    +0.000 F 
ATOM     26  F   UNL     1       8.811   4.801  18.987  0.00  0.00    +0.000 F 
ATOM     27  F   UNL     1       8.339   6.916  18.816  0.00  0.00    +0.000 F 
ENDBRANCH  20  24
BRANCH  22  28
ATOM     28  C   UNL     1       5.986   4.417  14.544  0.00  0.00    +0.000 C 
ATOM     29  F   UNL     1       6.465   3.154  14.327  0.00  0.00    +0.000 F 
ATOM     30  F   UNL     1       4.832   4.507  13.823  0.00  0.00    +0.000 F 
ATOM     31  F   UNL     1       6.875   5.261  13.948  0.00  0.00    +0.000 F 
ENDBRANCH  22  28
ENDBRANCH  17  18
ENDBRANCH   4  17
TORSDOF 6
ENDMDL
MODEL 8
REMARK VINA RESULT:      -8.4      0.388      1.240
REMARK  Name = 
REMARK  6 active torsions:
REMARK  status: ('A' for Active; 'I' for Inactive)
REMARK    1  A    between atoms: C_2  and  C_25
REMARK    2  A    between atoms: N_3  and  C_4
REMARK    3  A    between atoms: C_7  and  O_8
REMARK    4  A    between atoms: O_8  and  C_9
REMARK    5  A    between atoms: C_11  and  C_12
REMARK    6  A    between atoms: C_17  and  C_18
REMARK                            x       y       z     vdW  Elec       q    Type
REMARK                         _______ _______ _______ _____ _____    ______ ____
ROOT
ATOM      1  C   UNL     1       2.124   7.427  19.799  0.00  0.00    +0.000 A 
ATOM      2  C   UNL     1       2.229   8.083  18.570  0.00  0.00    +0.000 A 
ATOM      3  C   UNL     1       1.697   9.364  18.402  0.00  0.00    +0.000 A 
ATOM      4  C   UNL     1       1.059  10.001  19.465  0.00  0.00    +0.000 A 
ATOM      5  C   UNL     1       0.988   9.368  20.706  0.00  0.00    +0.000 A 
ATOM      6  C   UNL     1       1.478   8.068  20.860  0.00  0.00    +0.000 A 
ENDROOT
BRANCH   1   9
ATOM      7  O   UNL     1       0.733   4.947  20.533  0.00  0.00    +0.000 OA
ATOM      8  C   UNL     1       1.943   5.006  20.364  0.00  0.00    +0.000 C 
ATOM      9  N   UNL     1       2.663   6.150  20.058  0.00  0.00    +0.000 N 
ATOM     10  H   UNL     1       3.639   6.025  19.824  0.00  0.00    +0.000 HD
BRANCH   8  11
ATOM     11  C   UNL     1       2.834   3.754  20.385  0.00  0.00    +0.000 C 
ATOM     12  C   UNL     1       2.041   2.438  20.310  0.00  0.00    +0.000 C 
ATOM     13  C   UNL     1       1.770   1.902  18.900  0.00  0.00    +0.000 C 
ATOM     14  C   UNL     1       2.953   2.046  17.951  0.00  0.00    +0.000 C 
ATOM     15  C   UNL     1       3.465   3.477  17.943  0.00  0.00    +0.000 C 
ATOM     16  C   UNL     1       3.948   3.852  19.338  0.00  0.00    +0.000 C 
ENDBRANCH   8  11
ENDBRANCH   1   9
BRANCH   4  17
ATOM     17  O   UNL     1       0.580  11.267  19.209  0.00  0.00    +0.000 OA
BRANCH  17  18
ATOM     18  C   UNL     1      -0.758  11.436  18.945  0.00  0.00    +0.000 A 
ATOM     19  C   UNL     1      -1.497  12.097  19.927  0.00  0.00    +0.000 A 
ATOM     20  C   UNL     1      -2.875  12.300  19.766  0.00  0.00    +0.000 A 
ATOM     21  C   UNL     1      -3.496  11.846  18.586  0.00  0.00    +0.000 A 
ATOM     22  C   UNL     1      -2.754  11.211  17.575  0.00  0.00    +0.000 A 
ATOM     23  C   UNL     1      -1.380  11.031  17.760  0.00  0.00    +0.000 A 
BRANCH  20  24
ATOM     24  C   UNL     1      -3.696  12.964  20.844  0.00  0.00    +0.000 C 
ATOM     25  F   UNL     1      -4.964  13.269  20.457  0.00  0.00    +0.000 F 
ATOM     26  F   UNL     1      -3.815  12.190  21.957  0.00  0.00    +0.000 F 
ATOM     27  F   UNL     1      -3.140  14.135  21.260  0.00  0.00    +0.000 F 
ENDBRANCH  20  24
BRANCH  22  28
ATOM     28  C   UNL     1      -3.407  10.664  16.332  0.00  0.00    +0.000 C 
ATOM     29  F   UNL     1      -4.740  10.957  16.248  0.00  0.00    +0.000 F 
ATOM     30  F   UNL     1      -2.844  11.157  15.192  0.00  0.00    +0.000 F 
ATOM     31  F   UNL     1      -3.317   9.307  16.247  0.00  0.00    +0.000 F 
ENDBRANCH  22  28
ENDBRANCH  17  18
ENDBRANCH   4  17
TORSDOF 6
ENDMDL
MODEL 9
REMARK VINA RESULT:      -8.4      0.309      3.192
REMARK  Name = 
REMARK  6 active torsions:
REMARK  status: ('A' for Active; 'I' for Inactive)
REMARK    1  A    between atoms: C_2  and  C_25
REMARK    2  A    between atoms: N_3  and  C_4
REMARK    3  A    between atoms: C_7  and  O_8
REMARK    4  A    between atoms: O_8  and  C_9
REMARK    5  A    between atoms: C_11  and  C_12
REMARK    6  A    between atoms: C_17  and  C_18
REMARK                            x       y       z     vdW  Elec       q    Type
REMARK                         _______ _______ _______ _____ _____    ______ ____
ROOT
ATOM      1  C   UNL     1       2.065   7.679  19.861  0.00  0.00    +0.000 A 
ATOM      2  C   UNL     1       1.419   8.377  20.885  0.00  0.00    +0.000 A 
ATOM      3  C   UNL     1       0.900   9.653  20.654  0.00  0.00    +0.000 A 
ATOM      4  C   UNL     1       1.020  10.240  19.395  0.00  0.00    +0.000 A 
ATOM      5  C   UNL     1       1.626   9.531  18.358  0.00  0.00    +0.000 A 
ATOM      6  C   UNL     1       2.187   8.274  18.602  0.00  0.00    +0.000 A 
ENDROOT
BRANCH   1   9
ATOM      7  O   UNL     1       0.654   5.188  20.519  0.00  0.00    +0.000 OA
ATOM      8  C   UNL     1       1.853   5.231  20.280  0.00  0.00    +0.000 C 
ATOM      9  N   UNL     1       2.584   6.375  20.004  0.00  0.00    +0.000 N 
ATOM     10  H   UNL     1       3.540   6.243  19.702  0.00  0.00    +0.000 HD
BRANCH   8  11
ATOM     11  C   UNL     1       2.709   3.960  20.166  0.00  0.00    +0.000 C 
ATOM     12  C   UNL     1       1.883   2.662  20.175  0.00  0.00    +0.000 C 
ATOM     13  C   UNL     1       1.417   2.158  18.805  0.00  0.00    +0.000 C 
ATOM     14  C   UNL     1       2.468   2.293  17.712  0.00  0.00    +0.000 C 
ATOM     15  C   UNL     1       3.007   3.713  17.658  0.00  0.00    +0.000 C 
ATOM     16  C   UNL     1       3.679   4.053  18.982  0.00  0.00    +0.000 C 
ENDBRANCH   8  11
ENDBRANCH   1   9
BRANCH   4  17
ATOM     17  O   UNL     1       0.465  11.494  19.259  0.00  0.00    +0.000 OA
BRANCH  17  18
ATOM     18  C   UNL     1      -0.893  11.610  19.083  0.00  0.00    +0.000 A 
ATOM     19  C   UNL     1      -1.407  11.061  17.908  0.00  0.00    +0.000 A 
ATOM     20  C   UNL     1      -2.777  11.147  17.621  0.00  0.00    +0.000 A 
ATOM     21  C   UNL     1      -3.628  11.777  18.549  0.00  0.00    +0.000 A 
ATOM     22  C   UNL     1      -3.126  12.303  19.753  0.00  0.00    +0.000 A 
ATOM     23  C   UNL     1      -1.757  12.193  20.016  0.00  0.00    +0.000 A 
BRANCH  20  24
ATOM     24  C   UNL     1      -3.337  10.605  16.329  0.00  0.00    +0.000 C 
ATOM     25  F   UNL     1      -2.874  11.245  15.221  0.00  0.00    +0.000 F 
ATOM     26  F   UNL     1      -3.053   9.287  16.151  0.00  0.00    +0.000 F 
ATOM     27  F   UNL     1      -4.694  10.706  16.278  0.00  0.00    +0.000 F 
ENDBRANCH  20  24
BRANCH  22  28
ATOM     28  C   UNL     1      -4.007  13.033  20.732  0.00  0.00    +0.000 C 
ATOM     29  F   UNL     1      -4.736  14.039  20.159  0.00  0.00    +0.000 F 
ATOM     30  F   UNL     1      -4.914  12.208  21.329  0.00  0.00    +0.000 F 
ATOM     31  F   UNL     1      -3.298  13.616  21.740  0.00  0.00    +0.000 F 
ENDBRANCH  22  28
ENDBRANCH  17  18
ENDBRANCH   4  17
TORSDOF 6
ENDMDL
