MODEL 1
REMARK VINA RESULT:      -7.5      0.000      0.000
REMARK  Name = 
REMARK  6 active torsions:
REMARK  status: ('A' for Active; 'I' for Inactive)
REMARK    1  A    between atoms: C_1  and  C_2
REMARK    2  A    between atoms: C_7  and  C_8
REMARK    3  A    between atoms: C_8  and  N_9
REMARK    4  A    between atoms: C_10  and  C_12
REMARK    5  A    between atoms: C_12  and  S_13
REMARK    6  A    between atoms: S_13  and  C_14
REMARK                            x       y       z     vdW  Elec       q    Type
REMARK                         _______ _______ _______ _____ _____    ______ ____
ROOT
ATOM      1  N   UNL     1       5.398   3.638  18.733  0.00  0.00    +0.000 N 
ATOM      2  C   UNL     1       5.471   5.001  18.948  0.00  0.00    +0.000 C 
ATOM      3  O   UNL     1       4.509   5.744  18.783  0.00  0.00    +0.000 OA
ATOM      4  H   UNL     1       6.244   3.087  18.700  0.00  0.00    +0.000 HD
ENDROOT
BRANCH   1   5
ATOM      5  C   UNL     1       4.174   3.000  18.272  0.00  0.00    +0.000 C 
BRANCH   5  12
ATOM      6  C   UNL     1       1.396   4.221  17.816  0.00  0.00    +0.000 C 
ATOM      7  C   UNL     1       1.813   3.610  19.126  0.00  0.00    +0.000 A 
ATOM      8  C   UNL     1       0.895   3.642  20.192  0.00  0.00    +0.000 A 
ATOM      9  C   UNL     1       1.221   3.124  21.444  0.00  0.00    +0.000 A 
ATOM     10  C   UNL     1       2.475   2.562  21.651  0.00  0.00    +0.000 A 
ATOM     11  C   UNL     1       3.398   2.521  20.605  0.00  0.00    +0.000 A 
ATOM     12  C   UNL     1       3.087   3.035  19.331  0.00  0.00    +0.000 A 
ENDBRANCH   5  12
ENDBRANCH   1   5
BRANCH   2  13
ATOM     13  C   UNL     1       6.836   5.513  19.413  0.00  0.00    +0.000 C 
BRANCH  13  14
ATOM     14  S   UNL     1       7.504   6.649  18.163  0.00  0.00    +0.000 S 
BRANCH  14  15
ATOM     15  C   UNL     1       6.903   5.967  16.670  0.00  0.00    +0.000 A 
ATOM     16  N   UNL     1       6.025   6.561  15.890  0.00  0.00    +0.000 NA
ATOM     17  N   UNL     1       5.703   5.780  14.788  0.00  0.00    +0.000 NA
ATOM     18  C   UNL     1       6.346   4.631  14.775  0.00  0.00    +0.000 A 
ATOM     19  N   UNL     1       6.215   3.678  13.833  0.00  0.00    +0.000 N 
ATOM     20  S   UNL     1       7.414   4.430  16.107  0.00  0.00    +0.000 S 
ATOM     21  H   UNL     1       5.765   3.942  12.964  0.00  0.00    +0.000 HD
ATOM     22  H   UNL     1       6.938   2.974  13.742  0.00  0.00    +0.000 HD
ENDBRANCH  14  15
ENDBRANCH  13  14
ENDBRANCH   2  13
TORSDOF 5
ENDMDL
MODEL 2
REMARK VINA RESULT:      -7.3      1.391      2.034
REMARK  Name = 
REMARK  6 active torsions:
REMARK  status: ('A' for Active; 'I' for Inactive)
REMARK    1  A    between atoms: C_1  and  C_2
REMARK    2  A    between atoms: C_7  and  C_8
REMARK    3  A    between atoms: C_8  and  N_9
REMARK    4  A    between atoms: C_10  and  C_12
REMARK    5  A    between atoms: C_12  and  S_13
REMARK    6  A    between atoms: S_13  and  C_14
REMARK                            x       y       z     vdW  Elec       q    Type
REMARK                         _______ _______ _______ _____ _____    ______ ____
ROOT
ATOM      1  N   UNL     1       5.445   3.785  19.080  0.00  0.00    +0.000 N 
ATOM      2  C   UNL     1       5.219   5.148  19.139  0.00  0.00    +0.000 C 
ATOM      3  O   UNL     1       4.409   5.645  19.914  0.00  0.00    +0.000 OA
ATOM      4  H   UNL     1       5.977   3.396  18.313  0.00  0.00    +0.000 HD
ENDROOT
BRANCH   1   5
ATOM      5  C   UNL     1       4.716   2.850  19.923  0.00  0.00    +0.000 C 
BRANCH   5  12
ATOM      6  C   UNL     1       2.364   3.466  21.794  0.00  0.00    +0.000 C 
ATOM      7  C   UNL     1       2.177   3.006  20.374  0.00  0.00    +0.000 A 
ATOM      8  C   UNL     1       0.863   2.815  19.908  0.00  0.00    +0.000 A 
ATOM      9  C   UNL     1       0.611   2.359  18.616  0.00  0.00    +0.000 A 
ATOM     10  C   UNL     1       1.675   2.089  17.763  0.00  0.00    +0.000 A 
ATOM     11  C   UNL     1       2.985   2.273  18.207  0.00  0.00    +0.000 A 
ATOM     12  C   UNL     1       3.261   2.736  19.509  0.00  0.00    +0.000 A 
ENDBRANCH   5  12
ENDBRANCH   1   5
BRANCH   2  13
ATOM     13  C   UNL     1       6.057   5.988  18.172  0.00  0.00    +0.000 C 
BRANCH  13  14
ATOM     14  S   UNL     1       7.472   5.004  17.600  0.00  0.00    +0.000 S 
BRANCH  14  15
ATOM     15  C   UNL     1       7.102   4.752  15.910  0.00  0.00    +0.000 A 
ATOM     16  N   UNL     1       7.689   5.396  14.924  0.00  0.00    +0.000 NA
ATOM     17  N   UNL     1       7.179   5.022  13.688  0.00  0.00    +0.000 NA
ATOM     18  C   UNL     1       6.230   4.114  13.785  0.00  0.00    +0.000 A 
ATOM     19  N   UNL     1       5.554   3.583  12.748  0.00  0.00    +0.000 N 
ATOM     20  S   UNL     1       5.905   3.633  15.402  0.00  0.00    +0.000 S 
ATOM     21  H   UNL     1       5.942   3.720  11.822  0.00  0.00    +0.000 HD
ATOM     22  H   UNL     1       5.061   2.708  12.879  0.00  0.00    +0.000 HD
ENDBRANCH  14  15
ENDBRANCH  13  14
ENDBRANCH   2  13
TORSDOF 5
ENDMDL
MODEL 3
REMARK VINA RESULT:      -7.3      0.984      1.025
REMARK  Name = 
REMARK  6 active torsions:
REMARK  status: ('A' for Active; 'I' for Inactive)
REMARK    1  A    between atoms: C_1  and  C_2
REMARK    2  A    between atoms: C_7  and  C_8
REMARK    3  A    between atoms: C_8  and  N_9
REMARK    4  A    between atoms: C_10  and  C_12
REMARK    5  A    between atoms: C_12  and  S_13
REMARK    6  A    between atoms: S_13  and  C_14
REMARK                            x       y       z     vdW  Elec       q    Type
REMARK                         _______ _______ _______ _____ _____    ______ ____
ROOT
ATOM      1  N   UNL     1       5.393   3.679  18.658  0.00  0.00    +0.000 N 
ATOM      2  C   UNL     1       5.377   5.014  19.013  0.00  0.00    +0.000 C 
ATOM      3  O   UNL     1       4.347   5.681  19.012  0.00  0.00    +0.000 OA
ATOM      4  H   UNL     1       6.274   3.212  18.493  0.00  0.00    +0.000 HD
ENDROOT
BRANCH   1   5
ATOM      5  C   UNL     1       4.186   2.983  18.237  0.00  0.00    +0.000 C 
BRANCH   5  12
ATOM      6  C   UNL     1       1.375   4.140  17.819  0.00  0.00    +0.000 C 
ATOM      7  C   UNL     1       1.828   3.551  19.127  0.00  0.00    +0.000 A 
ATOM      8  C   UNL     1       0.929   3.574  20.209  0.00  0.00    +0.000 A 
ATOM      9  C   UNL     1       1.288   3.077  21.460  0.00  0.00    +0.000 A 
ATOM     10  C   UNL     1       2.557   2.544  21.650  0.00  0.00    +0.000 A 
ATOM     11  C   UNL     1       3.462   2.512  20.588  0.00  0.00    +0.000 A 
ATOM     12  C   UNL     1       3.118   3.006  19.314  0.00  0.00    +0.000 A 
ENDBRANCH   5  12
ENDBRANCH   1   5
BRANCH   2  13
ATOM     13  C   UNL     1       6.734   5.597  19.412  0.00  0.00    +0.000 C 
BRANCH  13  14
ATOM     14  S   UNL     1       7.413   6.538  18.015  0.00  0.00    +0.000 S 
BRANCH  14  15
ATOM     15  C   UNL     1       6.962   5.557  16.640  0.00  0.00    +0.000 A 
ATOM     16  N   UNL     1       7.609   4.475  16.264  0.00  0.00    +0.000 NA
ATOM     17  N   UNL     1       7.052   3.912  15.123  0.00  0.00    +0.000 NA
ATOM     18  C   UNL     1       6.010   4.585  14.682  0.00  0.00    +0.000 A 
ATOM     19  N   UNL     1       5.288   4.271  13.589  0.00  0.00    +0.000 N 
ATOM     20  S   UNL     1       5.619   5.952  15.648  0.00  0.00    +0.000 S 
ATOM     21  H   UNL     1       5.409   3.343  13.203  0.00  0.00    +0.000 HD
ATOM     22  H   UNL     1       4.357   4.658  13.488  0.00  0.00    +0.000 HD
ENDBRANCH  14  15
ENDBRANCH  13  14
ENDBRANCH   2  13
TORSDOF 5
ENDMDL
MODEL 4
REMARK VINA RESULT:      -7.2      1.663      2.068
REMARK  Name = 
REMARK  6 active torsions:
REMARK  status: ('A' for Active; 'I' for Inactive)
REMARK    1  A    between atoms: C_1  and  C_2
REMARK    2  A    between atoms: C_7  and  C_8
REMARK    3  A    between atoms: C_8  and  N_9
REMARK    4  A    between atoms: C_10  and  C_12
REMARK    5  A    between atoms: C_12  and  S_13
REMARK    6  A    between atoms: S_13  and  C_14
REMARK                            x       y       z     vdW  Elec       q    Type
REMARK                         _______ _______ _______ _____ _____    ______ ____
ROOT
ATOM      1  N   UNL     1       5.323   4.727  18.897  0.00  0.00    +0.000 N 
ATOM      2  C   UNL     1       6.498   5.399  19.177  0.00  0.00    +0.000 C 
ATOM      3  O   UNL     1       7.192   5.128  20.152  0.00  0.00    +0.000 OA
ATOM      4  H   UNL     1       4.688   5.092  18.200  0.00  0.00    +0.000 HD
ENDROOT
BRANCH   1   5
ATOM      5  C   UNL     1       4.823   3.666  19.758  0.00  0.00    +0.000 C 
BRANCH   5  12
ATOM      6  C   UNL     1       2.392   4.926  21.142  0.00  0.00    +0.000 C 
ATOM      7  C   UNL     1       2.267   3.872  20.075  0.00  0.00    +0.000 A 
ATOM      8  C   UNL     1       0.977   3.425  19.735  0.00  0.00    +0.000 A 
ATOM      9  C   UNL     1       0.784   2.429  18.780  0.00  0.00    +0.000 A 
ATOM     10  C   UNL     1       1.884   1.863  18.145  0.00  0.00    +0.000 A 
ATOM     11  C   UNL     1       3.170   2.295  18.469  0.00  0.00    +0.000 A 
ATOM     12  C   UNL     1       3.387   3.303  19.429  0.00  0.00    +0.000 A 
ENDBRANCH   5  12
ENDBRANCH   1   5
BRANCH   2  13
ATOM     13  C   UNL     1       6.871   6.499  18.181  0.00  0.00    +0.000 C 
BRANCH  13  14
ATOM     14  S   UNL     1       5.555   6.647  16.938  0.00  0.00    +0.000 S 
BRANCH  14  15
ATOM     15  C   UNL     1       6.147   5.641  15.636  0.00  0.00    +0.000 A 
ATOM     16  N   UNL     1       7.368   5.710  15.149  0.00  0.00    +0.000 NA
ATOM     17  N   UNL     1       7.555   4.819  14.101  0.00  0.00    +0.000 NA
ATOM     18  C   UNL     1       6.476   4.113  13.836  0.00  0.00    +0.000 A 
ATOM     19  N   UNL     1       6.372   3.187  12.863  0.00  0.00    +0.000 N 
ATOM     20  S   UNL     1       5.150   4.475  14.868  0.00  0.00    +0.000 S 
ATOM     21  H   UNL     1       7.233   2.849  12.450  0.00  0.00    +0.000 HD
ATOM     22  H   UNL     1       5.625   2.505  12.912  0.00  0.00    +0.000 HD
ENDBRANCH  14  15
ENDBRANCH  13  14
ENDBRANCH   2  13
TORSDOF 5
ENDMDL
MODEL 5
REMARK VINA RESULT:      -7.2      3.580      4.375
REMARK  Name = 
REMARK  6 active torsions:
REMARK  status: ('A' for Active; 'I' for Inactive)
REMARK    1  A    between atoms: C_1  and  C_2
REMARK    2  A    between atoms: C_7  and  C_8
REMARK    3  A    between atoms: C_8  and  N_9
REMARK    4  A    between atoms: C_10  and  C_12
REMARK    5  A    between atoms: C_12  and  S_13
REMARK    6  A    between atoms: S_13  and  C_14
REMARK                            x       y       z     vdW  Elec       q    Type
REMARK                         _______ _______ _______ _____ _____    ______ ____
ROOT
ATOM      1  N   UNL     1       3.214   5.820  19.710  0.00  0.00    +0.000 N 
ATOM      2  C   UNL     1       3.433   4.465  19.866  0.00  0.00    +0.000 C 
ATOM      3  O   UNL     1       2.720   3.762  20.575  0.00  0.00    +0.000 OA
ATOM      4  H   UNL     1       3.919   6.397  19.272  0.00  0.00    +0.000 HD
ENDROOT
BRANCH   1   5
ATOM      5  C   UNL     1       2.131   6.506  20.399  0.00  0.00    +0.000 C 
BRANCH   5  12
ATOM      6  C   UNL     1       0.636   8.752  21.858  0.00  0.00    +0.000 C 
ATOM      7  C   UNL     1       1.137   8.890  20.447  0.00  0.00    +0.000 A 
ATOM      8  C   UNL     1       0.867  10.090  19.763  0.00  0.00    +0.000 A 
ATOM      9  C   UNL     1       1.271  10.278  18.443  0.00  0.00    +0.000 A 
ATOM     10  C   UNL     1       1.956   9.266  17.782  0.00  0.00    +0.000 A 
ATOM     11  C   UNL     1       2.234   8.069  18.444  0.00  0.00    +0.000 A 
ATOM     12  C   UNL     1       1.838   7.860  19.780  0.00  0.00    +0.000 A 
ENDBRANCH   5  12
ENDBRANCH   1   5
BRANCH   2  13
ATOM     13  C   UNL     1       4.625   3.905  19.086  0.00  0.00    +0.000 C 
BRANCH  13  14
ATOM     14  S   UNL     1       5.876   5.208  18.894  0.00  0.00    +0.000 S 
BRANCH  14  15
ATOM     15  C   UNL     1       6.350   5.037  17.220  0.00  0.00    +0.000 A 
ATOM     16  N   UNL     1       7.347   5.692  16.666  0.00  0.00    +0.000 NA
ATOM     17  N   UNL     1       7.479   5.387  15.318  0.00  0.00    +0.000 NA
ATOM     18  C   UNL     1       6.581   4.518  14.905  0.00  0.00    +0.000 A 
ATOM     19  N   UNL     1       6.470   4.056  13.644  0.00  0.00    +0.000 N 
ATOM     20  S   UNL     1       5.517   3.989  16.146  0.00  0.00    +0.000 S 
ATOM     21  H   UNL     1       7.253   4.211  13.021  0.00  0.00    +0.000 HD
ATOM     22  H   UNL     1       5.957   3.198  13.479  0.00  0.00    +0.000 HD
ENDBRANCH  14  15
ENDBRANCH  13  14
ENDBRANCH   2  13
TORSDOF 5
ENDMDL
MODEL 6
REMARK VINA RESULT:      -7.1      1.783      2.103
REMARK  Name = 
REMARK  6 active torsions:
REMARK  status: ('A' for Active; 'I' for Inactive)
REMARK    1  A    between atoms: C_1  and  C_2
REMARK    2  A    between atoms: C_7  and  C_8
REMARK    3  A    between atoms: C_8  and  N_9
REMARK    4  A    between atoms: C_10  and  C_12
REMARK    5  A    between atoms: C_12  and  S_13
REMARK    6  A    between atoms: S_13  and  C_14
REMARK                            x       y       z     vdW  Elec       q    Type
REMARK                         _______ _______ _______ _____ _____    ______ ____
ROOT
ATOM      1  N   UNL     1       4.012   5.450  17.570  0.00  0.00    +0.000 N 
ATOM      2  C   UNL     1       4.438   6.764  17.527  0.00  0.00    +0.000 C 
ATOM      3  O   UNL     1       3.659   7.709  17.600  0.00  0.00    +0.000 OA
ATOM      4  H   UNL     1       4.649   4.705  17.325  0.00  0.00    +0.000 HD
ENDROOT
BRANCH   1   5
ATOM      5  C   UNL     1       2.603   5.105  17.684  0.00  0.00    +0.000 C 
BRANCH   5  12
ATOM      6  C   UNL     1       2.003   6.348  20.425  0.00  0.00    +0.000 C 
ATOM      7  C   UNL     1       2.059   4.862  20.198  0.00  0.00    +0.000 A 
ATOM      8  C   UNL     1       1.866   4.016  21.306  0.00  0.00    +0.000 A 
ATOM      9  C   UNL     1       1.936   2.630  21.181  0.00  0.00    +0.000 A 
ATOM     10  C   UNL     1       2.198   2.065  19.939  0.00  0.00    +0.000 A 
ATOM     11  C   UNL     1       2.391   2.887  18.829  0.00  0.00    +0.000 A 
ATOM     12  C   UNL     1       2.322   4.290  18.933  0.00  0.00    +0.000 A 
ENDBRANCH   5  12
ENDBRANCH   1   5
BRANCH   2  13
ATOM     13  C   UNL     1       5.950   6.952  17.386  0.00  0.00    +0.000 C 
BRANCH  13  14
ATOM     14  S   UNL     1       6.755   5.324  17.379  0.00  0.00    +0.000 S 
BRANCH  14  15
ATOM     15  C   UNL     1       6.857   4.957  15.672  0.00  0.00    +0.000 A 
ATOM     16  N   UNL     1       7.662   5.573  14.834  0.00  0.00    +0.000 NA
ATOM     17  N   UNL     1       7.512   5.103  13.536  0.00  0.00    +0.000 NA
ATOM     18  C   UNL     1       6.604   4.154  13.442  0.00  0.00    +0.000 A 
ATOM     19  N   UNL     1       6.247   3.531  12.302  0.00  0.00    +0.000 N 
ATOM     20  S   UNL     1       5.878   3.750  14.946  0.00  0.00    +0.000 S 
ATOM     21  H   UNL     1       6.862   3.635  11.504  0.00  0.00    +0.000 HD
ATOM     22  H   UNL     1       5.768   2.640  12.359  0.00  0.00    +0.000 HD
ENDBRANCH  14  15
ENDBRANCH  13  14
ENDBRANCH   2  13
TORSDOF 5
ENDMDL
MODEL 7
REMARK VINA RESULT:      -7.0      3.676      5.067
REMARK  Name = 
REMARK  6 active torsions:
REMARK  status: ('A' for Active; 'I' for Inactive)
REMARK    1  A    between atoms: C_1  and  C_2
REMARK    2  A    between atoms: C_7  and  C_8
REMARK    3  A    between atoms: C_8  and  N_9
REMARK    4  A    between atoms: C_10  and  C_12
REMARK    5  A    between atoms: C_12  and  S_13
REMARK    6  A    between atoms: S_13  and  C_14
REMARK                            x       y       z     vdW  Elec       q    Type
REMARK                         _______ _______ _______ _____ _____    ______ ____
ROOT
ATOM      1  N   UNL     1       2.808   5.458  20.053  0.00  0.00    +0.000 N 
ATOM      2  C   UNL     1       2.366   4.167  19.839  0.00  0.00    +0.000 C 
ATOM      3  O   UNL     1       1.248   3.792  20.178  0.00  0.00    +0.000 OA
ATOM      4  H   UNL     1       3.786   5.682  19.931  0.00  0.00    +0.000 HD
ENDROOT
BRANCH   1   5
ATOM      5  C   UNL     1       1.979   6.452  20.719  0.00  0.00    +0.000 C 
BRANCH   5  12
ATOM      6  C   UNL     1       0.369   8.904  21.617  0.00  0.00    +0.000 C 
ATOM      7  C   UNL     1       1.070   8.831  20.288  0.00  0.00    +0.000 A 
ATOM      8  C   UNL     1       0.940   9.924  19.411  0.00  0.00    +0.000 A 
ATOM      9  C   UNL     1       1.533   9.916  18.150  0.00  0.00    +0.000 A 
ATOM     10  C   UNL     1       2.271   8.810  17.745  0.00  0.00    +0.000 A 
ATOM     11  C   UNL     1       2.411   7.718  18.601  0.00  0.00    +0.000 A 
ATOM     12  C   UNL     1       1.822   7.707  19.881  0.00  0.00    +0.000 A 
ENDBRANCH   5  12
ENDBRANCH   1   5
BRANCH   2  13
ATOM     13  C   UNL     1       3.368   3.243  19.143  0.00  0.00    +0.000 C 
BRANCH  13  14
ATOM     14  S   UNL     1       4.041   4.087  17.682  0.00  0.00    +0.000 S 
BRANCH  14  15
ATOM     15  C   UNL     1       5.479   4.854  18.315  0.00  0.00    +0.000 A 
ATOM     16  N   UNL     1       6.031   4.547  19.469  0.00  0.00    +0.000 NA
ATOM     17  N   UNL     1       7.143   5.335  19.735  0.00  0.00    +0.000 NA
ATOM     18  C   UNL     1       7.389   6.204  18.778  0.00  0.00    +0.000 A 
ATOM     19  N   UNL     1       8.395   7.100  18.781  0.00  0.00    +0.000 N 
ATOM     20  S   UNL     1       6.285   6.107  17.464  0.00  0.00    +0.000 S 
ATOM     21  H   UNL     1       9.142   6.956  19.450  0.00  0.00    +0.000 HD
ATOM     22  H   UNL     1       8.682   7.520  17.905  0.00  0.00    +0.000 HD
ENDBRANCH  14  15
ENDBRANCH  13  14
ENDBRANCH   2  13
TORSDOF 5
ENDMDL
MODEL 8
REMARK VINA RESULT:      -7.0      1.792      2.286
REMARK  Name = 
REMARK  6 active torsions:
REMARK  status: ('A' for Active; 'I' for Inactive)
REMARK    1  A    between atoms: C_1  and  C_2
REMARK    2  A    between atoms: C_7  and  C_8
REMARK    3  A    between atoms: C_8  and  N_9
REMARK    4  A    between atoms: C_10  and  C_12
REMARK    5  A    between atoms: C_12  and  S_13
REMARK    6  A    between atoms: S_13  and  C_14
REMARK                            x       y       z     vdW  Elec       q    Type
REMARK                         _______ _______ _______ _____ _____    ______ ____
ROOT
ATOM      1  N   UNL     1       4.750   5.762  18.752  0.00  0.00    +0.000 N 
ATOM      2  C   UNL     1       5.404   6.584  17.852  0.00  0.00    +0.000 C 
ATOM      3  O   UNL     1       4.802   7.351  17.108  0.00  0.00    +0.000 OA
ATOM      4  H   UNL     1       5.256   5.019  19.214  0.00  0.00    +0.000 HD
ENDROOT
BRANCH   1   5
ATOM      5  C   UNL     1       3.299   5.741  18.856  0.00  0.00    +0.000 C 
BRANCH   5  12
ATOM      6  C   UNL     1       1.021   4.654  20.600  0.00  0.00    +0.000 C 
ATOM      7  C   UNL     1       1.706   3.828  19.545  0.00  0.00    +0.000 A 
ATOM      8  C   UNL     1       1.304   2.488  19.390  0.00  0.00    +0.000 A 
ATOM      9  C   UNL     1       1.914   1.652  18.457  0.00  0.00    +0.000 A 
ATOM     10  C   UNL     1       2.940   2.145  17.660  0.00  0.00    +0.000 A 
ATOM     11  C   UNL     1       3.352   3.471  17.800  0.00  0.00    +0.000 A 
ATOM     12  C   UNL     1       2.746   4.334  18.734  0.00  0.00    +0.000 A 
ENDBRANCH   5  12
ENDBRANCH   1   5
BRANCH   2  13
ATOM     13  C   UNL     1       6.930   6.469  17.858  0.00  0.00    +0.000 C 
BRANCH  13  14
ATOM     14  S   UNL     1       7.399   4.747  17.519  0.00  0.00    +0.000 S 
BRANCH  14  15
ATOM     15  C   UNL     1       7.095   4.601  15.804  0.00  0.00    +0.000 A 
ATOM     16  N   UNL     1       7.697   5.324  14.885  0.00  0.00    +0.000 NA
ATOM     17  N   UNL     1       7.240   5.021  13.609  0.00  0.00    +0.000 NA
ATOM     18  C   UNL     1       6.315   4.084  13.611  0.00  0.00    +0.000 A 
ATOM     19  N   UNL     1       5.691   3.606  12.517  0.00  0.00    +0.000 N 
ATOM     20  S   UNL     1       5.949   3.487  15.180  0.00  0.00    +0.000 S 
ATOM     21  H   UNL     1       6.106   3.815  11.617  0.00  0.00    +0.000 HD
ATOM     22  H   UNL     1       5.219   2.711  12.572  0.00  0.00    +0.000 HD
ENDBRANCH  14  15
ENDBRANCH  13  14
ENDBRANCH   2  13
TORSDOF 5
ENDMDL
MODEL 9
REMARK VINA RESULT:      -7.0      3.817      5.025
REMARK  Name = 
REMARK  6 active torsions:
REMARK  status: ('A' for Active; 'I' for Inactive)
REMARK    1  A    between atoms: C_1  and  C_2
REMARK    2  A    between atoms: C_7  and  C_8
REMARK    3  A    between atoms: C_8  and  N_9
REMARK    4  A    between atoms: C_10  and  C_12
REMARK    5  A    between atoms: C_12  and  S_13
REMARK    6  A    between atoms: S_13  and  C_14
REMARK                            x       y       z     vdW  Elec       q    Type
REMARK                         _______ _______ _______ _____ _____    ______ ____
ROOT
ATOM      1  N   UNL     1       2.031   5.363  19.912  0.00  0.00    +0.000 N 
ATOM      2  C   UNL     1       2.141   4.083  20.423  0.00  0.00    +0.000 C 
ATOM      3  O   UNL     1       2.067   3.849  21.625  0.00  0.00    +0.000 OA
ATOM      4  H   UNL     1       2.278   5.543  18.948  0.00  0.00    +0.000 HD
ENDROOT
BRANCH   1   5
ATOM      5  C   UNL     1       1.842   6.519  20.774  0.00  0.00    +0.000 C 
BRANCH   5  12
ATOM      6  C   UNL     1       0.343   9.001  21.776  0.00  0.00    +0.000 C 
ATOM      7  C   UNL     1       1.013   8.942  20.431  0.00  0.00    +0.000 A 
ATOM      8  C   UNL     1       0.906  10.063  19.588  0.00  0.00    +0.000 A 
ATOM      9  C   UNL     1       1.472  10.070  18.315  0.00  0.00    +0.000 A 
ATOM     10  C   UNL     1       2.159   8.950  17.862  0.00  0.00    +0.000 A 
ATOM     11  C   UNL     1       2.276   7.829  18.684  0.00  0.00    +0.000 A 
ATOM     12  C   UNL     1       1.714   7.803  19.976  0.00  0.00    +0.000 A 
ENDBRANCH   5  12
ENDBRANCH   1   5
BRANCH   2  13
ATOM     13  C   UNL     1       2.356   2.984  19.381  0.00  0.00    +0.000 C 
BRANCH  13  14
ATOM     14  S   UNL     1       2.635   3.747  17.757  0.00  0.00    +0.000 S 
BRANCH  14  15
ATOM     15  C   UNL     1       4.360   4.027  17.759  0.00  0.00    +0.000 A 
ATOM     16  N   UNL     1       5.074   4.221  18.847  0.00  0.00    +0.000 NA
ATOM     17  N   UNL     1       6.411   4.449  18.553  0.00  0.00    +0.000 NA
ATOM     18  C   UNL     1       6.658   4.421  17.260  0.00  0.00    +0.000 A 
ATOM     19  N   UNL     1       7.864   4.624  16.695  0.00  0.00    +0.000 N 
ATOM     20  S   UNL     1       5.268   4.089  16.305  0.00  0.00    +0.000 S 
ATOM     21  H   UNL     1       8.674   4.577  17.300  0.00  0.00    +0.000 HD
ATOM     22  H   UNL     1       8.021   4.306  15.746  0.00  0.00    +0.000 HD
ENDBRANCH  14  15
ENDBRANCH  13  14
ENDBRANCH   2  13
TORSDOF 5
ENDMDL
