MODEL 1
REMARK VINA RESULT:      -8.1      0.000      0.000
REMARK  Name = 
REMARK  6 active torsions:
REMARK  status: ('A' for Active; 'I' for Inactive)
REMARK    1  A    between atoms: C_2  and  C_3
REMARK    2  A    between atoms: C_3  and  C_4
REMARK    3  A    between atoms: C_9  and  C_11
REMARK    4  A    between atoms: C_15  and  S_16
REMARK    5  A    between atoms: S_16  and  C_17
REMARK    6  A    between atoms: N_23  and  O_24
REMARK                            x       y       z     vdW  Elec       q    Type
REMARK                         _______ _______ _______ _____ _____    ______ ____
ROOT
ATOM      1  C   UNL     1       6.570   5.962  17.068  0.00  0.00    +0.000 A 
ATOM      2  C   UNL     1       6.726   5.100  18.138  0.00  0.00    +0.000 A 
ATOM      3  S   UNL     1       7.817   5.778  19.285  0.00  0.00    +0.000 S 
ATOM      4  C   UNL     1       7.927   7.181  18.319  0.00  0.00    +0.000 A 
ATOM      5  N   UNL     1       8.693   8.198  18.840  0.00  0.00    +0.000 N 
ATOM      6  C   UNL     1       8.607   9.465  18.312  0.00  0.00    +0.000 C 
ATOM      7  O   UNL     1       7.848   9.837  17.423  0.00  0.00    +0.000 OA
ATOM      8  N   UNL     1       7.274   7.150  17.190  0.00  0.00    +0.000 NA
ATOM      9  H   UNL     1       9.181   8.012  19.704  0.00  0.00    +0.000 HD
ENDROOT
BRANCH   6  10
ATOM     10  C   UNL     1       9.486  10.504  18.921  0.00  0.00    +0.000 A 
ATOM     11  C   UNL     1       9.343  10.743  20.296  0.00  0.00    +0.000 A 
ATOM     12  C   UNL     1      10.034  11.785  20.907  0.00  0.00    +0.000 A 
ATOM     13  C   UNL     1      10.868  12.602  20.145  0.00  0.00    +0.000 A 
ATOM     14  C   UNL     1      11.033  12.368  18.774  0.00  0.00    +0.000 A 
ATOM     15  C   UNL     1      10.337  11.315  18.158  0.00  0.00    +0.000 A 
BRANCH  14  16
ATOM     16  S   UNL     1      11.996  13.533  17.826  0.00  0.00    +0.000 S 
BRANCH  16  17
ATOM     17  C   UNL     1      10.868  14.926  17.701  0.00  0.00    +0.000 C 
ATOM     18  F   UNL     1      11.061  15.680  16.593  0.00  0.00    +0.000 F 
ATOM     19  F   UNL     1       9.585  14.493  17.664  0.00  0.00    +0.000 F 
ATOM     20  F   UNL     1      10.984  15.746  18.773  0.00  0.00    +0.000 F 
ENDBRANCH  16  17
ENDBRANCH  14  16
ENDBRANCH   6  10
BRANCH   1  21
ATOM     21  C   UNL     1       5.714   5.784  15.861  0.00  0.00    +0.000 C 
BRANCH  21  23
ATOM     22  O   UNL     1       7.576   5.281  14.401  0.00  0.00    +0.000 OA
ATOM     23  C   UNL     1       6.423   5.034  14.753  0.00  0.00    +0.000 C 
ATOM     24  N   UNL     1       5.681   4.031  14.184  0.00  0.00    +0.000 N 
ATOM     25  H   UNL     1       4.701   3.847  14.381  0.00  0.00    +0.000 HD
BRANCH  24  26
ATOM     26  O   UNL     1       6.303   3.261  13.177  0.00  0.00    +0.000 OA
ATOM     27  H   UNL     1       6.671   2.506  13.686  0.00  0.00    +0.000 HD
ENDBRANCH  24  26
ENDBRANCH  21  23
ENDBRANCH   1  21
TORSDOF 6
ENDMDL
MODEL 2
REMARK VINA RESULT:      -8.0      7.647      9.116
REMARK  Name = 
REMARK  6 active torsions:
REMARK  status: ('A' for Active; 'I' for Inactive)
REMARK    1  A    between atoms: C_2  and  C_3
REMARK    2  A    between atoms: C_3  and  C_4
REMARK    3  A    between atoms: C_9  and  C_11
REMARK    4  A    between atoms: C_15  and  S_16
REMARK    5  A    between atoms: S_16  and  C_17
REMARK    6  A    between atoms: N_23  and  O_24
REMARK                            x       y       z     vdW  Elec       q    Type
REMARK                         _______ _______ _______ _____ _____    ______ ____
ROOT
ATOM      1  C   UNL     1       4.747   4.956  18.131  0.00  0.00    +0.000 A 
ATOM      2  C   UNL     1       4.136   3.918  18.812  0.00  0.00    +0.000 A 
ATOM      3  S   UNL     1       2.797   4.516  19.716  0.00  0.00    +0.000 S 
ATOM      4  C   UNL     1       3.084   6.070  19.073  0.00  0.00    +0.000 A 
ATOM      5  N   UNL     1       2.175   7.036  19.437  0.00  0.00    +0.000 N 
ATOM      6  C   UNL     1       2.123   8.228  18.751  0.00  0.00    +0.000 C 
ATOM      7  O   UNL     1       2.782   8.531  17.762  0.00  0.00    +0.000 OA
ATOM      8  N   UNL     1       4.129   6.186  18.301  0.00  0.00    +0.000 NA
ATOM      9  H   UNL     1       1.463   6.773  20.103  0.00  0.00    +0.000 HD
ENDROOT
BRANCH   6  10
ATOM     10  C   UNL     1       1.124   9.229  19.223  0.00  0.00    +0.000 A 
ATOM     11  C   UNL     1       0.921   9.331  20.607  0.00  0.00    +0.000 A 
ATOM     12  C   UNL     1      -0.086  10.148  21.115  0.00  0.00    +0.000 A 
ATOM     13  C   UNL     1      -0.902  10.862  20.240  0.00  0.00    +0.000 A 
ATOM     14  C   UNL     1      -0.704  10.782  18.856  0.00  0.00    +0.000 A 
ATOM     15  C   UNL     1       0.314   9.960  18.344  0.00  0.00    +0.000 A 
BRANCH  14  16
ATOM     16  S   UNL     1      -1.870  11.602  17.783  0.00  0.00    +0.000 S 
BRANCH  16  17
ATOM     17  C   UNL     1      -2.780  10.212  17.100  0.00  0.00    +0.000 C 
ATOM     18  F   UNL     1      -2.113   9.557  16.120  0.00  0.00    +0.000 F 
ATOM     19  F   UNL     1      -3.050   9.302  18.068  0.00  0.00    +0.000 F 
ATOM     20  F   UNL     1      -3.967  10.611  16.584  0.00  0.00    +0.000 F 
ENDBRANCH  16  17
ENDBRANCH  14  16
ENDBRANCH   6  10
BRANCH   1  21
ATOM     21  C   UNL     1       5.927   4.892  17.224  0.00  0.00    +0.000 C 
BRANCH  21  23
ATOM     22  O   UNL     1       8.237   4.238  17.514  0.00  0.00    +0.000 OA
ATOM     23  C   UNL     1       7.234   4.779  17.979  0.00  0.00    +0.000 C 
ATOM     24  N   UNL     1       7.220   5.353  19.224  0.00  0.00    +0.000 N 
ATOM     25  H   UNL     1       6.396   5.733  19.682  0.00  0.00    +0.000 HD
BRANCH  24  26
ATOM     26  O   UNL     1       8.424   5.324  19.960  0.00  0.00    +0.000 OA
ATOM     27  H   UNL     1       8.538   6.265  20.216  0.00  0.00    +0.000 HD
ENDBRANCH  24  26
ENDBRANCH  21  23
ENDBRANCH   1  21
TORSDOF 6
ENDMDL
MODEL 3
REMARK VINA RESULT:      -7.9      7.602      9.805
REMARK  Name = 
REMARK  6 active torsions:
REMARK  status: ('A' for Active; 'I' for Inactive)
REMARK    1  A    between atoms: C_2  and  C_3
REMARK    2  A    between atoms: C_3  and  C_4
REMARK    3  A    between atoms: C_9  and  C_11
REMARK    4  A    between atoms: C_15  and  S_16
REMARK    5  A    between atoms: S_16  and  C_17
REMARK    6  A    between atoms: N_23  and  O_24
REMARK                            x       y       z     vdW  Elec       q    Type
REMARK                         _______ _______ _______ _____ _____    ______ ____
ROOT
ATOM      1  C   UNL     1      -0.082  11.158  20.259  0.00  0.00    +0.000 A 
ATOM      2  C   UNL     1       0.119  10.899  21.604  0.00  0.00    +0.000 A 
ATOM      3  S   UNL     1       0.958   9.407  21.796  0.00  0.00    +0.000 S 
ATOM      4  C   UNL     1       1.058   9.269  20.098  0.00  0.00    +0.000 A 
ATOM      5  N   UNL     1       1.764   8.184  19.634  0.00  0.00    +0.000 N 
ATOM      6  C   UNL     1       2.169   8.134  18.320  0.00  0.00    +0.000 C 
ATOM      7  O   UNL     1       2.022   9.013  17.477  0.00  0.00    +0.000 OA
ATOM      8  N   UNL     1       0.461  10.204  19.412  0.00  0.00    +0.000 NA
ATOM      9  H   UNL     1       2.101   7.524  20.321  0.00  0.00    +0.000 HD
ENDROOT
BRANCH   6  10
ATOM     10  C   UNL     1       2.911   6.913  17.894  0.00  0.00    +0.000 A 
ATOM     11  C   UNL     1       2.325   5.671  18.181  0.00  0.00    +0.000 A 
ATOM     12  C   UNL     1       3.017   4.490  17.932  0.00  0.00    +0.000 A 
ATOM     13  C   UNL     1       4.305   4.542  17.401  0.00  0.00    +0.000 A 
ATOM     14  C   UNL     1       4.899   5.773  17.095  0.00  0.00    +0.000 A 
ATOM     15  C   UNL     1       4.199   6.965  17.345  0.00  0.00    +0.000 A 
BRANCH  14  16
ATOM     16  S   UNL     1       6.600   5.783  16.556  0.00  0.00    +0.000 S 
BRANCH  16  17
ATOM     17  C   UNL     1       6.508   4.831  15.035  0.00  0.00    +0.000 C 
ATOM     18  F   UNL     1       7.519   5.091  14.173  0.00  0.00    +0.000 F 
ATOM     19  F   UNL     1       6.552   3.504  15.305  0.00  0.00    +0.000 F 
ATOM     20  F   UNL     1       5.347   5.068  14.380  0.00  0.00    +0.000 F 
ENDBRANCH  16  17
ENDBRANCH  14  16
ENDBRANCH   6  10
BRANCH   1  21
ATOM     21  C   UNL     1      -0.750  12.337  19.640  0.00  0.00    +0.000 C 
BRANCH  21  23
ATOM     22  O   UNL     1      -2.902  11.581  18.835  0.00  0.00    +0.000 OA
ATOM     23  C   UNL     1      -1.754  11.943  18.578  0.00  0.00    +0.000 C 
ATOM     24  N   UNL     1      -1.287  12.046  17.293  0.00  0.00    +0.000 N 
ATOM     25  H   UNL     1      -0.327  12.256  17.035  0.00  0.00    +0.000 HD
BRANCH  24  26
ATOM     26  O   UNL     1      -2.192  11.739  16.253  0.00  0.00    +0.000 OA
ATOM     27  H   UNL     1      -1.983  12.425  15.582  0.00  0.00    +0.000 HD
ENDBRANCH  24  26
ENDBRANCH  21  23
ENDBRANCH   1  21
TORSDOF 6
ENDMDL
MODEL 4
REMARK VINA RESULT:      -7.9      8.704     10.978
REMARK  Name = 
REMARK  6 active torsions:
REMARK  status: ('A' for Active; 'I' for Inactive)
REMARK    1  A    between atoms: C_2  and  C_3
REMARK    2  A    between atoms: C_3  and  C_4
REMARK    3  A    between atoms: C_9  and  C_11
REMARK    4  A    between atoms: C_15  and  S_16
REMARK    5  A    between atoms: S_16  and  C_17
REMARK    6  A    between atoms: N_23  and  O_24
REMARK                            x       y       z     vdW  Elec       q    Type
REMARK                         _______ _______ _______ _____ _____    ______ ____
ROOT
ATOM      1  C   UNL     1      -0.649  11.323  20.221  0.00  0.00    +0.000 A 
ATOM      2  C   UNL     1      -0.517  11.191  21.592  0.00  0.00    +0.000 A 
ATOM      3  S   UNL     1       0.424   9.795  21.959  0.00  0.00    +0.000 S 
ATOM      4  C   UNL     1       0.647   9.531  20.288  0.00  0.00    +0.000 A 
ATOM      5  N   UNL     1       1.466   8.476  19.961  0.00  0.00    +0.000 N 
ATOM      6  C   UNL     1       1.960   8.356  18.683  0.00  0.00    +0.000 C 
ATOM      7  O   UNL     1       1.799   9.149  17.761  0.00  0.00    +0.000 OA
ATOM      8  N   UNL     1       0.023  10.354  19.491  0.00  0.00    +0.000 NA
ATOM      9  H   UNL     1       1.809   7.905  20.720  0.00  0.00    +0.000 HD
ENDROOT
BRANCH   6  10
ATOM     10  C   UNL     1       2.823   7.173  18.407  0.00  0.00    +0.000 A 
ATOM     11  C   UNL     1       3.801   7.308  17.410  0.00  0.00    +0.000 A 
ATOM     12  C   UNL     1       4.556   6.210  17.008  0.00  0.00    +0.000 A 
ATOM     13  C   UNL     1       4.332   4.966  17.594  0.00  0.00    +0.000 A 
ATOM     14  C   UNL     1       3.370   4.816  18.601  0.00  0.00    +0.000 A 
ATOM     15  C   UNL     1       2.610   5.925  19.008  0.00  0.00    +0.000 A 
BRANCH  14  16
ATOM     16  S   UNL     1       3.027   3.174  19.209  0.00  0.00    +0.000 S 
BRANCH  16  17
ATOM     17  C   UNL     1       1.264   3.027  18.894  0.00  0.00    +0.000 C 
ATOM     18  F   UNL     1       0.862   3.660  17.767  0.00  0.00    +0.000 F 
ATOM     19  F   UNL     1       0.915   1.725  18.760  0.00  0.00    +0.000 F 
ATOM     20  F   UNL     1       0.541   3.533  19.921  0.00  0.00    +0.000 F 
ENDBRANCH  16  17
ENDBRANCH  14  16
ENDBRANCH   6  10
BRANCH   1  21
ATOM     21  C   UNL     1      -1.367  12.387  19.465  0.00  0.00    +0.000 C 
BRANCH  21  23
ATOM     22  O   UNL     1      -3.303  11.333  18.470  0.00  0.00    +0.000 OA
ATOM     23  C   UNL     1      -2.188  11.833  18.321  0.00  0.00    +0.000 C 
ATOM     24  N   UNL     1      -1.597  11.955  17.089  0.00  0.00    +0.000 N 
ATOM     25  H   UNL     1      -0.648  12.281  16.927  0.00  0.00    +0.000 HD
BRANCH  24  26
ATOM     26  O   UNL     1      -2.334  11.500  15.974  0.00  0.00    +0.000 OA
ATOM     27  H   UNL     1      -1.860  11.919  15.223  0.00  0.00    +0.000 HD
ENDBRANCH  24  26
ENDBRANCH  21  23
ENDBRANCH   1  21
TORSDOF 6
ENDMDL
MODEL 5
REMARK VINA RESULT:      -7.8      7.607      8.834
REMARK  Name = 
REMARK  6 active torsions:
REMARK  status: ('A' for Active; 'I' for Inactive)
REMARK    1  A    between atoms: C_2  and  C_3
REMARK    2  A    between atoms: C_3  and  C_4
REMARK    3  A    between atoms: C_9  and  C_11
REMARK    4  A    between atoms: C_15  and  S_16
REMARK    5  A    between atoms: S_16  and  C_17
REMARK    6  A    between atoms: N_23  and  O_24
REMARK                            x       y       z     vdW  Elec       q    Type
REMARK                         _______ _______ _______ _____ _____    ______ ____
ROOT
ATOM      1  C   UNL     1       4.592   4.307  18.450  0.00  0.00    +0.000 A 
ATOM      2  C   UNL     1       4.038   3.272  19.181  0.00  0.00    +0.000 A 
ATOM      3  S   UNL     1       2.852   3.889  20.268  0.00  0.00    +0.000 S 
ATOM      4  C   UNL     1       3.109   5.450  19.629  0.00  0.00    +0.000 A 
ATOM      5  N   UNL     1       2.293   6.436  20.132  0.00  0.00    +0.000 N 
ATOM      6  C   UNL     1       2.196   7.647  19.487  0.00  0.00    +0.000 C 
ATOM      7  O   UNL     1       2.731   7.955  18.427  0.00  0.00    +0.000 OA
ATOM      8  N   UNL     1       4.048   5.552  18.728  0.00  0.00    +0.000 NA
ATOM      9  H   UNL     1       1.665   6.179  20.880  0.00  0.00    +0.000 HD
ENDROOT
BRANCH   6  10
ATOM     10  C   UNL     1       1.305   8.667  20.110  0.00  0.00    +0.000 A 
ATOM     11  C   UNL     1       0.767   8.368  21.370  0.00  0.00    +0.000 A 
ATOM     12  C   UNL     1      -0.174   9.212  21.955  0.00  0.00    +0.000 A 
ATOM     13  C   UNL     1      -0.588  10.358  21.279  0.00  0.00    +0.000 A 
ATOM     14  C   UNL     1      -0.050  10.679  20.026  0.00  0.00    +0.000 A 
ATOM     15  C   UNL     1       0.901   9.828  19.438  0.00  0.00    +0.000 A 
BRANCH  14  16
ATOM     16  S   UNL     1      -0.725  12.077  19.146  0.00  0.00    +0.000 S 
BRANCH  16  17
ATOM     17  C   UNL     1      -2.188  11.361  18.388  0.00  0.00    +0.000 C 
ATOM     18  F   UNL     1      -3.336  11.658  19.041  0.00  0.00    +0.000 F 
ATOM     19  F   UNL     1      -2.330  11.810  17.117  0.00  0.00    +0.000 F 
ATOM     20  F   UNL     1      -2.096  10.011  18.328  0.00  0.00    +0.000 F 
ENDBRANCH  16  17
ENDBRANCH  14  16
ENDBRANCH   6  10
BRANCH   1  21
ATOM     21  C   UNL     1       5.640   4.229  17.393  0.00  0.00    +0.000 C 
BRANCH  21  23
ATOM     22  O   UNL     1       8.044   4.445  17.248  0.00  0.00    +0.000 OA
ATOM     23  C   UNL     1       7.018   4.571  17.916  0.00  0.00    +0.000 C 
ATOM     24  N   UNL     1       7.032   5.060  19.197  0.00  0.00    +0.000 N 
ATOM     25  H   UNL     1       6.226   5.101  19.815  0.00  0.00    +0.000 HD
BRANCH  24  26
ATOM     26  O   UNL     1       8.284   5.444  19.726  0.00  0.00    +0.000 OA
ATOM     27  H   UNL     1       8.873   4.720  19.422  0.00  0.00    +0.000 HD
ENDBRANCH  24  26
ENDBRANCH  21  23
ENDBRANCH   1  21
TORSDOF 6
ENDMDL
MODEL 6
REMARK VINA RESULT:      -7.8      0.981      1.156
REMARK  Name = 
REMARK  6 active torsions:
REMARK  status: ('A' for Active; 'I' for Inactive)
REMARK    1  A    between atoms: C_2  and  C_3
REMARK    2  A    between atoms: C_3  and  C_4
REMARK    3  A    between atoms: C_9  and  C_11
REMARK    4  A    between atoms: C_15  and  S_16
REMARK    5  A    between atoms: S_16  and  C_17
REMARK    6  A    between atoms: N_23  and  O_24
REMARK                            x       y       z     vdW  Elec       q    Type
REMARK                         _______ _______ _______ _____ _____    ______ ____
ROOT
ATOM      1  C   UNL     1       6.602   5.727  16.978  0.00  0.00    +0.000 A 
ATOM      2  C   UNL     1       6.852   4.921  18.075  0.00  0.00    +0.000 A 
ATOM      3  S   UNL     1       7.891   5.738  19.180  0.00  0.00    +0.000 S 
ATOM      4  C   UNL     1       7.857   7.109  18.165  0.00  0.00    +0.000 A 
ATOM      5  N   UNL     1       8.532   8.211  18.637  0.00  0.00    +0.000 N 
ATOM      6  C   UNL     1       8.322   9.445  18.068  0.00  0.00    +0.000 C 
ATOM      7  O   UNL     1       7.520   9.713  17.180  0.00  0.00    +0.000 OA
ATOM      8  N   UNL     1       7.195   6.978  17.048  0.00  0.00    +0.000 NA
ATOM      9  H   UNL     1       9.047   8.102  19.499  0.00  0.00    +0.000 HD
ENDROOT
BRANCH   6  10
ATOM     10  C   UNL     1       9.109  10.582  18.626  0.00  0.00    +0.000 A 
ATOM     11  C   UNL     1       9.723  10.389  19.872  0.00  0.00    +0.000 A 
ATOM     12  C   UNL     1      10.363  11.445  20.515  0.00  0.00    +0.000 A 
ATOM     13  C   UNL     1      10.386  12.704  19.919  0.00  0.00    +0.000 A 
ATOM     14  C   UNL     1       9.790  12.911  18.669  0.00  0.00    +0.000 A 
ATOM     15  C   UNL     1       9.146  11.844  18.019  0.00  0.00    +0.000 A 
BRANCH  14  16
ATOM     16  S   UNL     1       9.724  14.574  18.025  0.00  0.00    +0.000 S 
BRANCH  16  17
ATOM     17  C   UNL     1      11.225  14.646  17.041  0.00  0.00    +0.000 C 
ATOM     18  F   UNL     1      11.342  15.782  16.315  0.00  0.00    +0.000 F 
ATOM     19  F   UNL     1      12.318  14.574  17.839  0.00  0.00    +0.000 F 
ATOM     20  F   UNL     1      11.292  13.606  16.175  0.00  0.00    +0.000 F 
ENDBRANCH  16  17
ENDBRANCH  14  16
ENDBRANCH   6  10
BRANCH   1  21
ATOM     21  C   UNL     1       5.751   5.428  15.792  0.00  0.00    +0.000 C 
BRANCH  21  23
ATOM     22  O   UNL     1       7.672   5.240  14.336  0.00  0.00    +0.000 OA
ATOM     23  C   UNL     1       6.544   4.852  14.639  0.00  0.00    +0.000 C 
ATOM     24  N   UNL     1       5.911   3.837  13.968  0.00  0.00    +0.000 N 
ATOM     25  H   UNL     1       4.951   3.543  14.126  0.00  0.00    +0.000 HD
BRANCH  24  26
ATOM     26  O   UNL     1       6.620   3.225  12.911  0.00  0.00    +0.000 OA
ATOM     27  H   UNL     1       6.188   3.608  12.117  0.00  0.00    +0.000 HD
ENDBRANCH  24  26
ENDBRANCH  21  23
ENDBRANCH   1  21
TORSDOF 6
ENDMDL
MODEL 7
REMARK VINA RESULT:      -7.8      0.654      1.125
REMARK  Name = 
REMARK  6 active torsions:
REMARK  status: ('A' for Active; 'I' for Inactive)
REMARK    1  A    between atoms: C_2  and  C_3
REMARK    2  A    between atoms: C_3  and  C_4
REMARK    3  A    between atoms: C_9  and  C_11
REMARK    4  A    between atoms: C_15  and  S_16
REMARK    5  A    between atoms: S_16  and  C_17
REMARK    6  A    between atoms: N_23  and  O_24
REMARK                            x       y       z     vdW  Elec       q    Type
REMARK                         _______ _______ _______ _____ _____    ______ ____
ROOT
ATOM      1  C   UNL     1       6.342   6.049  17.112  0.00  0.00    +0.000 A 
ATOM      2  C   UNL     1       6.606   5.153  18.133  0.00  0.00    +0.000 A 
ATOM      3  S   UNL     1       7.823   5.790  19.174  0.00  0.00    +0.000 S 
ATOM      4  C   UNL     1       7.840   7.220  18.243  0.00  0.00    +0.000 A 
ATOM      5  N   UNL     1       8.668   8.216  18.707  0.00  0.00    +0.000 N 
ATOM      6  C   UNL     1       8.538   9.499  18.229  0.00  0.00    +0.000 C 
ATOM      7  O   UNL     1       7.689   9.903  17.440  0.00  0.00    +0.000 OA
ATOM      8  N   UNL     1       7.068   7.228  17.191  0.00  0.00    +0.000 NA
ATOM      9  H   UNL     1       9.246   8.001  19.507  0.00  0.00    +0.000 HD
ENDROOT
BRANCH   6  10
ATOM     10  C   UNL     1       9.488  10.514  18.769  0.00  0.00    +0.000 A 
ATOM     11  C   UNL     1       9.464  10.747  20.152  0.00  0.00    +0.000 A 
ATOM     12  C   UNL     1      10.227  11.768  20.709  0.00  0.00    +0.000 A 
ATOM     13  C   UNL     1      11.014  12.570  19.885  0.00  0.00    +0.000 A 
ATOM     14  C   UNL     1      11.061  12.342  18.504  0.00  0.00    +0.000 A 
ATOM     15  C   UNL     1      10.293  11.309  17.942  0.00  0.00    +0.000 A 
BRANCH  14  16
ATOM     16  S   UNL     1      11.971  13.491  17.485  0.00  0.00    +0.000 S 
BRANCH  16  17
ATOM     17  C   UNL     1      10.907  14.938  17.525  0.00  0.00    +0.000 C 
ATOM     18  F   UNL     1      11.138  15.750  18.583  0.00  0.00    +0.000 F 
ATOM     19  F   UNL     1      11.083  15.685  16.409  0.00  0.00    +0.000 F 
ATOM     20  F   UNL     1       9.600  14.582  17.567  0.00  0.00    +0.000 F 
ENDBRANCH  16  17
ENDBRANCH  14  16
ENDBRANCH   6  10
BRANCH   1  21
ATOM     21  C   UNL     1       5.359   5.913  16.001  0.00  0.00    +0.000 C 
BRANCH  21  23
ATOM     22  O   UNL     1       5.289   4.197  14.299  0.00  0.00    +0.000 OA
ATOM     23  C   UNL     1       5.906   5.117  14.836  0.00  0.00    +0.000 C 
ATOM     24  N   UNL     1       7.143   5.521  14.406  0.00  0.00    +0.000 N 
ATOM     25  H   UNL     1       7.725   6.214  14.869  0.00  0.00    +0.000 HD
BRANCH  24  26
ATOM     26  O   UNL     1       7.688   4.849  13.290  0.00  0.00    +0.000 OA
ATOM     27  H   UNL     1       7.306   5.348  12.536  0.00  0.00    +0.000 HD
ENDBRANCH  24  26
ENDBRANCH  21  23
ENDBRANCH   1  21
TORSDOF 6
ENDMDL
MODEL 8
REMARK VINA RESULT:      -7.7      7.437      9.079
REMARK  Name = 
REMARK  6 active torsions:
REMARK  status: ('A' for Active; 'I' for Inactive)
REMARK    1  A    between atoms: C_2  and  C_3
REMARK    2  A    between atoms: C_3  and  C_4
REMARK    3  A    between atoms: C_9  and  C_11
REMARK    4  A    between atoms: C_15  and  S_16
REMARK    5  A    between atoms: S_16  and  C_17
REMARK    6  A    between atoms: N_23  and  O_24
REMARK                            x       y       z     vdW  Elec       q    Type
REMARK                         _______ _______ _______ _____ _____    ______ ____
ROOT
ATOM      1  C   UNL     1       4.785   4.998  17.599  0.00  0.00    +0.000 A 
ATOM      2  C   UNL     1       4.284   3.968  18.376  0.00  0.00    +0.000 A 
ATOM      3  S   UNL     1       3.024   4.557  19.392  0.00  0.00    +0.000 S 
ATOM      4  C   UNL     1       3.187   6.093  18.668  0.00  0.00    +0.000 A 
ATOM      5  N   UNL     1       2.287   7.043  19.090  0.00  0.00    +0.000 N 
ATOM      6  C   UNL     1       2.122   8.205  18.372  0.00  0.00    +0.000 C 
ATOM      7  O   UNL     1       2.665   8.490  17.310  0.00  0.00    +0.000 OA
ATOM      8  N   UNL     1       4.144   6.213  17.789  0.00  0.00    +0.000 NA
ATOM      9  H   UNL     1       1.656   6.784  19.835  0.00  0.00    +0.000 HD
ENDROOT
BRANCH   6  10
ATOM     10  C   UNL     1       1.141   9.191  18.909  0.00  0.00    +0.000 A 
ATOM     11  C   UNL     1       1.025   9.288  20.304  0.00  0.00    +0.000 A 
ATOM     12  C   UNL     1       0.041  10.090  20.876  0.00  0.00    +0.000 A 
ATOM     13  C   UNL     1      -0.839  10.794  20.057  0.00  0.00    +0.000 A 
ATOM     14  C   UNL     1      -0.728  10.719  18.663  0.00  0.00    +0.000 A 
ATOM     15  C   UNL     1       0.266   9.911  18.085  0.00  0.00    +0.000 A 
BRANCH  14  16
ATOM     16  S   UNL     1      -1.972  11.524  17.668  0.00  0.00    +0.000 S 
BRANCH  16  17
ATOM     17  C   UNL     1      -2.925  10.123  17.069  0.00  0.00    +0.000 C 
ATOM     18  F   UNL     1      -4.168  10.455  16.649  0.00  0.00    +0.000 F 
ATOM     19  F   UNL     1      -2.298   9.539  16.019  0.00  0.00    +0.000 F 
ATOM     20  F   UNL     1      -3.062   9.179  18.030  0.00  0.00    +0.000 F 
ENDBRANCH  16  17
ENDBRANCH  14  16
ENDBRANCH   6  10
BRANCH   1  21
ATOM     21  C   UNL     1       5.867   4.936  16.578  0.00  0.00    +0.000 C 
BRANCH  21  23
ATOM     22  O   UNL     1       7.742   6.352  16.004  0.00  0.00    +0.000 OA
ATOM     23  C   UNL     1       7.000   5.896  16.874  0.00  0.00    +0.000 C 
ATOM     24  N   UNL     1       7.119   6.240  18.196  0.00  0.00    +0.000 N 
ATOM     25  H   UNL     1       6.587   5.827  18.957  0.00  0.00    +0.000 HD
BRANCH  24  26
ATOM     26  O   UNL     1       8.126   7.171  18.530  0.00  0.00    +0.000 OA
ATOM     27  H   UNL     1       7.993   7.288  19.496  0.00  0.00    +0.000 HD
ENDBRANCH  24  26
ENDBRANCH  21  23
ENDBRANCH   1  21
TORSDOF 6
ENDMDL
MODEL 9
REMARK VINA RESULT:      -7.6      8.373     10.844
REMARK  Name = 
REMARK  6 active torsions:
REMARK  status: ('A' for Active; 'I' for Inactive)
REMARK    1  A    between atoms: C_2  and  C_3
REMARK    2  A    between atoms: C_3  and  C_4
REMARK    3  A    between atoms: C_9  and  C_11
REMARK    4  A    between atoms: C_15  and  S_16
REMARK    5  A    between atoms: S_16  and  C_17
REMARK    6  A    between atoms: N_23  and  O_24
REMARK                            x       y       z     vdW  Elec       q    Type
REMARK                         _______ _______ _______ _____ _____    ______ ____
ROOT
ATOM      1  C   UNL     1       0.100  11.217  19.839  0.00  0.00    +0.000 A 
ATOM      2  C   UNL     1       0.163  10.981  21.201  0.00  0.00    +0.000 A 
ATOM      3  S   UNL     1       0.919   9.462  21.500  0.00  0.00    +0.000 S 
ATOM      4  C   UNL     1       1.174   9.282  19.823  0.00  0.00    +0.000 A 
ATOM      5  N   UNL     1       1.876   8.161  19.449  0.00  0.00    +0.000 N 
ATOM      6  C   UNL     1       2.401   8.065  18.181  0.00  0.00    +0.000 C 
ATOM      7  O   UNL     1       2.369   8.930  17.311  0.00  0.00    +0.000 OA
ATOM      8  N   UNL     1       0.681  10.224  19.065  0.00  0.00    +0.000 NA
ATOM      9  H   UNL     1       2.120   7.504  20.177  0.00  0.00    +0.000 HD
ENDROOT
BRANCH   6  10
ATOM     10  C   UNL     1       3.130   6.808  17.850  0.00  0.00    +0.000 A 
ATOM     11  C   UNL     1       4.399   6.934  17.268  0.00  0.00    +0.000 A 
ATOM     12  C   UNL     1       5.083   5.810  16.814  0.00  0.00    +0.000 A 
ATOM     13  C   UNL     1       4.498   4.551  16.932  0.00  0.00    +0.000 A 
ATOM     14  C   UNL     1       3.237   4.406  17.524  0.00  0.00    +0.000 A 
ATOM     15  C   UNL     1       2.548   5.540  17.984  0.00  0.00    +0.000 A 
BRANCH  14  16
ATOM     16  S   UNL     1       2.477   2.791  17.515  0.00  0.00    +0.000 S 
BRANCH  16  17
ATOM     17  C   UNL     1       3.085   2.091  19.053  0.00  0.00    +0.000 C 
ATOM     18  F   UNL     1       2.101   1.720  19.906  0.00  0.00    +0.000 F 
ATOM     19  F   UNL     1       3.830   0.985  18.808  0.00  0.00    +0.000 F 
ATOM     20  F   UNL     1       3.878   2.970  19.710  0.00  0.00    +0.000 F 
ENDBRANCH  16  17
ENDBRANCH  14  16
ENDBRANCH   6  10
BRANCH   1  21
ATOM     21  C   UNL     1      -0.459  12.406  19.137  0.00  0.00    +0.000 C 
BRANCH  21  23
ATOM     22  O   UNL     1      -2.837  11.966  19.116  0.00  0.00    +0.000 OA
ATOM     23  C   UNL     1      -1.793  12.119  18.482  0.00  0.00    +0.000 C 
ATOM     24  N   UNL     1      -1.751  12.065  17.112  0.00  0.00    +0.000 N 
ATOM     25  H   UNL     1      -0.903  12.099  16.553  0.00  0.00    +0.000 HD
BRANCH  24  26
ATOM     26  O   UNL     1      -2.973  11.849  16.438  0.00  0.00    +0.000 OA
ATOM     27  H   UNL     1      -2.683  11.737  15.507  0.00  0.00    +0.000 HD
ENDBRANCH  24  26
ENDBRANCH  21  23
ENDBRANCH   1  21
TORSDOF 6
ENDMDL
