MODEL 1
REMARK VINA RESULT:      -8.1      0.000      0.000
REMARK  Name = 
REMARK  6 active torsions:
REMARK  status: ('A' for Active; 'I' for Inactive)
REMARK    1  A    between atoms: C_1  and  C_2
REMARK    2  A    between atoms: C_5  and  C_6
REMARK    3  A    between atoms: C_20  and  O_21
REMARK    4  A    between atoms: O_21  and  C_22
REMARK    5  A    between atoms: C_22  and  C_23
REMARK    6  A    between atoms: C_23  and  N_24
REMARK                            x       y       z     vdW  Elec       q    Type
REMARK                         _______ _______ _______ _____ _____    ______ ____
ROOT
ATOM      1  C   UNL     1      -0.210   9.870  21.429  0.00  0.00    +0.000 C 
ATOM      2  C   UNL     1       0.722   9.226  20.441  0.00  0.00    +0.000 A 
ATOM      3  C   UNL     1       1.352   8.049  20.877  0.00  0.00    +0.000 A 
ATOM      4  C   UNL     1       2.158   7.303  20.024  0.00  0.00    +0.000 A 
ATOM      5  C   UNL     1       2.441   7.756  18.737  0.00  0.00    +0.000 A 
ATOM      6  C   UNL     1       1.805   8.914  18.280  0.00  0.00    +0.000 A 
ATOM      7  C   UNL     1       0.955   9.659  19.122  0.00  0.00    +0.000 A 
ENDROOT
BRANCH   5   8
ATOM      8  C   UNL     1       3.425   7.057  17.846  0.00  0.00    +0.000 C 
ATOM      9  O   UNL     1       4.334   7.707  17.348  0.00  0.00    +0.000 OA
ATOM     10  N   UNL     1       3.292   5.685  17.659  0.00  0.00    +0.000 N 
ATOM     11  C   UNL     1       4.156   4.904  16.811  0.00  0.00    +0.000 C 
ATOM     12  C   UNL     1       4.362   3.606  17.591  0.00  0.00    +0.000 C 
ATOM     13  C   UNL     1       3.153   3.489  18.580  0.00  0.00    +0.000 C 
ATOM     14  C   UNL     1       3.685   3.388  20.035  0.00  0.00    +0.000 C 
ATOM     15  C   UNL     1       2.679   3.524  21.181  0.00  0.00    +0.000 C 
ATOM     16  C   UNL     1       1.478   2.578  21.141  0.00  0.00    +0.000 C 
ATOM     17  C   UNL     1       0.480   2.890  20.033  0.00  0.00    +0.000 C 
ATOM     18  C   UNL     1       0.820   2.276  18.681  0.00  0.00    +0.000 C 
ATOM     19  C   UNL     1       2.289   2.257  18.241  0.00  0.00    +0.000 C 
ATOM     20  C   UNL     1       2.400   4.805  18.369  0.00  0.00    +0.000 C 
ENDBRANCH   5   8
BRANCH   7  21
ATOM     21  O   UNL     1       0.421  10.740  18.474  0.00  0.00    +0.000 OA
BRANCH  21  22
ATOM     22  C   UNL     1       0.876  12.046  18.823  0.00  0.00    +0.000 C 
BRANCH  22  23
ATOM     23  C   UNL     1      -0.145  13.090  18.352  0.00  0.00    +0.000 C 
BRANCH  23  24
ATOM     24  N   UNL     1      -1.234  12.503  17.568  0.00  0.00    +0.000 NA
ATOM     25  H   UNL     1      -2.116  12.874  17.929  0.00  0.00    +0.000 HD
ATOM     26  H   UNL     1      -1.261  11.498  17.727  0.00  0.00    +0.000 HD
ENDBRANCH  23  24
ENDBRANCH  22  23
ENDBRANCH  21  22
ENDBRANCH   7  21
TORSDOF 5
ENDMDL
MODEL 2
REMARK VINA RESULT:      -7.8      2.554      4.437
REMARK  Name = 
REMARK  6 active torsions:
REMARK  status: ('A' for Active; 'I' for Inactive)
REMARK    1  A    between atoms: C_1  and  C_2
REMARK    2  A    between atoms: C_5  and  C_6
REMARK    3  A    between atoms: C_20  and  O_21
REMARK    4  A    between atoms: O_21  and  C_22
REMARK    5  A    between atoms: C_22  and  C_23
REMARK    6  A    between atoms: C_23  and  N_24
REMARK                            x       y       z     vdW  Elec       q    Type
REMARK                         _______ _______ _______ _____ _____    ______ ____
ROOT
ATOM      1  C   UNL     1       1.313  11.118  18.396  0.00  0.00    +0.000 C 
ATOM      2  C   UNL     1       1.506   9.705  18.872  0.00  0.00    +0.000 A 
ATOM      3  C   UNL     1       1.965   8.794  17.906  0.00  0.00    +0.000 A 
ATOM      4  C   UNL     1       2.280   7.483  18.243  0.00  0.00    +0.000 A 
ATOM      5  C   UNL     1       2.056   7.006  19.533  0.00  0.00    +0.000 A 
ATOM      6  C   UNL     1       1.620   7.905  20.511  0.00  0.00    +0.000 A 
ATOM      7  C   UNL     1       1.334   9.248  20.192  0.00  0.00    +0.000 A 
ENDROOT
BRANCH   5   8
ATOM      8  C   UNL     1       2.239   5.562  19.890  0.00  0.00    +0.000 C 
ATOM      9  O   UNL     1       1.273   4.925  20.289  0.00  0.00    +0.000 OA
ATOM     10  N   UNL     1       3.494   4.988  19.709  0.00  0.00    +0.000 N 
ATOM     11  C   UNL     1       3.805   3.619  20.036  0.00  0.00    +0.000 C 
ATOM     12  C   UNL     1       4.714   3.165  18.895  0.00  0.00    +0.000 C 
ATOM     13  C   UNL     1       5.328   4.467  18.276  0.00  0.00    +0.000 C 
ATOM     14  C   UNL     1       4.978   4.534  16.765  0.00  0.00    +0.000 C 
ATOM     15  C   UNL     1       5.255   5.842  16.019  0.00  0.00    +0.000 C 
ATOM     16  C   UNL     1       6.684   6.381  16.110  0.00  0.00    +0.000 C 
ATOM     17  C   UNL     1       7.057   6.916  17.487  0.00  0.00    +0.000 C 
ATOM     18  C   UNL     1       7.552   5.860  18.466  0.00  0.00    +0.000 C 
ATOM     19  C   UNL     1       6.858   4.492  18.471  0.00  0.00    +0.000 C 
ATOM     20  C   UNL     1       4.623   5.587  19.046  0.00  0.00    +0.000 C 
ENDBRANCH   5   8
BRANCH   7  21
ATOM     21  O   UNL     1       0.943   9.958  21.295  0.00  0.00    +0.000 OA
BRANCH  21  22
ATOM     22  C   UNL     1      -0.449  10.166  21.522  0.00  0.00    +0.000 C 
BRANCH  22  23
ATOM     23  C   UNL     1      -0.695  10.430  23.013  0.00  0.00    +0.000 C 
BRANCH  23  24
ATOM     24  N   UNL     1       0.125   9.580  23.880  0.00  0.00    +0.000 NA
ATOM     25  H   UNL     1       1.015   9.412  23.403  0.00  0.00    +0.000 HD
ATOM     26  H   UNL     1      -0.320   8.670  23.981  0.00  0.00    +0.000 HD
ENDBRANCH  23  24
ENDBRANCH  22  23
ENDBRANCH  21  22
ENDBRANCH   7  21
TORSDOF 5
ENDMDL
MODEL 3
REMARK VINA RESULT:      -7.6      1.842      2.502
REMARK  Name = 
REMARK  6 active torsions:
REMARK  status: ('A' for Active; 'I' for Inactive)
REMARK    1  A    between atoms: C_1  and  C_2
REMARK    2  A    between atoms: C_5  and  C_6
REMARK    3  A    between atoms: C_20  and  O_21
REMARK    4  A    between atoms: O_21  and  C_22
REMARK    5  A    between atoms: C_22  and  C_23
REMARK    6  A    between atoms: C_23  and  N_24
REMARK                            x       y       z     vdW  Elec       q    Type
REMARK                         _______ _______ _______ _____ _____    ______ ____
ROOT
ATOM      1  C   UNL     1      -0.128  10.189  19.573  0.00  0.00    +0.000 C 
ATOM      2  C   UNL     1       0.936   9.227  19.123  0.00  0.00    +0.000 A 
ATOM      3  C   UNL     1       1.402   9.405  17.810  0.00  0.00    +0.000 A 
ATOM      4  C   UNL     1       2.453   8.647  17.308  0.00  0.00    +0.000 A 
ATOM      5  C   UNL     1       3.013   7.619  18.064  0.00  0.00    +0.000 A 
ATOM      6  C   UNL     1       2.576   7.443  19.381  0.00  0.00    +0.000 A 
ATOM      7  C   UNL     1       1.536   8.230  19.915  0.00  0.00    +0.000 A 
ENDROOT
BRANCH   5   8
ATOM      8  C   UNL     1       4.041   6.685  17.500  0.00  0.00    +0.000 C 
ATOM      9  O   UNL     1       5.086   7.151  17.065  0.00  0.00    +0.000 OA
ATOM     10  N   UNL     1       3.785   5.318  17.534  0.00  0.00    +0.000 N 
ATOM     11  C   UNL     1       4.680   4.321  17.003  0.00  0.00    +0.000 C 
ATOM     12  C   UNL     1       4.611   3.184  18.021  0.00  0.00    +0.000 C 
ATOM     13  C   UNL     1       3.253   3.358  18.784  0.00  0.00    +0.000 C 
ATOM     14  C   UNL     1       3.531   3.493  20.305  0.00  0.00    +0.000 C 
ATOM     15  C   UNL     1       2.377   3.928  21.213  0.00  0.00    +0.000 C 
ATOM     16  C   UNL     1       1.098   3.092  21.125  0.00  0.00    +0.000 C 
ATOM     17  C   UNL     1       0.333   3.268  19.820  0.00  0.00    +0.000 C 
ATOM     18  C   UNL     1       0.812   2.380  18.679  0.00  0.00    +0.000 C 
ATOM     19  C   UNL     1       2.321   2.157  18.517  0.00  0.00    +0.000 C 
ATOM     20  C   UNL     1       2.697   4.666  18.216  0.00  0.00    +0.000 C 
ENDBRANCH   5   8
BRANCH   7  21
ATOM     21  O   UNL     1       1.278   7.910  21.221  0.00  0.00    +0.000 OA
BRANCH  21  22
ATOM     22  C   UNL     1       1.331   8.940  22.205  0.00  0.00    +0.000 C 
BRANCH  22  23
ATOM     23  C   UNL     1      -0.053   9.112  22.846  0.00  0.00    +0.000 C 
BRANCH  23  24
ATOM     24  N   UNL     1      -0.271  10.464  23.366  0.00  0.00    +0.000 NA
ATOM     25  H   UNL     1      -0.987  10.911  22.787  0.00  0.00    +0.000 HD
ATOM     26  H   UNL     1       0.577  11.014  23.247  0.00  0.00    +0.000 HD
ENDBRANCH  23  24
ENDBRANCH  22  23
ENDBRANCH  21  22
ENDBRANCH   7  21
TORSDOF 5
ENDMDL
MODEL 4
REMARK VINA RESULT:      -7.6      2.484      4.261
REMARK  Name = 
REMARK  6 active torsions:
REMARK  status: ('A' for Active; 'I' for Inactive)
REMARK    1  A    between atoms: C_1  and  C_2
REMARK    2  A    between atoms: C_5  and  C_6
REMARK    3  A    between atoms: C_20  and  O_21
REMARK    4  A    between atoms: O_21  and  C_22
REMARK    5  A    between atoms: C_22  and  C_23
REMARK    6  A    between atoms: C_23  and  N_24
REMARK                            x       y       z     vdW  Elec       q    Type
REMARK                         _______ _______ _______ _____ _____    ______ ____
ROOT
ATOM      1  C   UNL     1       1.432   8.590  21.434  0.00  0.00    +0.000 C 
ATOM      2  C   UNL     1       1.785   7.545  20.412  0.00  0.00    +0.000 A 
ATOM      3  C   UNL     1       1.616   6.212  20.821  0.00  0.00    +0.000 A 
ATOM      4  C   UNL     1       1.811   5.155  19.939  0.00  0.00    +0.000 A 
ATOM      5  C   UNL     1       2.274   5.386  18.645  0.00  0.00    +0.000 A 
ATOM      6  C   UNL     1       2.427   6.708  18.215  0.00  0.00    +0.000 A 
ATOM      7  C   UNL     1       2.196   7.790  19.088  0.00  0.00    +0.000 A 
ENDROOT
BRANCH   5   8
ATOM      8  C   UNL     1       2.640   4.264  17.720  0.00  0.00    +0.000 C 
ATOM      9  O   UNL     1       1.746   3.661  17.141  0.00  0.00    +0.000 OA
ATOM     10  N   UNL     1       3.987   3.983  17.518  0.00  0.00    +0.000 N 
ATOM     11  C   UNL     1       4.467   2.918  16.675  0.00  0.00    +0.000 C 
ATOM     12  C   UNL     1       5.681   3.524  15.972  0.00  0.00    +0.000 C 
ATOM     13  C   UNL     1       6.164   4.712  16.872  0.00  0.00    +0.000 C 
ATOM     14  C   UNL     1       6.162   6.022  16.039  0.00  0.00    +0.000 C 
ATOM     15  C   UNL     1       6.351   7.348  16.782  0.00  0.00    +0.000 C 
ATOM     16  C   UNL     1       7.593   7.454  17.669  0.00  0.00    +0.000 C 
ATOM     17  C   UNL     1       7.534   6.591  18.922  0.00  0.00    +0.000 C 
ATOM     18  C   UNL     1       7.984   5.149  18.722  0.00  0.00    +0.000 C 
ATOM     19  C   UNL     1       7.577   4.435  17.427  0.00  0.00    +0.000 C 
ATOM     20  C   UNL     1       5.105   4.769  17.975  0.00  0.00    +0.000 C 
ENDBRANCH   5   8
BRANCH   7  21
ATOM     21  O   UNL     1       2.381   8.993  18.463  0.00  0.00    +0.000 OA
BRANCH  21  22
ATOM     22  C   UNL     1       1.244   9.805  18.181  0.00  0.00    +0.000 C 
BRANCH  22  23
ATOM     23  C   UNL     1       1.531  11.256  18.590  0.00  0.00    +0.000 C 
BRANCH  23  24
ATOM     24  N   UNL     1       2.337  11.973  17.600  0.00  0.00    +0.000 NA
ATOM     25  H   UNL     1       3.168  11.410  17.404  0.00  0.00    +0.000 HD
ATOM     26  H   UNL     1       2.672  12.846  18.004  0.00  0.00    +0.000 HD
ENDBRANCH  23  24
ENDBRANCH  22  23
ENDBRANCH  21  22
ENDBRANCH   7  21
TORSDOF 5
ENDMDL
MODEL 5
REMARK VINA RESULT:      -6.9      2.773      4.674
REMARK  Name = 
REMARK  6 active torsions:
REMARK  status: ('A' for Active; 'I' for Inactive)
REMARK    1  A    between atoms: C_1  and  C_2
REMARK    2  A    between atoms: C_5  and  C_6
REMARK    3  A    between atoms: C_20  and  O_21
REMARK    4  A    between atoms: O_21  and  C_22
REMARK    5  A    between atoms: C_22  and  C_23
REMARK    6  A    between atoms: C_23  and  N_24
REMARK                            x       y       z     vdW  Elec       q    Type
REMARK                         _______ _______ _______ _____ _____    ______ ____
ROOT
ATOM      1  C   UNL     1       1.335  10.697  19.507  0.00  0.00    +0.000 C 
ATOM      2  C   UNL     1       1.566   9.237  19.232  0.00  0.00    +0.000 A 
ATOM      3  C   UNL     1       1.996   8.922  17.932  0.00  0.00    +0.000 A 
ATOM      4  C   UNL     1       2.340   7.622  17.581  0.00  0.00    +0.000 A 
ATOM      5  C   UNL     1       2.176   6.574  18.484  0.00  0.00    +0.000 A 
ATOM      6  C   UNL     1       1.770   6.872  19.788  0.00  0.00    +0.000 A 
ATOM      7  C   UNL     1       1.454   8.192  20.169  0.00  0.00    +0.000 A 
ENDROOT
BRANCH   5   8
ATOM      8  C   UNL     1       2.392   5.144  18.090  0.00  0.00    +0.000 C 
ATOM      9  O   UNL     1       1.427   4.473  17.749  0.00  0.00    +0.000 OA
ATOM     10  N   UNL     1       3.691   4.647  18.082  0.00  0.00    +0.000 N 
ATOM     11  C   UNL     1       4.028   3.286  17.747  0.00  0.00    +0.000 C 
ATOM     12  C   UNL     1       5.310   3.416  16.926  0.00  0.00    +0.000 C 
ATOM     13  C   UNL     1       5.944   4.795  17.313  0.00  0.00    +0.000 C 
ATOM     14  C   UNL     1       6.111   5.662  16.036  0.00  0.00    +0.000 C 
ATOM     15  C   UNL     1       6.471   7.140  16.211  0.00  0.00    +0.000 C 
ATOM     16  C   UNL     1       7.718   7.437  17.047  0.00  0.00    +0.000 C 
ATOM     17  C   UNL     1       7.549   7.151  18.533  0.00  0.00    +0.000 C 
ATOM     18  C   UNL     1       7.806   5.704  18.935  0.00  0.00    +0.000 C 
ATOM     19  C   UNL     1       7.309   4.593  18.002  0.00  0.00    +0.000 C 
ATOM     20  C   UNL     1       4.902   5.409  18.251  0.00  0.00    +0.000 C 
ENDBRANCH   5   8
BRANCH   7  21
ATOM     21  O   UNL     1       1.100   8.267  21.489  0.00  0.00    +0.000 OA
BRANCH  21  22
ATOM     22  C   UNL     1      -0.278   8.413  21.825  0.00  0.00    +0.000 C 
BRANCH  22  23
ATOM     23  C   UNL     1      -0.470   9.678  22.673  0.00  0.00    +0.000 C 
BRANCH  23  24
ATOM     24  N   UNL     1       0.387   9.697  23.861  0.00  0.00    +0.000 NA
ATOM     25  H   UNL     1       1.134  10.377  23.698  0.00  0.00    +0.000 HD
ATOM     26  H   UNL     1       0.842   8.793  23.965  0.00  0.00    +0.000 HD
ENDBRANCH  23  24
ENDBRANCH  22  23
ENDBRANCH  21  22
ENDBRANCH   7  21
TORSDOF 5
ENDMDL
MODEL 6
REMARK VINA RESULT:      -6.7      3.025      5.793
REMARK  Name = 
REMARK  6 active torsions:
REMARK  status: ('A' for Active; 'I' for Inactive)
REMARK    1  A    between atoms: C_1  and  C_2
REMARK    2  A    between atoms: C_5  and  C_6
REMARK    3  A    between atoms: C_20  and  O_21
REMARK    4  A    between atoms: O_21  and  C_22
REMARK    5  A    between atoms: C_22  and  C_23
REMARK    6  A    between atoms: C_23  and  N_24
REMARK                            x       y       z     vdW  Elec       q    Type
REMARK                         _______ _______ _______ _____ _____    ______ ____
ROOT
ATOM      1  C   UNL     1       7.444   5.062  14.637  0.00  0.00    +0.000 C 
ATOM      2  C   UNL     1       6.460   5.659  15.604  0.00  0.00    +0.000 A 
ATOM      3  C   UNL     1       5.161   5.126  15.556  0.00  0.00    +0.000 A 
ATOM      4  C   UNL     1       4.185   5.520  16.465  0.00  0.00    +0.000 A 
ATOM      5  C   UNL     1       4.442   6.529  17.391  0.00  0.00    +0.000 A 
ATOM      6  C   UNL     1       5.736   7.055  17.466  0.00  0.00    +0.000 A 
ATOM      7  C   UNL     1       6.745   6.637  16.576  0.00  0.00    +0.000 A 
ENDROOT
BRANCH   5   8
ATOM      8  C   UNL     1       3.370   7.083  18.281  0.00  0.00    +0.000 C 
ATOM      9  O   UNL     1       2.923   8.197  18.042  0.00  0.00    +0.000 OA
ATOM     10  N   UNL     1       2.892   6.288  19.317  0.00  0.00    +0.000 N 
ATOM     11  C   UNL     1       1.883   6.713  20.254  0.00  0.00    +0.000 C 
ATOM     12  C   UNL     1       1.017   5.470  20.451  0.00  0.00    +0.000 C 
ATOM     13  C   UNL     1       1.907   4.244  20.053  0.00  0.00    +0.000 C 
ATOM     14  C   UNL     1       1.207   3.445  18.920  0.00  0.00    +0.000 C 
ATOM     15  C   UNL     1       2.013   2.360  18.201  0.00  0.00    +0.000 C 
ATOM     16  C   UNL     1       2.652   1.292  19.091  0.00  0.00    +0.000 C 
ATOM     17  C   UNL     1       3.814   1.802  19.933  0.00  0.00    +0.000 C 
ATOM     18  C   UNL     1       3.407   2.445  21.253  0.00  0.00    +0.000 C 
ATOM     19  C   UNL     1       2.156   3.333  21.273  0.00  0.00    +0.000 C 
ATOM     20  C   UNL     1       3.193   4.898  19.540  0.00  0.00    +0.000 C 
ENDBRANCH   5   8
BRANCH   7  21
ATOM     21  O   UNL     1       7.937   7.258  16.834  0.00  0.00    +0.000 OA
BRANCH  21  22
ATOM     22  C   UNL     1       8.148   7.835  18.121  0.00  0.00    +0.000 C 
BRANCH  22  23
ATOM     23  C   UNL     1       8.347   9.350  17.980  0.00  0.00    +0.000 C 
BRANCH  23  24
ATOM     24  N   UNL     1       9.094   9.928  19.099  0.00  0.00    +0.000 NA
ATOM     25  H   UNL     1      10.067   9.622  19.018  0.00  0.00    +0.000 HD
ATOM     26  H   UNL     1       8.746   9.542  19.974  0.00  0.00    +0.000 HD
ENDBRANCH  23  24
ENDBRANCH  22  23
ENDBRANCH  21  22
ENDBRANCH   7  21
TORSDOF 5
ENDMDL
MODEL 7
REMARK VINA RESULT:      -6.6      4.833      8.321
REMARK  Name = 
REMARK  6 active torsions:
REMARK  status: ('A' for Active; 'I' for Inactive)
REMARK    1  A    between atoms: C_1  and  C_2
REMARK    2  A    between atoms: C_5  and  C_6
REMARK    3  A    between atoms: C_20  and  O_21
REMARK    4  A    between atoms: O_21  and  C_22
REMARK    5  A    between atoms: C_22  and  C_23
REMARK    6  A    between atoms: C_23  and  N_24
REMARK                            x       y       z     vdW  Elec       q    Type
REMARK                         _______ _______ _______ _____ _____    ______ ____
ROOT
ATOM      1  C   UNL     1       4.070   3.071  10.999  0.00  0.00    +0.000 C 
ATOM      2  C   UNL     1       4.888   3.562  12.161  0.00  0.00    +0.000 A 
ATOM      3  C   UNL     1       4.157   4.032  13.265  0.00  0.00    +0.000 A 
ATOM      4  C   UNL     1       4.792   4.419  14.439  0.00  0.00    +0.000 A 
ATOM      5  C   UNL     1       6.183   4.443  14.521  0.00  0.00    +0.000 A 
ATOM      6  C   UNL     1       6.925   3.959  13.439  0.00  0.00    +0.000 A 
ATOM      7  C   UNL     1       6.292   3.527  12.256  0.00  0.00    +0.000 A 
ENDROOT
BRANCH   5   8
ATOM      8  C   UNL     1       6.899   4.998  15.715  0.00  0.00    +0.000 C 
ATOM      9  O   UNL     1       7.774   5.836  15.542  0.00  0.00    +0.000 OA
ATOM     10  N   UNL     1       6.508   4.572  16.981  0.00  0.00    +0.000 N 
ATOM     11  C   UNL     1       7.133   5.011  18.203  0.00  0.00    +0.000 C 
ATOM     12  C   UNL     1       5.963   5.185  19.171  0.00  0.00    +0.000 C 
ATOM     13  C   UNL     1       4.797   4.296  18.619  0.00  0.00    +0.000 C 
ATOM     14  C   UNL     1       3.547   5.183  18.370  0.00  0.00    +0.000 C 
ATOM     15  C   UNL     1       2.376   4.576  17.592  0.00  0.00    +0.000 C 
ATOM     16  C   UNL     1       1.816   3.259  18.134  0.00  0.00    +0.000 C 
ATOM     17  C   UNL     1       2.748   2.068  17.950  0.00  0.00    +0.000 C 
ATOM     18  C   UNL     1       3.791   1.903  19.048  0.00  0.00    +0.000 C 
ATOM     19  C   UNL     1       4.459   3.164  19.610  0.00  0.00    +0.000 C 
ATOM     20  C   UNL     1       5.357   3.767  17.296  0.00  0.00    +0.000 C 
ENDBRANCH   5   8
BRANCH   7  21
ATOM     21  O   UNL     1       7.197   3.075  11.334  0.00  0.00    +0.000 OA
BRANCH  21  22
ATOM     22  C   UNL     1       7.574   1.700  11.358  0.00  0.00    +0.000 C 
BRANCH  22  23
ATOM     23  C   UNL     1       6.427   0.842  10.807  0.00  0.00    +0.000 C 
BRANCH  23  24
ATOM     24  N   UNL     1       6.223  -0.389  11.575  0.00  0.00    +0.000 NA
ATOM     25  H   UNL     1       7.143  -0.796  11.763  0.00  0.00    +0.000 HD
ATOM     26  H   UNL     1       5.723  -1.066  11.002  0.00  0.00    +0.000 HD
ENDBRANCH  23  24
ENDBRANCH  22  23
ENDBRANCH  21  22
ENDBRANCH   7  21
TORSDOF 5
ENDMDL
MODEL 8
REMARK VINA RESULT:      -6.2      5.630      9.814
REMARK  Name = 
REMARK  6 active torsions:
REMARK  status: ('A' for Active; 'I' for Inactive)
REMARK    1  A    between atoms: C_1  and  C_2
REMARK    2  A    between atoms: C_5  and  C_6
REMARK    3  A    between atoms: C_20  and  O_21
REMARK    4  A    between atoms: O_21  and  C_22
REMARK    5  A    between atoms: C_22  and  C_23
REMARK    6  A    between atoms: C_23  and  N_24
REMARK                            x       y       z     vdW  Elec       q    Type
REMARK                         _______ _______ _______ _____ _____    ______ ____
ROOT
ATOM      1  C   UNL     1       0.041   9.721  18.206  0.00  0.00    +0.000 C 
ATOM      2  C   UNL     1      -0.752  10.669  19.063  0.00  0.00    +0.000 A 
ATOM      3  C   UNL     1      -0.457  10.640  20.436  0.00  0.00    +0.000 A 
ATOM      4  C   UNL     1      -1.047  11.537  21.320  0.00  0.00    +0.000 A 
ATOM      5  C   UNL     1      -2.024  12.428  20.882  0.00  0.00    +0.000 A 
ATOM      6  C   UNL     1      -2.314  12.484  19.515  0.00  0.00    +0.000 A 
ATOM      7  C   UNL     1      -1.695  11.607  18.602  0.00  0.00    +0.000 A 
ENDROOT
BRANCH   5   8
ATOM      8  C   UNL     1      -2.788  13.300  21.833  0.00  0.00    +0.000 C 
ATOM      9  O   UNL     1      -2.182  14.150  22.471  0.00  0.00    +0.000 OA
ATOM     10  N   UNL     1      -4.167  13.139  21.918  0.00  0.00    +0.000 N 
ATOM     11  C   UNL     1      -5.010  13.896  22.808  0.00  0.00    +0.000 C 
ATOM     12  C   UNL     1      -6.260  14.182  21.977  0.00  0.00    +0.000 C 
ATOM     13  C   UNL     1      -6.301  13.093  20.852  0.00  0.00    +0.000 C 
ATOM     14  C   UNL     1      -6.319  13.787  19.464  0.00  0.00    +0.000 C 
ATOM     15  C   UNL     1      -6.100  12.919  18.221  0.00  0.00    +0.000 C 
ATOM     16  C   UNL     1      -7.032  11.716  18.066  0.00  0.00    +0.000 C 
ATOM     17  C   UNL     1      -6.776  10.601  19.071  0.00  0.00    +0.000 C 
ATOM     18  C   UNL     1      -7.476  10.780  20.412  0.00  0.00    +0.000 C 
ATOM     19  C   UNL     1      -7.541  12.190  21.013  0.00  0.00    +0.000 C 
ATOM     20  C   UNL     1      -4.991  12.328  21.058  0.00  0.00    +0.000 C 
ENDBRANCH   5   8
BRANCH   7  21
ATOM     21  O   UNL     1      -2.103  11.843  17.317  0.00  0.00    +0.000 OA
BRANCH  21  22
ATOM     22  C   UNL     1      -3.200  11.097  16.796  0.00  0.00    +0.000 C 
BRANCH  22  23
ATOM     23  C   UNL     1      -2.947  10.773  15.317  0.00  0.00    +0.000 C 
BRANCH  23  24
ATOM     24  N   UNL     1      -4.066  10.063  14.694  0.00  0.00    +0.000 NA
ATOM     25  H   UNL     1      -4.096  10.330  13.707  0.00  0.00    +0.000 HD
ATOM     26  H   UNL     1      -4.941  10.385  15.103  0.00  0.00    +0.000 HD
ENDBRANCH  23  24
ENDBRANCH  22  23
ENDBRANCH  21  22
ENDBRANCH   7  21
TORSDOF 5
ENDMDL
MODEL 9
REMARK VINA RESULT:      -6.1      5.733     10.243
REMARK  Name = 
REMARK  6 active torsions:
REMARK  status: ('A' for Active; 'I' for Inactive)
REMARK    1  A    between atoms: C_1  and  C_2
REMARK    2  A    between atoms: C_5  and  C_6
REMARK    3  A    between atoms: C_20  and  O_21
REMARK    4  A    between atoms: O_21  and  C_22
REMARK    5  A    between atoms: C_22  and  C_23
REMARK    6  A    between atoms: C_23  and  N_24
REMARK                            x       y       z     vdW  Elec       q    Type
REMARK                         _______ _______ _______ _____ _____    ______ ____
ROOT
ATOM      1  C   UNL     1       0.036  10.068  19.941  0.00  0.00    +0.000 C 
ATOM      2  C   UNL     1      -0.878  11.033  20.644  0.00  0.00    +0.000 A 
ATOM      3  C   UNL     1      -0.821  11.014  22.047  0.00  0.00    +0.000 A 
ATOM      4  C   UNL     1      -1.541  11.925  22.811  0.00  0.00    +0.000 A 
ATOM      5  C   UNL     1      -2.417  12.825  22.207  0.00  0.00    +0.000 A 
ATOM      6  C   UNL     1      -2.469  12.872  20.810  0.00  0.00    +0.000 A 
ATOM      7  C   UNL     1      -1.715  11.979  20.022  0.00  0.00    +0.000 A 
ENDROOT
BRANCH   5   8
ATOM      8  C   UNL     1      -3.320  13.715  23.007  0.00  0.00    +0.000 C 
ATOM      9  O   UNL     1      -2.822  14.601  23.688  0.00  0.00    +0.000 OA
ATOM     10  N   UNL     1      -4.695  13.527  22.907  0.00  0.00    +0.000 N 
ATOM     11  C   UNL     1      -5.665  14.299  23.641  0.00  0.00    +0.000 C 
ATOM     12  C   UNL     1      -6.792  14.527  22.634  0.00  0.00    +0.000 C 
ATOM     13  C   UNL     1      -6.658  13.396  21.559  0.00  0.00    +0.000 C 
ATOM     14  C   UNL     1      -6.494  14.038  20.154  0.00  0.00    +0.000 C 
ATOM     15  C   UNL     1      -6.091  13.129  18.990  0.00  0.00    +0.000 C 
ATOM     16  C   UNL     1      -6.973  11.901  18.755  0.00  0.00    +0.000 C 
ATOM     17  C   UNL     1      -6.840  10.830  19.829  0.00  0.00    +0.000 C 
ATOM     18  C   UNL     1      -7.723  11.044  21.052  0.00  0.00    +0.000 C 
ATOM     19  C   UNL     1      -7.894  12.473  21.583  0.00  0.00    +0.000 C 
ATOM     20  C   UNL     1      -5.377  12.668  21.974  0.00  0.00    +0.000 C 
ENDBRANCH   5   8
BRANCH   7  21
ATOM     21  O   UNL     1      -1.896  12.207  18.685  0.00  0.00    +0.000 OA
BRANCH  21  22
ATOM     22  C   UNL     1      -2.929  11.504  17.999  0.00  0.00    +0.000 C 
BRANCH  22  23
ATOM     23  C   UNL     1      -2.315  10.634  16.894  0.00  0.00    +0.000 C 
BRANCH  23  24
ATOM     24  N   UNL     1      -2.596  11.146  15.551  0.00  0.00    +0.000 NA
ATOM     25  H   UNL     1      -3.460  11.692  15.598  0.00  0.00    +0.000 HD
ATOM     26  H   UNL     1      -2.787  10.366  14.924  0.00  0.00    +0.000 HD
ENDBRANCH  23  24
ENDBRANCH  22  23
ENDBRANCH  21  22
ENDBRANCH   7  21
TORSDOF 5
ENDMDL
