MODEL 1
REMARK VINA RESULT:      -7.8      0.000      0.000
REMARK  Name = 
REMARK  8 active torsions:
REMARK  status: ('A' for Active; 'I' for Inactive)
REMARK    1  A    between atoms: C_1  and  C_2
REMARK    2  A    between atoms: C_2  and  C_3
REMARK    3  A    between atoms: C_4  and  O_5
REMARK    4  A    between atoms: C_9  and  C_10
REMARK    5  A    between atoms: C_22  and  C_23
REMARK    6  A    between atoms: C_22  and  C_25
REMARK    7  A    between atoms: C_23  and  C_24
REMARK    8  A    between atoms: C_25  and  C_26
REMARK                            x       y       z     vdW  Elec       q    Type
REMARK                         _______ _______ _______ _____ _____    ______ ____
ROOT
ATOM      1  C   UNL     1      -2.064  12.353  21.450  0.00  0.00    +0.000 C 
ATOM      2  C   UNL     1      -1.137  11.630  22.100  0.00  0.00    +0.000 C 
ATOM      3  C   UNL     1      -0.357  10.562  21.492  0.00  0.00    +0.000 A 
ATOM      4  C   UNL     1      -0.412  10.324  20.163  0.00  0.00    +0.000 A 
ATOM      5  O   UNL     1       0.364   9.337  19.530  0.00  0.00    +0.000 OA
ATOM      6  C   UNL     1       1.278   8.602  20.280  0.00  0.00    +0.000 A 
ATOM      7  C   UNL     1       1.414   8.745  21.600  0.00  0.00    +0.000 A 
ATOM      8  C   UNL     1       0.532   9.675  22.311  0.00  0.00    +0.000 A 
ATOM      9  O   UNL     1       0.554   9.653  23.539  0.00  0.00    +0.000 OA
ATOM     10  C   UNL     1      -1.316  11.141  19.234  0.00  0.00    +0.000 C 
ATOM     11  C   UNL     1      -2.243  12.128  19.986  0.00  0.00    +0.000 C 
ATOM     12  O   UNL     1      -3.103  12.780  19.387  0.00  0.00    +0.000 OA
ENDROOT
BRANCH   6  13
ATOM     13  C   UNL     1       2.094   7.644  19.593  0.00  0.00    +0.000 A 
ATOM     14  C   UNL     1       2.700   7.721  18.340  0.00  0.00    +0.000 A 
ATOM     15  C   UNL     1       3.453   6.533  18.119  0.00  0.00    +0.000 A 
ATOM     16  C   UNL     1       4.293   6.048  17.101  0.00  0.00    +0.000 A 
ATOM     17  C   UNL     1       4.863   4.774  17.241  0.00  0.00    +0.000 A 
ATOM     18  C   UNL     1       4.593   3.988  18.362  0.00  0.00    +0.000 A 
ATOM     19  C   UNL     1       3.764   4.461  19.391  0.00  0.00    +0.000 A 
ATOM     20  C   UNL     1       3.230   5.739  19.232  0.00  0.00    +0.000 A 
ATOM     21  O   UNL     1       2.431   6.398  20.117  0.00  0.00    +0.000 OA
ENDBRANCH   6  13
BRANCH   1  23
ATOM     22  C   UNL     1      -4.184  12.728  22.775  0.00  0.00    +0.000 C 
ATOM     23  C   UNL     1      -2.979  13.365  22.098  0.00  0.00    +0.000 C 
ENDBRANCH   1  23
BRANCH   2  24
ATOM     24  O   UNL     1      -0.828  11.877  23.421  0.00  0.00    +0.000 OA
ATOM     25  H   UNL     1       0.034  12.310  23.505  0.00  0.00    +0.000 HD
ENDBRANCH   2  24
BRANCH  10  26
ATOM     26  C   UNL     1      -0.462  12.009  18.261  0.00  0.00    +0.000 C 
ATOM     27  C   UNL     1       0.632  12.835  18.940  0.00  0.00    +0.000 C 
ENDBRANCH  10  26
BRANCH  10  28
ATOM     28  C   UNL     1      -2.258  10.225  18.391  0.00  0.00    +0.000 C 
ATOM     29  C   UNL     1      -2.112  10.386  16.878  0.00  0.00    +0.000 C 
ENDBRANCH  10  28
TORSDOF 5
ENDMDL
MODEL 2
REMARK VINA RESULT:      -7.7      0.599      1.134
REMARK  Name = 
REMARK  8 active torsions:
REMARK  status: ('A' for Active; 'I' for Inactive)
REMARK    1  A    between atoms: C_1  and  C_2
REMARK    2  A    between atoms: C_2  and  C_3
REMARK    3  A    between atoms: C_4  and  O_5
REMARK    4  A    between atoms: C_9  and  C_10
REMARK    5  A    between atoms: C_22  and  C_23
REMARK    6  A    between atoms: C_22  and  C_25
REMARK    7  A    between atoms: C_23  and  C_24
REMARK    8  A    between atoms: C_25  and  C_26
REMARK                            x       y       z     vdW  Elec       q    Type
REMARK                         _______ _______ _______ _____ _____    ______ ____
ROOT
ATOM      1  C   UNL     1      -2.027  12.310  21.460  0.00  0.00    +0.000 C 
ATOM      2  C   UNL     1      -1.093  11.585  22.100  0.00  0.00    +0.000 C 
ATOM      3  C   UNL     1      -0.318  10.519  21.482  0.00  0.00    +0.000 A 
ATOM      4  C   UNL     1      -0.385  10.284  20.153  0.00  0.00    +0.000 A 
ATOM      5  O   UNL     1       0.386   9.299  19.511  0.00  0.00    +0.000 OA
ATOM      6  C   UNL     1       1.306   8.563  20.252  0.00  0.00    +0.000 A 
ATOM      7  C   UNL     1       1.454   8.702  21.570  0.00  0.00    +0.000 A 
ATOM      8  C   UNL     1       0.578   9.630  22.292  0.00  0.00    +0.000 A 
ATOM      9  O   UNL     1       0.610   9.605  23.519  0.00  0.00    +0.000 OA
ATOM     10  C   UNL     1      -1.297  11.104  19.234  0.00  0.00    +0.000 C 
ATOM     11  C   UNL     1      -2.218  12.088  19.997  0.00  0.00    +0.000 C 
ATOM     12  O   UNL     1      -3.084  12.741  19.406  0.00  0.00    +0.000 OA
ENDROOT
BRANCH   6  13
ATOM     13  C   UNL     1       2.117   7.607  19.555  0.00  0.00    +0.000 A 
ATOM     14  C   UNL     1       2.343   6.259  19.825  0.00  0.00    +0.000 A 
ATOM     15  C   UNL     1       3.186   5.721  18.812  0.00  0.00    +0.000 A 
ATOM     16  C   UNL     1       3.717   4.454  18.513  0.00  0.00    +0.000 A 
ATOM     17  C   UNL     1       4.552   4.315  17.394  0.00  0.00    +0.000 A 
ATOM     18  C   UNL     1       4.868   5.415  16.596  0.00  0.00    +0.000 A 
ATOM     19  C   UNL     1       4.339   6.684  16.876  0.00  0.00    +0.000 A 
ATOM     20  C   UNL     1       3.496   6.785  17.982  0.00  0.00    +0.000 A 
ATOM     21  O   UNL     1       2.854   7.908  18.411  0.00  0.00    +0.000 OA
ENDBRANCH   6  13
BRANCH   1  23
ATOM     22  C   UNL     1      -4.168  12.687  22.749  0.00  0.00    +0.000 C 
ATOM     23  C   UNL     1      -2.937  13.320  22.118  0.00  0.00    +0.000 C 
ENDBRANCH   1  23
BRANCH   2  24
ATOM     24  O   UNL     1      -0.774  11.829  23.419  0.00  0.00    +0.000 OA
ATOM     25  H   UNL     1      -1.018  11.082  23.983  0.00  0.00    +0.000 HD
ENDBRANCH   2  24
BRANCH  10  26
ATOM     26  C   UNL     1      -0.451  11.974  18.256  0.00  0.00    +0.000 C 
ATOM     27  C   UNL     1       0.462  12.992  18.940  0.00  0.00    +0.000 C 
ENDBRANCH  10  26
BRANCH  10  28
ATOM     28  C   UNL     1      -2.246  10.190  18.397  0.00  0.00    +0.000 C 
ATOM     29  C   UNL     1      -1.935  10.153  16.901  0.00  0.00    +0.000 C 
ENDBRANCH  10  28
TORSDOF 5
ENDMDL
MODEL 3
REMARK VINA RESULT:      -7.4      0.981      1.144
REMARK  Name = 
REMARK  8 active torsions:
REMARK  status: ('A' for Active; 'I' for Inactive)
REMARK    1  A    between atoms: C_1  and  C_2
REMARK    2  A    between atoms: C_2  and  C_3
REMARK    3  A    between atoms: C_4  and  O_5
REMARK    4  A    between atoms: C_9  and  C_10
REMARK    5  A    between atoms: C_22  and  C_23
REMARK    6  A    between atoms: C_22  and  C_25
REMARK    7  A    between atoms: C_23  and  C_24
REMARK    8  A    between atoms: C_25  and  C_26
REMARK                            x       y       z     vdW  Elec       q    Type
REMARK                         _______ _______ _______ _____ _____    ______ ____
ROOT
ATOM      1  C   UNL     1      -1.399  12.293  21.577  0.00  0.00    +0.000 C 
ATOM      2  C   UNL     1      -0.793  11.192  22.054  0.00  0.00    +0.000 C 
ATOM      3  C   UNL     1      -0.053  10.245  21.233  0.00  0.00    +0.000 A 
ATOM      4  C   UNL     1       0.206  10.498  19.931  0.00  0.00    +0.000 A 
ATOM      5  O   UNL     1       0.962   9.634  19.119  0.00  0.00    +0.000 OA
ATOM      6  C   UNL     1       1.525   8.491  19.679  0.00  0.00    +0.000 A 
ATOM      7  C   UNL     1       1.333   8.136  20.950  0.00  0.00    +0.000 A 
ATOM      8  C   UNL     1       0.447   8.946  21.792  0.00  0.00    +0.000 A 
ATOM      9  O   UNL     1       0.144   8.500  22.894  0.00  0.00    +0.000 OA
ATOM     10  C   UNL     1      -0.290  11.775  19.244  0.00  0.00    +0.000 C 
ATOM     11  C   UNL     1      -1.222  12.634  20.135  0.00  0.00    +0.000 C 
ATOM     12  O   UNL     1      -1.787  13.637  19.690  0.00  0.00    +0.000 OA
ENDROOT
BRANCH   6  13
ATOM     13  C   UNL     1       2.338   7.663  18.837  0.00  0.00    +0.000 A 
ATOM     14  C   UNL     1       3.253   8.018  17.847  0.00  0.00    +0.000 A 
ATOM     15  C   UNL     1       3.849   6.836  17.325  0.00  0.00    +0.000 A 
ATOM     16  C   UNL     1       4.841   6.545  16.372  0.00  0.00    +0.000 A 
ATOM     17  C   UNL     1       5.158   5.204  16.109  0.00  0.00    +0.000 A 
ATOM     18  C   UNL     1       4.492   4.169  16.767  0.00  0.00    +0.000 A 
ATOM     19  C   UNL     1       3.506   4.443  17.727  0.00  0.00    +0.000 A 
ATOM     20  C   UNL     1       3.229   5.786  17.981  0.00  0.00    +0.000 A 
ATOM     21  O   UNL     1       2.337   6.271  18.889  0.00  0.00    +0.000 OA
ENDBRANCH   6  13
BRANCH   1  23
ATOM     22  C   UNL     1      -3.702  12.672  22.546  0.00  0.00    +0.000 C 
ATOM     23  C   UNL     1      -2.287  13.208  22.386  0.00  0.00    +0.000 C 
ENDBRANCH   1  23
BRANCH   2  24
ATOM     24  O   UNL     1      -0.806  10.889  23.399  0.00  0.00    +0.000 OA
ATOM     25  H   UNL     1      -1.206  10.023  23.560  0.00  0.00    +0.000 HD
ENDBRANCH   2  24
BRANCH  10  26
ATOM     26  C   UNL     1       0.909  12.694  18.862  0.00  0.00    +0.000 C 
ATOM     27  C   UNL     1       1.848  13.027  20.023  0.00  0.00    +0.000 C 
ENDBRANCH  10  26
BRANCH  10  28
ATOM     28  C   UNL     1      -1.107  11.457  17.952  0.00  0.00    +0.000 C 
ATOM     29  C   UNL     1      -2.261  10.475  18.157  0.00  0.00    +0.000 C 
ENDBRANCH  10  28
TORSDOF 5
ENDMDL
MODEL 4
REMARK VINA RESULT:      -7.2      1.250      1.560
REMARK  Name = 
REMARK  8 active torsions:
REMARK  status: ('A' for Active; 'I' for Inactive)
REMARK    1  A    between atoms: C_1  and  C_2
REMARK    2  A    between atoms: C_2  and  C_3
REMARK    3  A    between atoms: C_4  and  O_5
REMARK    4  A    between atoms: C_9  and  C_10
REMARK    5  A    between atoms: C_22  and  C_23
REMARK    6  A    between atoms: C_22  and  C_25
REMARK    7  A    between atoms: C_23  and  C_24
REMARK    8  A    between atoms: C_25  and  C_26
REMARK                            x       y       z     vdW  Elec       q    Type
REMARK                         _______ _______ _______ _____ _____    ______ ____
ROOT
ATOM      1  C   UNL     1      -0.838  12.965  20.770  0.00  0.00    +0.000 C 
ATOM      2  C   UNL     1      -0.443  12.062  21.683  0.00  0.00    +0.000 C 
ATOM      3  C   UNL     1       0.101  10.751  21.357  0.00  0.00    +0.000 A 
ATOM      4  C   UNL     1       0.389  10.410  20.081  0.00  0.00    +0.000 A 
ATOM      5  O   UNL     1       0.963   9.175  19.731  0.00  0.00    +0.000 OA
ATOM      6  C   UNL     1       1.311   8.276  20.735  0.00  0.00    +0.000 A 
ATOM      7  C   UNL     1       1.069   8.501  22.027  0.00  0.00    +0.000 A 
ATOM      8  C   UNL     1       0.357   9.723  22.417  0.00  0.00    +0.000 A 
ATOM      9  O   UNL     1      -0.012   9.818  23.584  0.00  0.00    +0.000 OA
ATOM     10  C   UNL     1       0.131  11.367  18.913  0.00  0.00    +0.000 C 
ATOM     11  C   UNL     1      -0.616  12.660  19.326  0.00  0.00    +0.000 C 
ATOM     12  O   UNL     1      -0.990  13.480  18.483  0.00  0.00    +0.000 OA
ENDROOT
BRANCH   6  13
ATOM     13  C   UNL     1       1.948   7.051  20.346  0.00  0.00    +0.000 A 
ATOM     14  C   UNL     1       2.870   6.805  19.331  0.00  0.00    +0.000 A 
ATOM     15  C   UNL     1       3.248   5.433  19.374  0.00  0.00    +0.000 A 
ATOM     16  C   UNL     1       4.144   4.614  18.665  0.00  0.00    +0.000 A 
ATOM     17  C   UNL     1       4.230   3.254  19.000  0.00  0.00    +0.000 A 
ATOM     18  C   UNL     1       3.430   2.713  20.008  0.00  0.00    +0.000 A 
ATOM     19  C   UNL     1       2.537   3.520  20.730  0.00  0.00    +0.000 A 
ATOM     20  C   UNL     1       2.491   4.871  20.387  0.00  0.00    +0.000 A 
ATOM     21  O   UNL     1       1.723   5.829  20.977  0.00  0.00    +0.000 OA
ENDBRANCH   6  13
BRANCH   1  23
ATOM     22  C   UNL     1      -3.034  14.107  21.280  0.00  0.00    +0.000 C 
ATOM     23  C   UNL     1      -1.534  14.267  21.089  0.00  0.00    +0.000 C 
ENDBRANCH   1  23
BRANCH   2  24
ATOM     24  O   UNL     1      -0.497  12.334  23.033  0.00  0.00    +0.000 OA
ATOM     25  H   UNL     1      -0.523  13.287  23.199  0.00  0.00    +0.000 HD
ENDBRANCH   2  24
BRANCH  10  26
ATOM     26  C   UNL     1       1.476  11.831  18.276  0.00  0.00    +0.000 C 
ATOM     27  C   UNL     1       2.256  12.848  19.111  0.00  0.00    +0.000 C 
ENDBRANCH  10  26
BRANCH  10  28
ATOM     28  C   UNL     1      -0.744  10.703  17.803  0.00  0.00    +0.000 C 
ATOM     29  C   UNL     1      -2.132  10.264  18.268  0.00  0.00    +0.000 C 
ENDBRANCH  10  28
TORSDOF 5
ENDMDL
MODEL 5
REMARK VINA RESULT:      -7.2      1.318      1.856
REMARK  Name = 
REMARK  8 active torsions:
REMARK  status: ('A' for Active; 'I' for Inactive)
REMARK    1  A    between atoms: C_1  and  C_2
REMARK    2  A    between atoms: C_2  and  C_3
REMARK    3  A    between atoms: C_4  and  O_5
REMARK    4  A    between atoms: C_9  and  C_10
REMARK    5  A    between atoms: C_22  and  C_23
REMARK    6  A    between atoms: C_22  and  C_25
REMARK    7  A    between atoms: C_23  and  C_24
REMARK    8  A    between atoms: C_25  and  C_26
REMARK                            x       y       z     vdW  Elec       q    Type
REMARK                         _______ _______ _______ _____ _____    ______ ____
ROOT
ATOM      1  C   UNL     1      -0.864  12.955  20.884  0.00  0.00    +0.000 C 
ATOM      2  C   UNL     1      -0.442  12.027  21.759  0.00  0.00    +0.000 C 
ATOM      3  C   UNL     1       0.107  10.733  21.380  0.00  0.00    +0.000 A 
ATOM      4  C   UNL     1       0.372  10.436  20.089  0.00  0.00    +0.000 A 
ATOM      5  O   UNL     1       0.950   9.218  19.687  0.00  0.00    +0.000 OA
ATOM      6  C   UNL     1       1.326   8.290  20.654  0.00  0.00    +0.000 A 
ATOM      7  C   UNL     1       1.108   8.472  21.958  0.00  0.00    +0.000 A 
ATOM      8  C   UNL     1       0.393   9.673  22.401  0.00  0.00    +0.000 A 
ATOM      9  O   UNL     1       0.046   9.727  23.577  0.00  0.00    +0.000 OA
ATOM     10  C   UNL     1       0.083  11.428  18.957  0.00  0.00    +0.000 C 
ATOM     11  C   UNL     1      -0.667  12.699  19.427  0.00  0.00    +0.000 C 
ATOM     12  O   UNL     1      -1.065  13.542  18.618  0.00  0.00    +0.000 OA
ENDROOT
BRANCH   6  13
ATOM     13  C   UNL     1       1.966   7.085  20.214  0.00  0.00    +0.000 A 
ATOM     14  C   UNL     1       1.913   5.798  20.745  0.00  0.00    +0.000 A 
ATOM     15  C   UNL     1       2.680   4.927  19.921  0.00  0.00    +0.000 A 
ATOM     16  C   UNL     1       2.967   3.550  19.905  0.00  0.00    +0.000 A 
ATOM     17  C   UNL     1       3.808   3.045  18.902  0.00  0.00    +0.000 A 
ATOM     18  C   UNL     1       4.368   3.890  17.943  0.00  0.00    +0.000 A 
ATOM     19  C   UNL     1       4.083   5.264  17.941  0.00  0.00    +0.000 A 
ATOM     20  C   UNL     1       3.227   5.732  18.937  0.00  0.00    +0.000 A 
ATOM     21  O   UNL     1       2.798   7.015  19.098  0.00  0.00    +0.000 OA
ENDBRANCH   6  13
BRANCH   1  23
ATOM     22  C   UNL     1      -0.600  15.383  21.534  0.00  0.00    +0.000 C 
ATOM     23  C   UNL     1      -1.564  14.239  21.259  0.00  0.00    +0.000 C 
ENDBRANCH   1  23
BRANCH   2  24
ATOM     24  O   UNL     1      -0.473  12.254  23.119  0.00  0.00    +0.000 OA
ATOM     25  H   UNL     1      -1.382  12.316  23.444  0.00  0.00    +0.000 HD
ENDBRANCH   2  24
BRANCH  10  26
ATOM     26  C   UNL     1       1.411  11.925  18.310  0.00  0.00    +0.000 C 
ATOM     27  C   UNL     1       2.228  12.874  19.187  0.00  0.00    +0.000 C 
ENDBRANCH  10  26
BRANCH  10  28
ATOM     28  C   UNL     1      -0.808  10.791  17.844  0.00  0.00    +0.000 C 
ATOM     29  C   UNL     1      -2.179  10.315  18.324  0.00  0.00    +0.000 C 
ENDBRANCH  10  28
TORSDOF 5
ENDMDL
MODEL 6
REMARK VINA RESULT:      -7.0      1.810      8.164
REMARK  Name = 
REMARK  8 active torsions:
REMARK  status: ('A' for Active; 'I' for Inactive)
REMARK    1  A    between atoms: C_1  and  C_2
REMARK    2  A    between atoms: C_2  and  C_3
REMARK    3  A    between atoms: C_4  and  O_5
REMARK    4  A    between atoms: C_9  and  C_10
REMARK    5  A    between atoms: C_22  and  C_23
REMARK    6  A    between atoms: C_22  and  C_25
REMARK    7  A    between atoms: C_23  and  C_24
REMARK    8  A    between atoms: C_25  and  C_26
REMARK                            x       y       z     vdW  Elec       q    Type
REMARK                         _______ _______ _______ _____ _____    ______ ____
ROOT
ATOM      1  C   UNL     1       1.530   8.834  19.546  0.00  0.00    +0.000 C 
ATOM      2  C   UNL     1       1.103   8.918  20.817  0.00  0.00    +0.000 C 
ATOM      3  C   UNL     1       0.156   9.913  21.300  0.00  0.00    +0.000 A 
ATOM      4  C   UNL     1      -0.483  10.743  20.446  0.00  0.00    +0.000 A 
ATOM      5  O   UNL     1      -1.442  11.682  20.866  0.00  0.00    +0.000 OA
ATOM      6  C   UNL     1      -1.804  11.733  22.209  0.00  0.00    +0.000 A 
ATOM      7  C   UNL     1      -1.236  10.968  23.142  0.00  0.00    +0.000 A 
ATOM      8  C   UNL     1      -0.144  10.067  22.760  0.00  0.00    +0.000 A 
ATOM      9  O   UNL     1       0.478   9.513  23.662  0.00  0.00    +0.000 OA
ATOM     10  C   UNL     1      -0.224  10.702  18.936  0.00  0.00    +0.000 C 
ATOM     11  C   UNL     1       0.926   9.747  18.532  0.00  0.00    +0.000 C 
ATOM     12  O   UNL     1       1.325   9.683  17.365  0.00  0.00    +0.000 OA
ENDROOT
BRANCH   6  13
ATOM     13  C   UNL     1      -2.827  12.662  22.593  0.00  0.00    +0.000 A 
ATOM     14  C   UNL     1      -2.799  14.055  22.638  0.00  0.00    +0.000 A 
ATOM     15  C   UNL     1      -4.081  14.528  23.036  0.00  0.00    +0.000 A 
ATOM     16  C   UNL     1      -4.677  15.789  23.216  0.00  0.00    +0.000 A 
ATOM     17  C   UNL     1      -6.010  15.854  23.649  0.00  0.00    +0.000 A 
ATOM     18  C   UNL     1      -6.734  14.690  23.914  0.00  0.00    +0.000 A 
ATOM     19  C   UNL     1      -6.156  13.425  23.730  0.00  0.00    +0.000 A 
ATOM     20  C   UNL     1      -4.837  13.394  23.279  0.00  0.00    +0.000 A 
ATOM     21  O   UNL     1      -4.101  12.280  23.007  0.00  0.00    +0.000 OA
ENDBRANCH   6  13
BRANCH   1  23
ATOM     22  C   UNL     1       2.086   6.529  18.670  0.00  0.00    +0.000 C 
ATOM     23  C   UNL     1       2.614   7.902  19.060  0.00  0.00    +0.000 C 
ENDBRANCH   1  23
BRANCH   2  24
ATOM     24  O   UNL     1       1.520   8.020  21.777  0.00  0.00    +0.000 OA
ATOM     25  H   UNL     1       1.008   8.114  22.593  0.00  0.00    +0.000 HD
ENDBRANCH   2  24
BRANCH  10  26
ATOM     26  C   UNL     1      -1.489  10.201  18.176  0.00  0.00    +0.000 C 
ATOM     27  C   UNL     1      -2.196  11.271  17.344  0.00  0.00    +0.000 C 
ENDBRANCH  10  26
BRANCH  10  28
ATOM     28  C   UNL     1       0.170  12.107  18.379  0.00  0.00    +0.000 C 
ATOM     29  C   UNL     1       1.399  12.730  19.040  0.00  0.00    +0.000 C 
ENDBRANCH  10  28
TORSDOF 5
ENDMDL
MODEL 7
REMARK VINA RESULT:      -6.9      1.503      1.882
REMARK  Name = 
REMARK  8 active torsions:
REMARK  status: ('A' for Active; 'I' for Inactive)
REMARK    1  A    between atoms: C_1  and  C_2
REMARK    2  A    between atoms: C_2  and  C_3
REMARK    3  A    between atoms: C_4  and  O_5
REMARK    4  A    between atoms: C_9  and  C_10
REMARK    5  A    between atoms: C_22  and  C_23
REMARK    6  A    between atoms: C_22  and  C_25
REMARK    7  A    between atoms: C_23  and  C_24
REMARK    8  A    between atoms: C_25  and  C_26
REMARK                            x       y       z     vdW  Elec       q    Type
REMARK                         _______ _______ _______ _____ _____    ______ ____
ROOT
ATOM      1  C   UNL     1      -0.885  14.083  21.527  0.00  0.00    +0.000 C 
ATOM      2  C   UNL     1      -0.760  12.939  22.220  0.00  0.00    +0.000 C 
ATOM      3  C   UNL     1      -0.236  11.699  21.667  0.00  0.00    +0.000 A 
ATOM      4  C   UNL     1       0.312  11.659  20.431  0.00  0.00    +0.000 A 
ATOM      5  O   UNL     1       0.875  10.494  19.882  0.00  0.00    +0.000 OA
ATOM      6  C   UNL     1       0.933   9.336  20.651  0.00  0.00    +0.000 A 
ATOM      7  C   UNL     1       0.420   9.255  21.880  0.00  0.00    +0.000 A 
ATOM      8  C   UNL     1      -0.287  10.413  22.436  0.00  0.00    +0.000 A 
ATOM      9  O   UNL     1      -0.904  10.253  23.485  0.00  0.00    +0.000 OA
ATOM     10  C   UNL     1       0.382  12.904  19.540  0.00  0.00    +0.000 C 
ATOM     11  C   UNL     1      -0.361  14.129  20.131  0.00  0.00    +0.000 C 
ATOM     12  O   UNL     1      -0.485  15.173  19.485  0.00  0.00    +0.000 OA
ENDROOT
BRANCH   6  13
ATOM     13  C   UNL     1       1.567   8.183  20.081  0.00  0.00    +0.000 A 
ATOM     14  C   UNL     1       2.178   8.021  18.839  0.00  0.00    +0.000 A 
ATOM     15  C   UNL     1       2.708   6.702  18.755  0.00  0.00    +0.000 A 
ATOM     16  C   UNL     1       3.449   5.974  17.808  0.00  0.00    +0.000 A 
ATOM     17  C   UNL     1       3.784   4.640  18.088  0.00  0.00    +0.000 A 
ATOM     18  C   UNL     1       3.378   4.035  19.278  0.00  0.00    +0.000 A 
ATOM     19  C   UNL     1       2.645   4.751  20.237  0.00  0.00    +0.000 A 
ATOM     20  C   UNL     1       2.346   6.080  19.938  0.00  0.00    +0.000 A 
ATOM     21  O   UNL     1       1.677   6.959  20.736  0.00  0.00    +0.000 OA
ENDBRANCH   6  13
BRANCH   1  23
ATOM     22  C   UNL     1      -3.069  15.302  21.892  0.00  0.00    +0.000 C 
ATOM     23  C   UNL     1      -1.555  15.335  22.041  0.00  0.00    +0.000 C 
ENDBRANCH   1  23
BRANCH   2  24
ATOM     24  O   UNL     1      -1.102  12.865  23.554  0.00  0.00    +0.000 OA
ATOM     25  H   UNL     1      -1.358  11.965  23.802  0.00  0.00    +0.000 HD
ENDBRANCH   2  24
BRANCH  10  26
ATOM     26  C   UNL     1       1.861  13.352  19.339  0.00  0.00    +0.000 C 
ATOM     27  C   UNL     1       2.448  13.008  17.970  0.00  0.00    +0.000 C 
ENDBRANCH  10  26
BRANCH  10  28
ATOM     28  C   UNL     1      -0.259  12.649  18.140  0.00  0.00    +0.000 C 
ATOM     29  C   UNL     1      -1.665  12.053  18.184  0.00  0.00    +0.000 C 
ENDBRANCH  10  28
TORSDOF 5
ENDMDL
MODEL 8
REMARK VINA RESULT:      -6.9      4.856      8.855
REMARK  Name = 
REMARK  8 active torsions:
REMARK  status: ('A' for Active; 'I' for Inactive)
REMARK    1  A    between atoms: C_1  and  C_2
REMARK    2  A    between atoms: C_2  and  C_3
REMARK    3  A    between atoms: C_4  and  O_5
REMARK    4  A    between atoms: C_9  and  C_10
REMARK    5  A    between atoms: C_22  and  C_23
REMARK    6  A    between atoms: C_22  and  C_25
REMARK    7  A    between atoms: C_23  and  C_24
REMARK    8  A    between atoms: C_25  and  C_26
REMARK                            x       y       z     vdW  Elec       q    Type
REMARK                         _______ _______ _______ _____ _____    ______ ____
ROOT
ATOM      1  C   UNL     1       3.399   4.060  17.130  0.00  0.00    +0.000 C 
ATOM      2  C   UNL     1       4.725   4.142  16.933  0.00  0.00    +0.000 C 
ATOM      3  C   UNL     1       5.506   5.358  17.108  0.00  0.00    +0.000 A 
ATOM      4  C   UNL     1       4.956   6.473  17.638  0.00  0.00    +0.000 A 
ATOM      5  O   UNL     1       5.689   7.651  17.871  0.00  0.00    +0.000 OA
ATOM      6  C   UNL     1       7.055   7.668  17.605  0.00  0.00    +0.000 A 
ATOM      7  C   UNL     1       7.704   6.629  17.076  0.00  0.00    +0.000 A 
ATOM      8  C   UNL     1       6.948   5.430  16.703  0.00  0.00    +0.000 A 
ATOM      9  O   UNL     1       7.533   4.567  16.054  0.00  0.00    +0.000 OA
ATOM     10  C   UNL     1       3.482   6.527  18.052  0.00  0.00    +0.000 C 
ATOM     11  C   UNL     1       2.684   5.257  17.662  0.00  0.00    +0.000 C 
ATOM     12  O   UNL     1       1.463   5.192  17.832  0.00  0.00    +0.000 OA
ENDROOT
BRANCH   6  13
ATOM     13  C   UNL     1       7.782   8.866  17.910  0.00  0.00    +0.000 A 
ATOM     14  C   UNL     1       8.868   9.062  18.762  0.00  0.00    +0.000 A 
ATOM     15  C   UNL     1       9.272  10.424  18.687  0.00  0.00    +0.000 A 
ATOM     16  C   UNL     1      10.296  11.203  19.254  0.00  0.00    +0.000 A 
ATOM     17  C   UNL     1      10.364  12.568  18.940  0.00  0.00    +0.000 A 
ATOM     18  C   UNL     1       9.423  13.156  18.093  0.00  0.00    +0.000 A 
ATOM     19  C   UNL     1       8.400  12.390  17.512  0.00  0.00    +0.000 A 
ATOM     20  C   UNL     1       8.373  11.032  17.827  0.00  0.00    +0.000 A 
ATOM     21  O   UNL     1       7.490  10.109  17.352  0.00  0.00    +0.000 OA
ENDBRANCH   6  13
BRANCH   1  23
ATOM     22  C   UNL     1       2.416   1.899  17.999  0.00  0.00    +0.000 C 
ATOM     23  C   UNL     1       2.553   2.848  16.818  0.00  0.00    +0.000 C 
ENDBRANCH   1  23
BRANCH   2  24
ATOM     24  O   UNL     1       5.468   3.038  16.570  0.00  0.00    +0.000 OA
ATOM     25  H   UNL     1       5.287   2.286  17.152  0.00  0.00    +0.000 HD
ENDBRANCH   2  24
BRANCH  10  26
ATOM     26  C   UNL     1       3.350   6.660  19.599  0.00  0.00    +0.000 C 
ATOM     27  C   UNL     1       2.952   5.370  20.316  0.00  0.00    +0.000 C 
ENDBRANCH  10  26
BRANCH  10  28
ATOM     28  C   UNL     1       2.736   7.724  17.382  0.00  0.00    +0.000 C 
ATOM     29  C   UNL     1       2.047   8.672  18.363  0.00  0.00    +0.000 C 
ENDBRANCH  10  28
TORSDOF 5
ENDMDL
MODEL 9
REMARK VINA RESULT:      -6.8      1.832      8.197
REMARK  Name = 
REMARK  8 active torsions:
REMARK  status: ('A' for Active; 'I' for Inactive)
REMARK    1  A    between atoms: C_1  and  C_2
REMARK    2  A    between atoms: C_2  and  C_3
REMARK    3  A    between atoms: C_4  and  O_5
REMARK    4  A    between atoms: C_9  and  C_10
REMARK    5  A    between atoms: C_22  and  C_23
REMARK    6  A    between atoms: C_22  and  C_25
REMARK    7  A    between atoms: C_23  and  C_24
REMARK    8  A    between atoms: C_25  and  C_26
REMARK                            x       y       z     vdW  Elec       q    Type
REMARK                         _______ _______ _______ _____ _____    ______ ____
ROOT
ATOM      1  C   UNL     1       1.540   8.745  19.555  0.00  0.00    +0.000 C 
ATOM      2  C   UNL     1       1.114   8.841  20.825  0.00  0.00    +0.000 C 
ATOM      3  C   UNL     1       0.202   9.868  21.308  0.00  0.00    +0.000 A 
ATOM      4  C   UNL     1      -0.407  10.721  20.455  0.00  0.00    +0.000 A 
ATOM      5  O   UNL     1      -1.333  11.692  20.876  0.00  0.00    +0.000 OA
ATOM      6  C   UNL     1      -1.695  11.752  22.218  0.00  0.00    +0.000 A 
ATOM      7  C   UNL     1      -1.156  10.966  23.151  0.00  0.00    +0.000 A 
ATOM      8  C   UNL     1      -0.095  10.029  22.769  0.00  0.00    +0.000 A 
ATOM      9  O   UNL     1       0.507   9.452  23.670  0.00  0.00    +0.000 OA
ATOM     10  C   UNL     1      -0.147  10.674  18.946  0.00  0.00    +0.000 C 
ATOM     11  C   UNL     1       0.970   9.680  18.541  0.00  0.00    +0.000 C 
ATOM     12  O   UNL     1       1.368   9.605  17.375  0.00  0.00    +0.000 OA
ENDROOT
BRANCH   6  13
ATOM     13  C   UNL     1      -2.686  12.715  22.602  0.00  0.00    +0.000 A 
ATOM     14  C   UNL     1      -4.033  12.800  22.257  0.00  0.00    +0.000 A 
ATOM     15  C   UNL     1      -4.614  13.909  22.934  0.00  0.00    +0.000 A 
ATOM     16  C   UNL     1      -5.900  14.469  23.029  0.00  0.00    +0.000 A 
ATOM     17  C   UNL     1      -6.084  15.617  23.814  0.00  0.00    +0.000 A 
ATOM     18  C   UNL     1      -5.010  16.209  24.480  0.00  0.00    +0.000 A 
ATOM     19  C   UNL     1      -3.722  15.656  24.403  0.00  0.00    +0.000 A 
ATOM     20  C   UNL     1      -3.576  14.503  23.632  0.00  0.00    +0.000 A 
ATOM     21  O   UNL     1      -2.428  13.793  23.448  0.00  0.00    +0.000 OA
ENDBRANCH   6  13
BRANCH   1  23
ATOM     22  C   UNL     1       2.017   6.428  18.663  0.00  0.00    +0.000 C 
ATOM     23  C   UNL     1       2.593   7.777  19.068  0.00  0.00    +0.000 C 
ENDBRANCH   1  23
BRANCH   2  24
ATOM     24  O   UNL     1       1.499   7.927  21.784  0.00  0.00    +0.000 OA
ATOM     25  H   UNL     1       2.412   8.080  22.068  0.00  0.00    +0.000 HD
ENDBRANCH   2  24
BRANCH  10  26
ATOM     26  C   UNL     1      -1.427  10.218  18.183  0.00  0.00    +0.000 C 
ATOM     27  C   UNL     1      -2.146  11.334  17.424  0.00  0.00    +0.000 C 
ENDBRANCH  10  26
BRANCH  10  28
ATOM     28  C   UNL     1       0.296  12.065  18.392  0.00  0.00    +0.000 C 
ATOM     29  C   UNL     1       1.552  12.639  19.048  0.00  0.00    +0.000 C 
ENDBRANCH  10  28
TORSDOF 5
ENDMDL
