MODEL 1
REMARK VINA RESULT:      -7.3      0.000      0.000
REMARK  Name = 
REMARK  14 active torsions:
REMARK  status: ('A' for Active; 'I' for Inactive)
REMARK    1  A    between atoms: C_1  and  O_2
REMARK    2  A    between atoms: O_2  and  C_3
REMARK    3  A    between atoms: C_6  and  N_7
REMARK    4  A    between atoms: N_7  and  C_8
REMARK    5  A    between atoms: N_7  and  C_15
REMARK    6  A    between atoms: C_8  and  C_9
REMARK    7  A    between atoms: C_15  and  N_17
REMARK    8  A    between atoms: N_17  and  C_18
REMARK    9  A    between atoms: C_18  and  C_19
REMARK   10  A    between atoms: C_19  and  C_20
REMARK   11  A    between atoms: C_20  and  N_21
REMARK   12  A    between atoms: C_25  and  C_26
REMARK   13  A    between atoms: C_28  and  O_29
REMARK   14  A    between atoms: O_29  and  C_30
REMARK                            x       y       z     vdW  Elec       q    Type
REMARK                         _______ _______ _______ _____ _____    ______ ____
ROOT
ATOM      1  N   UNL     1       3.055   5.779  17.965  0.00  0.00    +0.000 N 
ENDROOT
BRANCH   1   5
ATOM      2  C   UNL     1       6.667   5.138  15.705  0.00  0.00    +0.000 A 
ATOM      3  C   UNL     1       5.608   4.249  15.589  0.00  0.00    +0.000 A 
ATOM      4  C   UNL     1       4.464   4.398  16.382  0.00  0.00    +0.000 A 
ATOM      5  C   UNL     1       4.313   5.454  17.291  0.00  0.00    +0.000 A 
ATOM      6  C   UNL     1       5.460   6.243  17.497  0.00  0.00    +0.000 A 
ATOM      7  C   UNL     1       6.636   6.074  16.741  0.00  0.00    +0.000 A 
BRANCH   2   9
ATOM      8  C   UNL     1       7.356   5.053  13.458  0.00  0.00    +0.000 C 
ATOM      9  O   UNL     1       7.725   5.113  14.838  0.00  0.00    +0.000 OA
ENDBRANCH   2   9
BRANCH   7  10
ATOM     10  O   UNL     1       7.650   6.945  17.054  0.00  0.00    +0.000 OA
ATOM     11  C   UNL     1       7.212   8.208  17.554  0.00  0.00    +0.000 C 
ENDBRANCH   7  10
ENDBRANCH   1   5
BRANCH   1  12
ATOM     12  C   UNL     1       2.740   7.049  18.538  0.00  0.00    +0.000 C 
ATOM     13  S   UNL     1       2.471   8.469  17.668  0.00  0.00    +0.000 S 
BRANCH  12  14
ATOM     14  N   UNL     1       2.712   7.074  19.916  0.00  0.00    +0.000 N 
ATOM     15  H   UNL     1       3.483   7.634  20.258  0.00  0.00    +0.000 HD
BRANCH  14  16
ATOM     16  C   UNL     1       1.533   7.127  20.782  0.00  0.00    +0.000 C 
BRANCH  16  17
ATOM     17  C   UNL     1       1.362   8.491  21.453  0.00  0.00    +0.000 C 
BRANCH  17  18
ATOM     18  C   UNL     1       0.265   9.312  20.776  0.00  0.00    +0.000 C 
BRANCH  18  19
ATOM     19  N   UNL     1      -0.063  10.529  21.493  0.00  0.00    +0.000 N 
ATOM     20  C   UNL     1      -0.607  10.568  22.746  0.00  0.00    +0.000 A 
ATOM     21  N   UNL     1      -0.832  11.802  23.132  0.00  0.00    +0.000 NA
ATOM     22  C   UNL     1      -0.433  12.587  22.082  0.00  0.00    +0.000 A 
ATOM     23  C   UNL     1       0.036  11.820  21.036  0.00  0.00    +0.000 A 
ATOM     24  C   UNL     1       0.545  12.208  19.700  0.00  0.00    +0.000 C 
ENDBRANCH  18  19
ENDBRANCH  17  18
ENDBRANCH  16  17
ENDBRANCH  14  16
ENDBRANCH  12  14
ENDBRANCH   1  12
BRANCH   1  25
ATOM     25  C   UNL     1       2.083   4.663  18.113  0.00  0.00    +0.000 C 
BRANCH  25  26
ATOM     26  C   UNL     1       2.168   3.768  19.328  0.00  0.00    +0.000 A 
ATOM     27  C   UNL     1       3.323   3.128  19.782  0.00  0.00    +0.000 A 
ATOM     28  C   UNL     1       3.303   2.436  20.991  0.00  0.00    +0.000 A 
ATOM     29  C   UNL     1       2.114   2.371  21.698  0.00  0.00    +0.000 A 
ATOM     30  N   UNL     1       0.960   2.916  21.264  0.00  0.00    +0.000 NA
ATOM     31  C   UNL     1       1.016   3.598  20.099  0.00  0.00    +0.000 A 
ENDBRANCH  25  26
ENDBRANCH   1  25
TORSDOF 11
ENDMDL
MODEL 2
REMARK VINA RESULT:      -7.0      4.353      7.741
REMARK  Name = 
REMARK  14 active torsions:
REMARK  status: ('A' for Active; 'I' for Inactive)
REMARK    1  A    between atoms: C_1  and  O_2
REMARK    2  A    between atoms: O_2  and  C_3
REMARK    3  A    between atoms: C_6  and  N_7
REMARK    4  A    between atoms: N_7  and  C_8
REMARK    5  A    between atoms: N_7  and  C_15
REMARK    6  A    between atoms: C_8  and  C_9
REMARK    7  A    between atoms: C_15  and  N_17
REMARK    8  A    between atoms: N_17  and  C_18
REMARK    9  A    between atoms: C_18  and  C_19
REMARK   10  A    between atoms: C_19  and  C_20
REMARK   11  A    between atoms: C_20  and  N_21
REMARK   12  A    between atoms: C_25  and  C_26
REMARK   13  A    between atoms: C_28  and  O_29
REMARK   14  A    between atoms: O_29  and  C_30
REMARK                            x       y       z     vdW  Elec       q    Type
REMARK                         _______ _______ _______ _____ _____    ______ ____
ROOT
ATOM      1  N   UNL     1       5.739   5.652  16.894  0.00  0.00    +0.000 N 
ENDROOT
BRANCH   1   5
ATOM      2  C   UNL     1       2.662   3.794  19.270  0.00  0.00    +0.000 A 
ATOM      3  C   UNL     1       3.245   3.098  18.220  0.00  0.00    +0.000 A 
ATOM      4  C   UNL     1       4.183   3.720  17.387  0.00  0.00    +0.000 A 
ATOM      5  C   UNL     1       4.605   5.041  17.587  0.00  0.00    +0.000 A 
ATOM      6  C   UNL     1       3.886   5.765  18.557  0.00  0.00    +0.000 A 
ATOM      7  C   UNL     1       2.904   5.166  19.371  0.00  0.00    +0.000 A 
BRANCH   2   9
ATOM      8  C   UNL     1       2.548   2.767  21.383  0.00  0.00    +0.000 C 
ATOM      9  O   UNL     1       1.866   3.172  20.192  0.00  0.00    +0.000 OA
ENDBRANCH   2   9
BRANCH   7  10
ATOM     10  O   UNL     1       2.320   6.011  20.280  0.00  0.00    +0.000 OA
ATOM     11  C   UNL     1       2.107   7.339  19.805  0.00  0.00    +0.000 C 
ENDBRANCH   7  10
ENDBRANCH   1   5
BRANCH   1  12
ATOM     12  C   UNL     1       6.997   5.957  17.496  0.00  0.00    +0.000 C 
ATOM     13  S   UNL     1       7.728   5.066  18.728  0.00  0.00    +0.000 S 
BRANCH  12  14
ATOM     14  N   UNL     1       7.600   7.107  17.033  0.00  0.00    +0.000 N 
ATOM     15  H   UNL     1       7.696   7.054  16.026  0.00  0.00    +0.000 HD
BRANCH  14  16
ATOM     16  C   UNL     1       7.406   8.473  17.521  0.00  0.00    +0.000 C 
BRANCH  16  17
ATOM     17  C   UNL     1       8.577   8.959  18.378  0.00  0.00    +0.000 C 
BRANCH  17  18
ATOM     18  C   UNL     1       8.889  10.431  18.114  0.00  0.00    +0.000 C 
BRANCH  18  19
ATOM     19  N   UNL     1       9.672  11.047  19.166  0.00  0.00    +0.000 N 
ATOM     20  C   UNL     1       9.293  11.110  20.478  0.00  0.00    +0.000 A 
ATOM     21  N   UNL     1      10.178  11.757  21.201  0.00  0.00    +0.000 NA
ATOM     22  C   UNL     1      11.155  12.139  20.320  0.00  0.00    +0.000 A 
ATOM     23  C   UNL     1      10.859  11.725  19.037  0.00  0.00    +0.000 A 
ATOM     24  C   UNL     1      11.588  11.920  17.762  0.00  0.00    +0.000 C 
ENDBRANCH  18  19
ENDBRANCH  17  18
ENDBRANCH  16  17
ENDBRANCH  14  16
ENDBRANCH  12  14
ENDBRANCH   1  12
BRANCH   1  25
ATOM     25  C   UNL     1       5.509   6.037  15.475  0.00  0.00    +0.000 C 
BRANCH  25  26
ATOM     26  C   UNL     1       5.939   5.095  14.376  0.00  0.00    +0.000 A 
ATOM     27  C   UNL     1       5.155   4.075  13.834  0.00  0.00    +0.000 A 
ATOM     28  C   UNL     1       5.615   3.358  12.730  0.00  0.00    +0.000 A 
ATOM     29  C   UNL     1       6.866   3.657  12.221  0.00  0.00    +0.000 A 
ATOM     30  N   UNL     1       7.684   4.586  12.754  0.00  0.00    +0.000 NA
ATOM     31  C   UNL     1       7.202   5.279  13.810  0.00  0.00    +0.000 A 
ENDBRANCH  25  26
ENDBRANCH   1  25
TORSDOF 11
ENDMDL
MODEL 3
REMARK VINA RESULT:      -7.0      1.503      2.042
REMARK  Name = 
REMARK  14 active torsions:
REMARK  status: ('A' for Active; 'I' for Inactive)
REMARK    1  A    between atoms: C_1  and  O_2
REMARK    2  A    between atoms: O_2  and  C_3
REMARK    3  A    between atoms: C_6  and  N_7
REMARK    4  A    between atoms: N_7  and  C_8
REMARK    5  A    between atoms: N_7  and  C_15
REMARK    6  A    between atoms: C_8  and  C_9
REMARK    7  A    between atoms: C_15  and  N_17
REMARK    8  A    between atoms: N_17  and  C_18
REMARK    9  A    between atoms: C_18  and  C_19
REMARK   10  A    between atoms: C_19  and  C_20
REMARK   11  A    between atoms: C_20  and  N_21
REMARK   12  A    between atoms: C_25  and  C_26
REMARK   13  A    between atoms: C_28  and  O_29
REMARK   14  A    between atoms: O_29  and  C_30
REMARK                            x       y       z     vdW  Elec       q    Type
REMARK                         _______ _______ _______ _____ _____    ______ ____
ROOT
ATOM      1  N   UNL     1       2.822   5.843  18.030  0.00  0.00    +0.000 N 
ENDROOT
BRANCH   1   5
ATOM      2  C   UNL     1       6.459   5.520  15.741  0.00  0.00    +0.000 A 
ATOM      3  C   UNL     1       5.532   4.488  15.722  0.00  0.00    +0.000 A 
ATOM      4  C   UNL     1       4.388   4.543  16.528  0.00  0.00    +0.000 A 
ATOM      5  C   UNL     1       4.104   5.639  17.353  0.00  0.00    +0.000 A 
ATOM      6  C   UNL     1       5.133   6.592  17.469  0.00  0.00    +0.000 A 
ATOM      7  C   UNL     1       6.312   6.525  16.700  0.00  0.00    +0.000 A 
BRANCH   2   9
ATOM      8  C   UNL     1       7.316   4.766  13.685  0.00  0.00    +0.000 C 
ATOM      9  O   UNL     1       7.499   5.570  14.854  0.00  0.00    +0.000 OA
ENDBRANCH   2   9
BRANCH   7  10
ATOM     10  O   UNL     1       7.198   7.549  16.919  0.00  0.00    +0.000 OA
ATOM     11  C   UNL     1       7.925   7.453  18.143  0.00  0.00    +0.000 C 
ENDBRANCH   7  10
ENDBRANCH   1   5
BRANCH   1  12
ATOM     12  C   UNL     1       2.370   7.087  18.566  0.00  0.00    +0.000 C 
ATOM     13  S   UNL     1       2.109   7.403  20.202  0.00  0.00    +0.000 S 
BRANCH  12  14
ATOM     14  N   UNL     1       2.096   8.059  17.628  0.00  0.00    +0.000 N 
ATOM     15  H   UNL     1       1.340   7.746  17.031  0.00  0.00    +0.000 HD
BRANCH  14  16
ATOM     16  C   UNL     1       2.118   9.510  17.816  0.00  0.00    +0.000 C 
BRANCH  16  17
ATOM     17  C   UNL     1       0.748  10.070  18.203  0.00  0.00    +0.000 C 
BRANCH  17  18
ATOM     18  C   UNL     1       0.878  11.389  18.962  0.00  0.00    +0.000 C 
BRANCH  18  19
ATOM     19  N   UNL     1      -0.342  11.783  19.638  0.00  0.00    +0.000 N 
ATOM     20  C   UNL     1      -1.283  12.622  19.112  0.00  0.00    +0.000 A 
ATOM     21  N   UNL     1      -2.264  12.833  19.958  0.00  0.00    +0.000 NA
ATOM     22  C   UNL     1      -1.935  12.115  21.078  0.00  0.00    +0.000 A 
ATOM     23  C   UNL     1      -0.730  11.463  20.916  0.00  0.00    +0.000 A 
ATOM     24  C   UNL     1       0.039  10.600  21.843  0.00  0.00    +0.000 C 
ENDBRANCH  18  19
ENDBRANCH  17  18
ENDBRANCH  16  17
ENDBRANCH  14  16
ENDBRANCH  12  14
ENDBRANCH   1  12
BRANCH   1  25
ATOM     25  C   UNL     1       1.983   4.630  18.222  0.00  0.00    +0.000 C 
BRANCH  25  26
ATOM     26  C   UNL     1       2.083   3.862  19.520  0.00  0.00    +0.000 A 
ATOM     27  C   UNL     1       1.037   3.662  20.423  0.00  0.00    +0.000 A 
ATOM     28  C   UNL     1       1.220   2.822  21.521  0.00  0.00    +0.000 A 
ATOM     29  C   UNL     1       2.459   2.234  21.706  0.00  0.00    +0.000 A 
ATOM     30  N   UNL     1       3.515   2.453  20.897  0.00  0.00    +0.000 NA
ATOM     31  C   UNL     1       3.301   3.255  19.831  0.00  0.00    +0.000 A 
ENDBRANCH  25  26
ENDBRANCH   1  25
TORSDOF 11
ENDMDL
MODEL 4
REMARK VINA RESULT:      -6.9      1.363      1.790
REMARK  Name = 
REMARK  14 active torsions:
REMARK  status: ('A' for Active; 'I' for Inactive)
REMARK    1  A    between atoms: C_1  and  O_2
REMARK    2  A    between atoms: O_2  and  C_3
REMARK    3  A    between atoms: C_6  and  N_7
REMARK    4  A    between atoms: N_7  and  C_8
REMARK    5  A    between atoms: N_7  and  C_15
REMARK    6  A    between atoms: C_8  and  C_9
REMARK    7  A    between atoms: C_15  and  N_17
REMARK    8  A    between atoms: N_17  and  C_18
REMARK    9  A    between atoms: C_18  and  C_19
REMARK   10  A    between atoms: C_19  and  C_20
REMARK   11  A    between atoms: C_20  and  N_21
REMARK   12  A    between atoms: C_25  and  C_26
REMARK   13  A    between atoms: C_28  and  O_29
REMARK   14  A    between atoms: O_29  and  C_30
REMARK                            x       y       z     vdW  Elec       q    Type
REMARK                         _______ _______ _______ _____ _____    ______ ____
ROOT
ATOM      1  N   UNL     1       2.865   5.874  18.024  0.00  0.00    +0.000 N 
ENDROOT
BRANCH   1   5
ATOM      2  C   UNL     1       6.557   5.398  15.853  0.00  0.00    +0.000 A 
ATOM      3  C   UNL     1       5.437   4.662  15.490  0.00  0.00    +0.000 A 
ATOM      4  C   UNL     1       4.258   4.744  16.240  0.00  0.00    +0.000 A 
ATOM      5  C   UNL     1       4.134   5.584  17.354  0.00  0.00    +0.000 A 
ATOM      6  C   UNL     1       5.326   6.194  17.788  0.00  0.00    +0.000 A 
ATOM      7  C   UNL     1       6.533   6.083  17.070  0.00  0.00    +0.000 A 
BRANCH   2   9
ATOM      8  C   UNL     1       7.465   4.975  13.725  0.00  0.00    +0.000 C 
ATOM      9  O   UNL     1       7.666   5.462  15.054  0.00  0.00    +0.000 OA
ENDBRANCH   2   9
BRANCH   7  10
ATOM     10  O   UNL     1       7.592   6.762  17.619  0.00  0.00    +0.000 OA
ATOM     11  C   UNL     1       7.484   8.183  17.553  0.00  0.00    +0.000 C 
ENDBRANCH   7  10
ENDBRANCH   1   5
BRANCH   1  12
ATOM     12  C   UNL     1       2.488   7.149  18.543  0.00  0.00    +0.000 C 
ATOM     13  S   UNL     1       2.109   7.470  20.156  0.00  0.00    +0.000 S 
BRANCH  12  14
ATOM     14  N   UNL     1       2.395   8.155  17.605  0.00  0.00    +0.000 N 
ATOM     15  H   UNL     1       1.936   7.799  16.775  0.00  0.00    +0.000 HD
BRANCH  14  16
ATOM     16  C   UNL     1       2.134   9.574  17.844  0.00  0.00    +0.000 C 
BRANCH  16  17
ATOM     17  C   UNL     1       0.665   9.853  18.164  0.00  0.00    +0.000 C 
BRANCH  17  18
ATOM     18  C   UNL     1       0.467  11.275  18.686  0.00  0.00    +0.000 C 
BRANCH  18  19
ATOM     19  N   UNL     1       0.011  11.322  20.061  0.00  0.00    +0.000 N 
ATOM     20  C   UNL     1       0.737  10.887  21.134  0.00  0.00    +0.000 A 
ATOM     21  N   UNL     1       0.062  11.015  22.253  0.00  0.00    +0.000 NA
ATOM     22  C   UNL     1      -1.149  11.539  21.886  0.00  0.00    +0.000 A 
ATOM     23  C   UNL     1      -1.219  11.725  20.520  0.00  0.00    +0.000 A 
ATOM     24  C   UNL     1      -2.316  12.234  19.665  0.00  0.00    +0.000 C 
ENDBRANCH  18  19
ENDBRANCH  17  18
ENDBRANCH  16  17
ENDBRANCH  14  16
ENDBRANCH  12  14
ENDBRANCH   1  12
BRANCH   1  25
ATOM     25  C   UNL     1       1.953   4.716  18.228  0.00  0.00    +0.000 C 
BRANCH  25  26
ATOM     26  C   UNL     1       2.055   3.914  19.505  0.00  0.00    +0.000 A 
ATOM     27  C   UNL     1       1.009   3.688  20.402  0.00  0.00    +0.000 A 
ATOM     28  C   UNL     1       1.192   2.819  21.477  0.00  0.00    +0.000 A 
ATOM     29  C   UNL     1       2.432   2.229  21.647  0.00  0.00    +0.000 A 
ATOM     30  N   UNL     1       3.489   2.471  20.845  0.00  0.00    +0.000 NA
ATOM     31  C   UNL     1       3.274   3.301  19.800  0.00  0.00    +0.000 A 
ENDBRANCH  25  26
ENDBRANCH   1  25
TORSDOF 11
ENDMDL
MODEL 5
REMARK VINA RESULT:      -6.6      1.071      1.204
REMARK  Name = 
REMARK  14 active torsions:
REMARK  status: ('A' for Active; 'I' for Inactive)
REMARK    1  A    between atoms: C_1  and  O_2
REMARK    2  A    between atoms: O_2  and  C_3
REMARK    3  A    between atoms: C_6  and  N_7
REMARK    4  A    between atoms: N_7  and  C_8
REMARK    5  A    between atoms: N_7  and  C_15
REMARK    6  A    between atoms: C_8  and  C_9
REMARK    7  A    between atoms: C_15  and  N_17
REMARK    8  A    between atoms: N_17  and  C_18
REMARK    9  A    between atoms: C_18  and  C_19
REMARK   10  A    between atoms: C_19  and  C_20
REMARK   11  A    between atoms: C_20  and  N_21
REMARK   12  A    between atoms: C_25  and  C_26
REMARK   13  A    between atoms: C_28  and  O_29
REMARK   14  A    between atoms: O_29  and  C_30
REMARK                            x       y       z     vdW  Elec       q    Type
REMARK                         _______ _______ _______ _____ _____    ______ ____
ROOT
ATOM      1  N   UNL     1       2.614   6.266  18.107  0.00  0.00    +0.000 N 
ENDROOT
BRANCH   1   5
ATOM      2  C   UNL     1       6.343   5.189  16.235  0.00  0.00    +0.000 A 
ATOM      3  C   UNL     1       5.370   4.223  16.453  0.00  0.00    +0.000 A 
ATOM      4  C   UNL     1       4.191   4.543  17.138  0.00  0.00    +0.000 A 
ATOM      5  C   UNL     1       3.917   5.837  17.597  0.00  0.00    +0.000 A 
ATOM      6  C   UNL     1       4.983   6.752  17.500  0.00  0.00    +0.000 A 
ATOM      7  C   UNL     1       6.194   6.431  16.856  0.00  0.00    +0.000 A 
BRANCH   2   9
ATOM      8  C   UNL     1       7.116   4.795  14.049  0.00  0.00    +0.000 C 
ATOM      9  O   UNL     1       7.427   4.950  15.436  0.00  0.00    +0.000 OA
ENDBRANCH   2   9
BRANCH   7  10
ATOM     10  O   UNL     1       7.116   7.448  16.829  0.00  0.00    +0.000 OA
ATOM     11  C   UNL     1       7.895   7.573  18.018  0.00  0.00    +0.000 C 
ENDBRANCH   7  10
ENDBRANCH   1   5
BRANCH   1  12
ATOM     12  C   UNL     1       2.332   7.559  18.645  0.00  0.00    +0.000 C 
ATOM     13  S   UNL     1       2.227   8.984  17.748  0.00  0.00    +0.000 S 
BRANCH  12  14
ATOM     14  N   UNL     1       2.188   7.600  20.015  0.00  0.00    +0.000 N 
ATOM     15  H   UNL     1       2.938   7.073  20.448  0.00  0.00    +0.000 HD
BRANCH  14  16
ATOM     16  C   UNL     1       1.731   8.726  20.829  0.00  0.00    +0.000 C 
BRANCH  16  17
ATOM     17  C   UNL     1       0.213   8.905  20.780  0.00  0.00    +0.000 C 
BRANCH  17  18
ATOM     18  C   UNL     1      -0.170  10.309  20.316  0.00  0.00    +0.000 C 
BRANCH  18  19
ATOM     19  N   UNL     1      -0.832  11.090  21.342  0.00  0.00    +0.000 N 
ATOM     20  C   UNL     1      -0.618  10.947  22.684  0.00  0.00    +0.000 A 
ATOM     21  N   UNL     1      -1.380  11.759  23.380  0.00  0.00    +0.000 NA
ATOM     22  C   UNL     1      -2.123  12.440  22.452  0.00  0.00    +0.000 A 
ATOM     23  C   UNL     1      -1.816  12.032  21.170  0.00  0.00    +0.000 A 
ATOM     24  C   UNL     1      -2.366  12.453  19.860  0.00  0.00    +0.000 C 
ENDBRANCH  18  19
ENDBRANCH  17  18
ENDBRANCH  16  17
ENDBRANCH  14  16
ENDBRANCH  12  14
ENDBRANCH   1  12
BRANCH   1  25
ATOM     25  C   UNL     1       1.544   5.233  18.120  0.00  0.00    +0.000 C 
BRANCH  25  26
ATOM     26  C   UNL     1       1.562   4.166  19.189  0.00  0.00    +0.000 A 
ATOM     27  C   UNL     1       1.398   2.797  18.968  0.00  0.00    +0.000 A 
ATOM     28  C   UNL     1       1.568   1.899  20.020  0.00  0.00    +0.000 A 
ATOM     29  C   UNL     1       1.861   2.399  21.277  0.00  0.00    +0.000 A 
ATOM     30  N   UNL     1       1.961   3.716  21.550  0.00  0.00    +0.000 NA
ATOM     31  C   UNL     1       1.812   4.560  20.506  0.00  0.00    +0.000 A 
ENDBRANCH  25  26
ENDBRANCH   1  25
TORSDOF 11
ENDMDL
MODEL 6
REMARK VINA RESULT:      -6.6      1.598      2.006
REMARK  Name = 
REMARK  14 active torsions:
REMARK  status: ('A' for Active; 'I' for Inactive)
REMARK    1  A    between atoms: C_1  and  O_2
REMARK    2  A    between atoms: O_2  and  C_3
REMARK    3  A    between atoms: C_6  and  N_7
REMARK    4  A    between atoms: N_7  and  C_8
REMARK    5  A    between atoms: N_7  and  C_15
REMARK    6  A    between atoms: C_8  and  C_9
REMARK    7  A    between atoms: C_15  and  N_17
REMARK    8  A    between atoms: N_17  and  C_18
REMARK    9  A    between atoms: C_18  and  C_19
REMARK   10  A    between atoms: C_19  and  C_20
REMARK   11  A    between atoms: C_20  and  N_21
REMARK   12  A    between atoms: C_25  and  C_26
REMARK   13  A    between atoms: C_28  and  O_29
REMARK   14  A    between atoms: O_29  and  C_30
REMARK                            x       y       z     vdW  Elec       q    Type
REMARK                         _______ _______ _______ _____ _____    ______ ____
ROOT
ATOM      1  N   UNL     1       2.567   6.287  18.244  0.00  0.00    +0.000 N 
ENDROOT
BRANCH   1   5
ATOM      2  C   UNL     1       6.297   5.203  16.380  0.00  0.00    +0.000 A 
ATOM      3  C   UNL     1       5.380   4.220  16.720  0.00  0.00    +0.000 A 
ATOM      4  C   UNL     1       4.203   4.551  17.404  0.00  0.00    +0.000 A 
ATOM      5  C   UNL     1       3.877   5.870  17.742  0.00  0.00    +0.000 A 
ATOM      6  C   UNL     1       4.893   6.819  17.523  0.00  0.00    +0.000 A 
ATOM      7  C   UNL     1       6.103   6.493  16.880  0.00  0.00    +0.000 A 
BRANCH   2   9
ATOM      8  C   UNL     1       7.062   4.848  14.184  0.00  0.00    +0.000 C 
ATOM      9  O   UNL     1       7.373   4.936  15.577  0.00  0.00    +0.000 OA
ENDBRANCH   2   9
BRANCH   7  10
ATOM     10  O   UNL     1       6.973   7.543  16.725  0.00  0.00    +0.000 OA
ATOM     11  C   UNL     1       7.849   7.755  17.831  0.00  0.00    +0.000 C 
ENDBRANCH   7  10
ENDBRANCH   1   5
BRANCH   1  12
ATOM     12  C   UNL     1       2.262   7.586  18.754  0.00  0.00    +0.000 C 
ATOM     13  S   UNL     1       2.198   9.000  17.836  0.00  0.00    +0.000 S 
BRANCH  12  14
ATOM     14  N   UNL     1       2.059   7.643  20.116  0.00  0.00    +0.000 N 
ATOM     15  H   UNL     1       2.756   7.077  20.584  0.00  0.00    +0.000 HD
BRANCH  14  16
ATOM     16  C   UNL     1       1.631   8.798  20.904  0.00  0.00    +0.000 C 
BRANCH  16  17
ATOM     17  C   UNL     1       0.120   9.027  20.835  0.00  0.00    +0.000 C 
BRANCH  17  18
ATOM     18  C   UNL     1      -0.215  10.512  20.707  0.00  0.00    +0.000 C 
BRANCH  18  19
ATOM     19  N   UNL     1      -1.131  10.800  19.621  0.00  0.00    +0.000 N 
ATOM     20  C   UNL     1      -1.305  10.006  18.523  0.00  0.00    +0.000 A 
ATOM     21  N   UNL     1      -2.170  10.530  17.685  0.00  0.00    +0.000 NA
ATOM     22  C   UNL     1      -2.555  11.714  18.257  0.00  0.00    +0.000 A 
ATOM     23  C   UNL     1      -1.910  11.919  19.459  0.00  0.00    +0.000 A 
ATOM     24  C   UNL     1      -1.978  13.048  20.417  0.00  0.00    +0.000 C 
ENDBRANCH  18  19
ENDBRANCH  17  18
ENDBRANCH  16  17
ENDBRANCH  14  16
ENDBRANCH  12  14
ENDBRANCH   1  12
BRANCH   1  25
ATOM     25  C   UNL     1       1.516   5.235  18.282  0.00  0.00    +0.000 C 
BRANCH  25  26
ATOM     26  C   UNL     1       1.565   4.181  19.364  0.00  0.00    +0.000 A 
ATOM     27  C   UNL     1       1.352   2.815  19.171  0.00  0.00    +0.000 A 
ATOM     28  C   UNL     1       1.557   1.926  20.225  0.00  0.00    +0.000 A 
ATOM     29  C   UNL     1       1.934   2.433  21.456  0.00  0.00    +0.000 A 
ATOM     30  N   UNL     1       2.085   3.750  21.704  0.00  0.00    +0.000 NA
ATOM     31  C   UNL     1       1.900   4.585  20.658  0.00  0.00    +0.000 A 
ENDBRANCH  25  26
ENDBRANCH   1  25
TORSDOF 11
ENDMDL
MODEL 7
REMARK VINA RESULT:      -6.6      1.403      1.800
REMARK  Name = 
REMARK  14 active torsions:
REMARK  status: ('A' for Active; 'I' for Inactive)
REMARK    1  A    between atoms: C_1  and  O_2
REMARK    2  A    between atoms: O_2  and  C_3
REMARK    3  A    between atoms: C_6  and  N_7
REMARK    4  A    between atoms: N_7  and  C_8
REMARK    5  A    between atoms: N_7  and  C_15
REMARK    6  A    between atoms: C_8  and  C_9
REMARK    7  A    between atoms: C_15  and  N_17
REMARK    8  A    between atoms: N_17  and  C_18
REMARK    9  A    between atoms: C_18  and  C_19
REMARK   10  A    between atoms: C_19  and  C_20
REMARK   11  A    between atoms: C_20  and  N_21
REMARK   12  A    between atoms: C_25  and  C_26
REMARK   13  A    between atoms: C_28  and  O_29
REMARK   14  A    between atoms: O_29  and  C_30
REMARK                            x       y       z     vdW  Elec       q    Type
REMARK                         _______ _______ _______ _____ _____    ______ ____
ROOT
ATOM      1  N   UNL     1       2.591   6.097  17.956  0.00  0.00    +0.000 N 
ENDROOT
BRANCH   1   5
ATOM      2  C   UNL     1       6.396   5.485  16.029  0.00  0.00    +0.000 A 
ATOM      3  C   UNL     1       5.467   4.456  16.074  0.00  0.00    +0.000 A 
ATOM      4  C   UNL     1       4.263   4.614  16.771  0.00  0.00    +0.000 A 
ATOM      5  C   UNL     1       3.921   5.809  17.417  0.00  0.00    +0.000 A 
ATOM      6  C   UNL     1       4.944   6.773  17.487  0.00  0.00    +0.000 A 
ATOM      7  C   UNL     1       6.180   6.609  16.830  0.00  0.00    +0.000 A 
BRANCH   2   9
ATOM      8  C   UNL     1       7.257   4.900  13.920  0.00  0.00    +0.000 C 
ATOM      9  O   UNL     1       7.504   5.420  15.229  0.00  0.00    +0.000 OA
ENDBRANCH   2   9
BRANCH   7  10
ATOM     10  O   UNL     1       7.053   7.656  16.981  0.00  0.00    +0.000 OA
ATOM     11  C   UNL     1       7.955   7.524  18.079  0.00  0.00    +0.000 C 
ENDBRANCH   7  10
ENDBRANCH   1   5
BRANCH   1  12
ATOM     12  C   UNL     1       2.217   7.314  18.601  0.00  0.00    +0.000 C 
ATOM     13  S   UNL     1       2.088   7.532  20.269  0.00  0.00    +0.000 S 
BRANCH  12  14
ATOM     14  N   UNL     1       1.901   8.350  17.749  0.00  0.00    +0.000 N 
ATOM     15  H   UNL     1       1.320   8.002  16.997  0.00  0.00    +0.000 HD
BRANCH  14  16
ATOM     16  C   UNL     1       1.610   9.739  18.105  0.00  0.00    +0.000 C 
BRANCH  16  17
ATOM     17  C   UNL     1       0.112  10.046  18.087  0.00  0.00    +0.000 C 
BRANCH  17  18
ATOM     18  C   UNL     1      -0.518   9.834  19.463  0.00  0.00    +0.000 C 
BRANCH  18  19
ATOM     19  N   UNL     1      -0.488  11.021  20.295  0.00  0.00    +0.000 N 
ATOM     20  C   UNL     1      -0.547  12.301  19.820  0.00  0.00    +0.000 A 
ATOM     21  N   UNL     1      -0.463  13.178  20.795  0.00  0.00    +0.000 NA
ATOM     22  C   UNL     1      -0.330  12.434  21.938  0.00  0.00    +0.000 A 
ATOM     23  C   UNL     1      -0.324  11.083  21.656  0.00  0.00    +0.000 A 
ATOM     24  C   UNL     1      -0.180   9.907  22.546  0.00  0.00    +0.000 C 
ENDBRANCH  18  19
ENDBRANCH  17  18
ENDBRANCH  16  17
ENDBRANCH  14  16
ENDBRANCH  12  14
ENDBRANCH   1  12
BRANCH   1  25
ATOM     25  C   UNL     1       1.599   4.991  17.876  0.00  0.00    +0.000 C 
BRANCH  25  26
ATOM     26  C   UNL     1       1.606   3.916  18.937  0.00  0.00    +0.000 A 
ATOM     27  C   UNL     1       1.977   2.585  18.736  0.00  0.00    +0.000 A 
ATOM     28  C   UNL     1       2.070   1.719  19.825  0.00  0.00    +0.000 A 
ATOM     29  C   UNL     1       1.751   2.200  21.083  0.00  0.00    +0.000 A 
ATOM     30  N   UNL     1       1.324   3.457  21.313  0.00  0.00    +0.000 NA
ATOM     31  C   UNL     1       1.264   4.279  20.242  0.00  0.00    +0.000 A 
ENDBRANCH  25  26
ENDBRANCH   1  25
TORSDOF 11
ENDMDL
MODEL 8
REMARK VINA RESULT:      -6.6      1.976      2.403
REMARK  Name = 
REMARK  14 active torsions:
REMARK  status: ('A' for Active; 'I' for Inactive)
REMARK    1  A    between atoms: C_1  and  O_2
REMARK    2  A    between atoms: O_2  and  C_3
REMARK    3  A    between atoms: C_6  and  N_7
REMARK    4  A    between atoms: N_7  and  C_8
REMARK    5  A    between atoms: N_7  and  C_15
REMARK    6  A    between atoms: C_8  and  C_9
REMARK    7  A    between atoms: C_15  and  N_17
REMARK    8  A    between atoms: N_17  and  C_18
REMARK    9  A    between atoms: C_18  and  C_19
REMARK   10  A    between atoms: C_19  and  C_20
REMARK   11  A    between atoms: C_20  and  N_21
REMARK   12  A    between atoms: C_25  and  C_26
REMARK   13  A    between atoms: C_28  and  O_29
REMARK   14  A    between atoms: O_29  and  C_30
REMARK                            x       y       z     vdW  Elec       q    Type
REMARK                         _______ _______ _______ _____ _____    ______ ____
ROOT
ATOM      1  N   UNL     1       2.983   5.828  18.049  0.00  0.00    +0.000 N 
ENDROOT
BRANCH   1   5
ATOM      2  C   UNL     1       6.546   5.410  15.662  0.00  0.00    +0.000 A 
ATOM      3  C   UNL     1       5.534   4.465  15.571  0.00  0.00    +0.000 A 
ATOM      4  C   UNL     1       4.411   4.543  16.403  0.00  0.00    +0.000 A 
ATOM      5  C   UNL     1       4.233   5.579  17.329  0.00  0.00    +0.000 A 
ATOM      6  C   UNL     1       5.342   6.429  17.507  0.00  0.00    +0.000 A 
ATOM      7  C   UNL     1       6.499   6.333  16.710  0.00  0.00    +0.000 A 
BRANCH   2   9
ATOM      8  C   UNL     1       7.293   4.809  13.514  0.00  0.00    +0.000 C 
ATOM      9  O   UNL     1       7.574   5.453  14.760  0.00  0.00    +0.000 OA
ENDBRANCH   2   9
BRANCH   7  10
ATOM     10  O   UNL     1       7.473   7.255  17.000  0.00  0.00    +0.000 OA
ATOM     11  C   UNL     1       7.980   7.182  18.332  0.00  0.00    +0.000 C 
ENDBRANCH   7  10
ENDBRANCH   1   5
BRANCH   1  12
ATOM     12  C   UNL     1       2.649   7.050  18.708  0.00  0.00    +0.000 C 
ATOM     13  S   UNL     1       2.177   7.187  20.322  0.00  0.00    +0.000 S 
BRANCH  12  14
ATOM     14  N   UNL     1       2.687   8.172  17.908  0.00  0.00    +0.000 N 
ATOM     15  H   UNL     1       3.313   8.008  17.130  0.00  0.00    +0.000 HD
BRANCH  14  16
ATOM     16  C   UNL     1       1.577   9.066  17.577  0.00  0.00    +0.000 C 
BRANCH  16  17
ATOM     17  C   UNL     1       0.934   9.685  18.819  0.00  0.00    +0.000 C 
BRANCH  17  18
ATOM     18  C   UNL     1       0.266  11.021  18.496  0.00  0.00    +0.000 C 
BRANCH  18  19
ATOM     19  N   UNL     1      -1.158  10.904  18.253  0.00  0.00    +0.000 N 
ATOM     20  C   UNL     1      -1.722  10.053  17.345  0.00  0.00    +0.000 A 
ATOM     21  N   UNL     1      -3.028  10.186  17.310  0.00  0.00    +0.000 NA
ATOM     22  C   UNL     1      -3.315  11.170  18.219  0.00  0.00    +0.000 A 
ATOM     23  C   UNL     1      -2.165  11.651  18.812  0.00  0.00    +0.000 A 
ATOM     24  C   UNL     1      -1.967  12.717  19.822  0.00  0.00    +0.000 C 
ENDBRANCH  18  19
ENDBRANCH  17  18
ENDBRANCH  16  17
ENDBRANCH  14  16
ENDBRANCH  12  14
ENDBRANCH   1  12
BRANCH   1  25
ATOM     25  C   UNL     1       2.043   4.679  18.145  0.00  0.00    +0.000 C 
BRANCH  25  26
ATOM     26  C   UNL     1       2.123   3.759  19.340  0.00  0.00    +0.000 A 
ATOM     27  C   UNL     1       3.283   3.134  19.802  0.00  0.00    +0.000 A 
ATOM     28  C   UNL     1       3.255   2.414  20.996  0.00  0.00    +0.000 A 
ATOM     29  C   UNL     1       2.055   2.307  21.677  0.00  0.00    +0.000 A 
ATOM     30  N   UNL     1       0.897   2.837  21.233  0.00  0.00    +0.000 NA
ATOM     31  C   UNL     1       0.961   3.546  20.085  0.00  0.00    +0.000 A 
ENDBRANCH  25  26
ENDBRANCH   1  25
TORSDOF 11
ENDMDL
MODEL 9
REMARK VINA RESULT:      -6.6      2.128      2.390
REMARK  Name = 
REMARK  14 active torsions:
REMARK  status: ('A' for Active; 'I' for Inactive)
REMARK    1  A    between atoms: C_1  and  O_2
REMARK    2  A    between atoms: O_2  and  C_3
REMARK    3  A    between atoms: C_6  and  N_7
REMARK    4  A    between atoms: N_7  and  C_8
REMARK    5  A    between atoms: N_7  and  C_15
REMARK    6  A    between atoms: C_8  and  C_9
REMARK    7  A    between atoms: C_15  and  N_17
REMARK    8  A    between atoms: N_17  and  C_18
REMARK    9  A    between atoms: C_18  and  C_19
REMARK   10  A    between atoms: C_19  and  C_20
REMARK   11  A    between atoms: C_20  and  N_21
REMARK   12  A    between atoms: C_25  and  C_26
REMARK   13  A    between atoms: C_28  and  O_29
REMARK   14  A    between atoms: O_29  and  C_30
REMARK                            x       y       z     vdW  Elec       q    Type
REMARK                         _______ _______ _______ _____ _____    ______ ____
ROOT
ATOM      1  N   UNL     1       2.625   5.984  17.940  0.00  0.00    +0.000 N 
ENDROOT
BRANCH   1   5
ATOM      2  C   UNL     1       6.413   5.440  15.960  0.00  0.00    +0.000 A 
ATOM      3  C   UNL     1       5.489   4.406  15.987  0.00  0.00    +0.000 A 
ATOM      4  C   UNL     1       4.291   4.540  16.700  0.00  0.00    +0.000 A 
ATOM      5  C   UNL     1       3.950   5.716  17.381  0.00  0.00    +0.000 A 
ATOM      6  C   UNL     1       4.970   6.683  17.465  0.00  0.00    +0.000 A 
ATOM      7  C   UNL     1       6.200   6.542  16.792  0.00  0.00    +0.000 A 
BRANCH   2   9
ATOM      8  C   UNL     1       7.261   4.889  13.837  0.00  0.00    +0.000 C 
ATOM      9  O   UNL     1       7.513   5.401  15.148  0.00  0.00    +0.000 OA
ENDBRANCH   2   9
BRANCH   7  10
ATOM     10  O   UNL     1       7.070   7.589  16.962  0.00  0.00    +0.000 OA
ATOM     11  C   UNL     1       7.980   7.434  18.050  0.00  0.00    +0.000 C 
ENDBRANCH   7  10
ENDBRANCH   1   5
BRANCH   1  12
ATOM     12  C   UNL     1       2.230   7.209  18.558  0.00  0.00    +0.000 C 
ATOM     13  S   UNL     1       2.075   7.454  20.220  0.00  0.00    +0.000 S 
BRANCH  12  14
ATOM     14  N   UNL     1       1.919   8.227  17.684  0.00  0.00    +0.000 N 
ATOM     15  H   UNL     1       1.082   7.983  17.168  0.00  0.00    +0.000 HD
BRANCH  14  16
ATOM     16  C   UNL     1       2.059   9.667  17.907  0.00  0.00    +0.000 C 
BRANCH  16  17
ATOM     17  C   UNL     1       0.855  10.265  18.638  0.00  0.00    +0.000 C 
BRANCH  17  18
ATOM     18  C   UNL     1      -0.410  10.189  17.785  0.00  0.00    +0.000 C 
BRANCH  18  19
ATOM     19  N   UNL     1      -1.514  10.956  18.328  0.00  0.00    +0.000 N 
ATOM     20  C   UNL     1      -1.381  11.961  19.245  0.00  0.00    +0.000 A 
ATOM     21  N   UNL     1      -2.549  12.455  19.586  0.00  0.00    +0.000 NA
ATOM     22  C   UNL     1      -3.469  11.731  18.875  0.00  0.00    +0.000 A 
ATOM     23  C   UNL     1      -2.854  10.774  18.093  0.00  0.00    +0.000 A 
ATOM     24  C   UNL     1      -3.422   9.752  17.184  0.00  0.00    +0.000 C 
ENDBRANCH  18  19
ENDBRANCH  17  18
ENDBRANCH  16  17
ENDBRANCH  14  16
ENDBRANCH  12  14
ENDBRANCH   1  12
BRANCH   1  25
ATOM     25  C   UNL     1       1.662   4.850  17.912  0.00  0.00    +0.000 C 
BRANCH  25  26
ATOM     26  C   UNL     1       1.688   3.833  19.029  0.00  0.00    +0.000 A 
ATOM     27  C   UNL     1       2.248   2.556  18.946  0.00  0.00    +0.000 A 
ATOM     28  C   UNL     1       2.330   1.759  20.086  0.00  0.00    +0.000 A 
ATOM     29  C   UNL     1       1.814   2.247  21.274  0.00  0.00    +0.000 A 
ATOM     30  N   UNL     1       1.205   3.445  21.385  0.00  0.00    +0.000 NA
ATOM     31  C   UNL     1       1.160   4.203  20.267  0.00  0.00    +0.000 A 
ENDBRANCH  25  26
ENDBRANCH   1  25
TORSDOF 11
ENDMDL
