MODEL 1
REMARK VINA RESULT:      -9.0      0.000      0.000
REMARK  Name = 
REMARK  6 active torsions:
REMARK  status: ('A' for Active; 'I' for Inactive)
REMARK    1  A    between atoms: C_2  and  C_21
REMARK    2  A    between atoms: N_3  and  C_4
REMARK    3  A    between atoms: C_11  and  N_12
REMARK    4  A    between atoms: N_12  and  C_13
REMARK    5  A    between atoms: C_13  and  C_14
REMARK    6  A    between atoms: C_26  and  C_27
REMARK                            x       y       z     vdW  Elec       q    Type
REMARK                         _______ _______ _______ _____ _____    ______ ____
ROOT
ATOM      1  C   UNL     1       2.317   7.627  18.213  0.00  0.00    +0.000 A 
ATOM      2  C   UNL     1       2.054   8.850  17.575  0.00  0.00    +0.000 A 
ATOM      3  C   UNL     1       1.405   9.879  18.255  0.00  0.00    +0.000 A 
ATOM      4  C   UNL     1       1.091   9.683  19.589  0.00  0.00    +0.000 A 
ATOM      5  C   UNL     1       1.398   8.486  20.244  0.00  0.00    +0.000 A 
ATOM      6  C   UNL     1       1.985   7.433  19.559  0.00  0.00    +0.000 A 
ATOM      7  C   UNL     1       1.084   8.592  21.708  0.00  0.00    +0.000 C 
ATOM      8  C   UNL     1       0.067   9.763  21.718  0.00  0.00    +0.000 C 
ATOM      9  C   UNL     1       0.475  10.669  20.528  0.00  0.00    +0.000 C 
ENDROOT
BRANCH   1  12
ATOM     10  O   UNL     1       5.106   7.650  17.708  0.00  0.00    +0.000 OA
ATOM     11  C   UNL     1       4.399   6.750  17.272  0.00  0.00    +0.000 C 
ATOM     12  N   UNL     1       3.032   6.649  17.504  0.00  0.00    +0.000 N 
ATOM     13  H   UNL     1       2.626   5.726  17.515  0.00  0.00    +0.000 HD
BRANCH  11  14
ATOM     14  C   UNL     1       5.004   5.634  16.470  0.00  0.00    +0.000 A 
ATOM     15  C   UNL     1       5.766   5.993  15.333  0.00  0.00    +0.000 A 
ATOM     16  C   UNL     1       6.370   5.031  14.526  0.00  0.00    +0.000 A 
ATOM     17  C   UNL     1       6.204   3.692  14.829  0.00  0.00    +0.000 A 
ATOM     18  C   UNL     1       5.442   3.319  15.940  0.00  0.00    +0.000 A 
ATOM     19  C   UNL     1       4.812   4.260  16.794  0.00  0.00    +0.000 A 
BRANCH  19  20
ATOM     20  C   UNL     1       4.018   3.735  17.949  0.00  0.00    +0.000 A 
ATOM     21  C   UNL     1       4.556   3.587  19.241  0.00  0.00    +0.000 A 
ATOM     22  C   UNL     1       3.780   3.149  20.323  0.00  0.00    +0.000 A 
ATOM     23  C   UNL     1       2.459   2.773  20.121  0.00  0.00    +0.000 A 
ATOM     24 CL   UNL     1       1.509   2.219  21.444  0.00  0.00    +0.000 Cl
ATOM     25  C   UNL     1       1.906   2.843  18.850  0.00  0.00    +0.000 A 
ATOM     26  C   UNL     1       2.672   3.336  17.784  0.00  0.00    +0.000 A 
ENDBRANCH  19  20
ENDBRANCH  11  14
ENDBRANCH   1  12
BRANCH   8  27
ATOM     27  N   UNL     1       0.004  10.453  23.014  0.00  0.00    +0.000 NA
ATOM     28  H   UNL     1       0.622  11.266  22.997  0.00  0.00    +0.000 HD
BRANCH  27  29
ATOM     29  C   UNL     1      -1.360  10.937  23.290  0.00  0.00    +0.000 C 
BRANCH  29  30
ATOM     30  C   UNL     1      -1.535  12.410  22.984  0.00  0.00    +0.000 A 
ATOM     31  C   UNL     1      -2.772  12.903  22.571  0.00  0.00    +0.000 A 
ATOM     32  C   UNL     1      -2.894  14.254  22.274  0.00  0.00    +0.000 A 
ATOM     33  C   UNL     1      -1.782  15.079  22.389  0.00  0.00    +0.000 A 
ATOM     34  C   UNL     1      -0.588  14.514  22.807  0.00  0.00    +0.000 A 
ATOM     35  N   UNL     1      -0.441  13.206  23.110  0.00  0.00    +0.000 NA
ENDBRANCH  29  30
ENDBRANCH  27  29
ENDBRANCH   8  27
TORSDOF 6
ENDMDL
MODEL 2
REMARK VINA RESULT:      -8.9      2.278      2.906
REMARK  Name = 
REMARK  6 active torsions:
REMARK  status: ('A' for Active; 'I' for Inactive)
REMARK    1  A    between atoms: C_2  and  C_21
REMARK    2  A    between atoms: N_3  and  C_4
REMARK    3  A    between atoms: C_11  and  N_12
REMARK    4  A    between atoms: N_12  and  C_13
REMARK    5  A    between atoms: C_13  and  C_14
REMARK    6  A    between atoms: C_26  and  C_27
REMARK                            x       y       z     vdW  Elec       q    Type
REMARK                         _______ _______ _______ _____ _____    ______ ____
ROOT
ATOM      1  C   UNL     1       2.324   7.594  18.536  0.00  0.00    +0.000 A 
ATOM      2  C   UNL     1       2.156   7.367  19.912  0.00  0.00    +0.000 A 
ATOM      3  C   UNL     1       1.429   8.263  20.694  0.00  0.00    +0.000 A 
ATOM      4  C   UNL     1       0.825   9.338  20.066  0.00  0.00    +0.000 A 
ATOM      5  C   UNL     1       0.946   9.540  18.687  0.00  0.00    +0.000 A 
ATOM      6  C   UNL     1       1.720   8.691  17.910  0.00  0.00    +0.000 A 
ATOM      7  C   UNL     1       0.082  10.685  18.245  0.00  0.00    +0.000 C 
ATOM      8  C   UNL     1      -0.112  11.452  19.579  0.00  0.00    +0.000 C 
ATOM      9  C   UNL     1      -0.061  10.368  20.686  0.00  0.00    +0.000 C 
ENDROOT
BRANCH   1  12
ATOM     10  O   UNL     1       5.010   7.775  17.652  0.00  0.00    +0.000 OA
ATOM     11  C   UNL     1       4.320   6.806  17.359  0.00  0.00    +0.000 C 
ATOM     12  N   UNL     1       3.008   6.627  17.782  0.00  0.00    +0.000 N 
ATOM     13  H   UNL     1       2.676   5.681  17.892  0.00  0.00    +0.000 HD
BRANCH  11  14
ATOM     14  C   UNL     1       4.893   5.690  16.535  0.00  0.00    +0.000 A 
ATOM     15  C   UNL     1       5.639   6.050  15.387  0.00  0.00    +0.000 A 
ATOM     16  C   UNL     1       6.213   5.088  14.559  0.00  0.00    +0.000 A 
ATOM     17  C   UNL     1       6.033   3.748  14.851  0.00  0.00    +0.000 A 
ATOM     18  C   UNL     1       5.286   3.375  15.972  0.00  0.00    +0.000 A 
ATOM     19  C   UNL     1       4.687   4.316  16.848  0.00  0.00    +0.000 A 
BRANCH  19  20
ATOM     20  C   UNL     1       3.907   3.790  18.013  0.00  0.00    +0.000 A 
ATOM     21  C   UNL     1       4.470   3.605  19.288  0.00  0.00    +0.000 A 
ATOM     22  C   UNL     1       3.709   3.167  20.381  0.00  0.00    +0.000 A 
ATOM     23  C   UNL     1       2.374   2.829  20.204  0.00  0.00    +0.000 A 
ATOM     24 CL   UNL     1       1.442   2.275  21.539  0.00  0.00    +0.000 Cl
ATOM     25  C   UNL     1       1.793   2.937  18.948  0.00  0.00    +0.000 A 
ATOM     26  C   UNL     1       2.547   3.429  17.873  0.00  0.00    +0.000 A 
ENDBRANCH  19  20
ENDBRANCH  11  14
ENDBRANCH   1  12
BRANCH   8  27
ATOM     27  N   UNL     1      -1.328  12.277  19.592  0.00  0.00    +0.000 NA
ATOM     28  H   UNL     1      -1.069  13.266  19.568  0.00  0.00    +0.000 HD
BRANCH  27  29
ATOM     29  C   UNL     1      -2.163  12.008  18.408  0.00  0.00    +0.000 C 
BRANCH  29  30
ATOM     30  C   UNL     1      -3.631  11.857  18.745  0.00  0.00    +0.000 A 
ATOM     31  C   UNL     1      -4.484  11.161  17.889  0.00  0.00    +0.000 A 
ATOM     32  C   UNL     1      -5.830  11.062  18.213  0.00  0.00    +0.000 A 
ATOM     33  C   UNL     1      -6.296  11.662  19.377  0.00  0.00    +0.000 A 
ATOM     34  C   UNL     1      -5.386  12.334  20.176  0.00  0.00    +0.000 A 
ATOM     35  N   UNL     1      -4.070  12.441  19.891  0.00  0.00    +0.000 NA
ENDBRANCH  29  30
ENDBRANCH  27  29
ENDBRANCH   8  27
TORSDOF 6
ENDMDL
MODEL 3
REMARK VINA RESULT:      -8.8      0.758      1.314
REMARK  Name = 
REMARK  6 active torsions:
REMARK  status: ('A' for Active; 'I' for Inactive)
REMARK    1  A    between atoms: C_2  and  C_21
REMARK    2  A    between atoms: N_3  and  C_4
REMARK    3  A    between atoms: C_11  and  N_12
REMARK    4  A    between atoms: N_12  and  C_13
REMARK    5  A    between atoms: C_13  and  C_14
REMARK    6  A    between atoms: C_26  and  C_27
REMARK                            x       y       z     vdW  Elec       q    Type
REMARK                         _______ _______ _______ _____ _____    ______ ____
ROOT
ATOM      1  C   UNL     1       2.319   7.805  18.166  0.00  0.00    +0.000 A 
ATOM      2  C   UNL     1       2.183   9.053  17.538  0.00  0.00    +0.000 A 
ATOM      3  C   UNL     1       1.565  10.115  18.197  0.00  0.00    +0.000 A 
ATOM      4  C   UNL     1       1.155   9.922  19.505  0.00  0.00    +0.000 A 
ATOM      5  C   UNL     1       1.336   8.696  20.153  0.00  0.00    +0.000 A 
ATOM      6  C   UNL     1       1.891   7.615  19.485  0.00  0.00    +0.000 A 
ATOM      7  C   UNL     1       0.939   8.801  21.597  0.00  0.00    +0.000 C 
ATOM      8  C   UNL     1       0.008  10.042  21.567  0.00  0.00    +0.000 C 
ATOM      9  C   UNL     1       0.552  10.934  20.423  0.00  0.00    +0.000 C 
ENDROOT
BRANCH   1  12
ATOM     10  O   UNL     1       5.122   7.679  17.766  0.00  0.00    +0.000 OA
ATOM     11  C   UNL     1       4.385   6.817  17.303  0.00  0.00    +0.000 C 
ATOM     12  N   UNL     1       3.007   6.789  17.484  0.00  0.00    +0.000 N 
ATOM     13  H   UNL     1       2.552   5.889  17.478  0.00  0.00    +0.000 HD
BRANCH  11  14
ATOM     14  C   UNL     1       4.959   5.669  16.523  0.00  0.00    +0.000 A 
ATOM     15  C   UNL     1       5.772   5.987  15.409  0.00  0.00    +0.000 A 
ATOM     16  C   UNL     1       6.353   4.993  14.624  0.00  0.00    +0.000 A 
ATOM     17  C   UNL     1       6.113   3.665  14.925  0.00  0.00    +0.000 A 
ATOM     18  C   UNL     1       5.300   3.334  16.013  0.00  0.00    +0.000 A 
ATOM     19  C   UNL     1       4.691   4.308  16.845  0.00  0.00    +0.000 A 
BRANCH  19  20
ATOM     20  C   UNL     1       3.838   3.827  17.977  0.00  0.00    +0.000 A 
ATOM     21  C   UNL     1       2.501   3.423  17.807  0.00  0.00    +0.000 A 
ATOM     22  C   UNL     1       1.736   2.920  18.868  0.00  0.00    +0.000 A 
ATOM     23  C   UNL     1       2.270   2.880  20.150  0.00  0.00    +0.000 A 
ATOM     24 CL   UNL     1       1.328   2.279  21.457  0.00  0.00    +0.000 Cl
ATOM     25  C   UNL     1       3.565   3.327  20.374  0.00  0.00    +0.000 A 
ATOM     26  C   UNL     1       4.342   3.776  19.296  0.00  0.00    +0.000 A 
ENDBRANCH  19  20
ENDBRANCH  11  14
ENDBRANCH   1  12
BRANCH   8  27
ATOM     27  N   UNL     1      -0.088  10.714  22.871  0.00  0.00    +0.000 NA
ATOM     28  H   UNL     1       0.193  11.692  22.770  0.00  0.00    +0.000 HD
BRANCH  27  29
ATOM     29  C   UNL     1      -1.472  10.699  23.374  0.00  0.00    +0.000 C 
BRANCH  29  30
ATOM     30  C   UNL     1      -2.103  12.075  23.404  0.00  0.00    +0.000 A 
ATOM     31  C   UNL     1      -1.340  13.208  23.121  0.00  0.00    +0.000 A 
ATOM     32  C   UNL     1      -1.940  14.458  23.182  0.00  0.00    +0.000 A 
ATOM     33  C   UNL     1      -3.283  14.551  23.527  0.00  0.00    +0.000 A 
ATOM     34  C   UNL     1      -3.974  13.380  23.790  0.00  0.00    +0.000 A 
ATOM     35  N   UNL     1      -3.419  12.150  23.733  0.00  0.00    +0.000 NA
ENDBRANCH  29  30
ENDBRANCH  27  29
ENDBRANCH   8  27
TORSDOF 6
ENDMDL
MODEL 4
REMARK VINA RESULT:      -8.7      0.930      1.247
REMARK  Name = 
REMARK  6 active torsions:
REMARK  status: ('A' for Active; 'I' for Inactive)
REMARK    1  A    between atoms: C_2  and  C_21
REMARK    2  A    between atoms: N_3  and  C_4
REMARK    3  A    between atoms: C_11  and  N_12
REMARK    4  A    between atoms: N_12  and  C_13
REMARK    5  A    between atoms: C_13  and  C_14
REMARK    6  A    between atoms: C_26  and  C_27
REMARK                            x       y       z     vdW  Elec       q    Type
REMARK                         _______ _______ _______ _____ _____    ______ ____
ROOT
ATOM      1  C   UNL     1       2.078   7.808  18.284  0.00  0.00    +0.000 A 
ATOM      2  C   UNL     1       1.823   9.006  17.598  0.00  0.00    +0.000 A 
ATOM      3  C   UNL     1       1.162  10.058  18.230  0.00  0.00    +0.000 A 
ATOM      4  C   UNL     1       0.829   9.911  19.565  0.00  0.00    +0.000 A 
ATOM      5  C   UNL     1       1.128   8.740  20.268  0.00  0.00    +0.000 A 
ATOM      6  C   UNL     1       1.727   7.663  19.631  0.00  0.00    +0.000 A 
ATOM      7  C   UNL     1       0.792   8.899  21.723  0.00  0.00    +0.000 C 
ATOM      8  C   UNL     1      -0.226  10.068  21.674  0.00  0.00    +0.000 C 
ATOM      9  C   UNL     1       0.198  10.930  20.458  0.00  0.00    +0.000 C 
ENDROOT
BRANCH   1  12
ATOM     10  O   UNL     1       4.885   7.778  17.891  0.00  0.00    +0.000 OA
ATOM     11  C   UNL     1       4.181   6.880  17.443  0.00  0.00    +0.000 C 
ATOM     12  N   UNL     1       2.805   6.805  17.622  0.00  0.00    +0.000 N 
ATOM     13  H   UNL     1       2.383   5.889  17.633  0.00  0.00    +0.000 HD
BRANCH  11  14
ATOM     14  C   UNL     1       4.799   5.740  16.687  0.00  0.00    +0.000 A 
ATOM     15  C   UNL     1       5.583   6.064  15.554  0.00  0.00    +0.000 A 
ATOM     16  C   UNL     1       6.201   5.078  14.788  0.00  0.00    +0.000 A 
ATOM     17  C   UNL     1       6.027   3.749  15.127  0.00  0.00    +0.000 A 
ATOM     18  C   UNL     1       5.243   3.410  16.234  0.00  0.00    +0.000 A 
ATOM     19  C   UNL     1       4.599   4.377  17.048  0.00  0.00    +0.000 A 
BRANCH  19  20
ATOM     20  C   UNL     1       3.782   3.887  18.203  0.00  0.00    +0.000 A 
ATOM     21  C   UNL     1       4.335   3.614  19.468  0.00  0.00    +0.000 A 
ATOM     22  C   UNL     1       3.544   3.213  20.553  0.00  0.00    +0.000 A 
ATOM     23  C   UNL     1       2.184   3.000  20.378  0.00  0.00    +0.000 A 
ATOM     24 CL   UNL     1       1.214   2.491  21.704  0.00  0.00    +0.000 Cl
ATOM     25  C   UNL     1       1.607   3.197  19.131  0.00  0.00    +0.000 A 
ATOM     26  C   UNL     1       2.395   3.653  18.064  0.00  0.00    +0.000 A 
ENDBRANCH  19  20
ENDBRANCH  11  14
ENDBRANCH   1  12
BRANCH   8  27
ATOM     27  N   UNL     1      -0.309  10.805  22.943  0.00  0.00    +0.000 NA
ATOM     28  H   UNL     1       0.605  10.797  23.401  0.00  0.00    +0.000 HD
BRANCH  27  29
ATOM     29  C   UNL     1      -0.680  12.212  22.715  0.00  0.00    +0.000 C 
BRANCH  29  30
ATOM     30  C   UNL     1      -2.178  12.428  22.682  0.00  0.00    +0.000 A 
ATOM     31  C   UNL     1      -2.822  12.730  21.482  0.00  0.00    +0.000 A 
ATOM     32  C   UNL     1      -4.193  12.947  21.489  0.00  0.00    +0.000 A 
ATOM     33  C   UNL     1      -4.889  12.865  22.689  0.00  0.00    +0.000 A 
ATOM     34  C   UNL     1      -4.178  12.558  23.838  0.00  0.00    +0.000 A 
ATOM     35  N   UNL     1      -2.846  12.335  23.861  0.00  0.00    +0.000 NA
ENDBRANCH  29  30
ENDBRANCH  27  29
ENDBRANCH   8  27
TORSDOF 6
ENDMDL
MODEL 5
REMARK VINA RESULT:      -8.7      0.904      1.305
REMARK  Name = 
REMARK  6 active torsions:
REMARK  status: ('A' for Active; 'I' for Inactive)
REMARK    1  A    between atoms: C_2  and  C_21
REMARK    2  A    between atoms: N_3  and  C_4
REMARK    3  A    between atoms: C_11  and  N_12
REMARK    4  A    between atoms: N_12  and  C_13
REMARK    5  A    between atoms: C_13  and  C_14
REMARK    6  A    between atoms: C_26  and  C_27
REMARK                            x       y       z     vdW  Elec       q    Type
REMARK                         _______ _______ _______ _____ _____    ______ ____
ROOT
ATOM      1  C   UNL     1       2.006   7.778  18.286  0.00  0.00    +0.000 A 
ATOM      2  C   UNL     1       1.548   8.854  17.509  0.00  0.00    +0.000 A 
ATOM      3  C   UNL     1       0.842   9.903  18.096  0.00  0.00    +0.000 A 
ATOM      4  C   UNL     1       0.669   9.886  19.469  0.00  0.00    +0.000 A 
ATOM      5  C   UNL     1       1.169   8.843  20.255  0.00  0.00    +0.000 A 
ATOM      6  C   UNL     1       1.816   7.763  19.673  0.00  0.00    +0.000 A 
ATOM      7  C   UNL     1       0.972   9.141  21.713  0.00  0.00    +0.000 C 
ATOM      8  C   UNL     1      -0.171  10.189  21.657  0.00  0.00    +0.000 C 
ATOM      9  C   UNL     1       0.024  10.936  20.313  0.00  0.00    +0.000 C 
ENDROOT
BRANCH   1  12
ATOM     10  O   UNL     1       4.777   7.923  17.710  0.00  0.00    +0.000 OA
ATOM     11  C   UNL     1       4.120   6.942  17.381  0.00  0.00    +0.000 C 
ATOM     12  N   UNL     1       2.767   6.781  17.657  0.00  0.00    +0.000 N 
ATOM     13  H   UNL     1       2.421   5.840  17.767  0.00  0.00    +0.000 HD
BRANCH  11  14
ATOM     14  C   UNL     1       4.779   5.792  16.676  0.00  0.00    +0.000 A 
ATOM     15  C   UNL     1       5.611   6.100  15.573  0.00  0.00    +0.000 A 
ATOM     16  C   UNL     1       6.269   5.104  14.855  0.00  0.00    +0.000 A 
ATOM     17  C   UNL     1       6.088   3.780  15.212  0.00  0.00    +0.000 A 
ATOM     18  C   UNL     1       5.257   3.457  16.289  0.00  0.00    +0.000 A 
ATOM     19  C   UNL     1       4.571   4.435  17.054  0.00  0.00    +0.000 A 
BRANCH  19  20
ATOM     20  C   UNL     1       3.707   3.961  18.181  0.00  0.00    +0.000 A 
ATOM     21  C   UNL     1       2.390   3.501  17.992  0.00  0.00    +0.000 A 
ATOM     22  C   UNL     1       1.617   3.007  19.051  0.00  0.00    +0.000 A 
ATOM     23  C   UNL     1       2.118   3.032  20.346  0.00  0.00    +0.000 A 
ATOM     24 CL   UNL     1       1.165   2.442  21.650  0.00  0.00    +0.000 Cl
ATOM     25  C   UNL     1       3.389   3.536  20.586  0.00  0.00    +0.000 A 
ATOM     26  C   UNL     1       4.178   3.976  19.513  0.00  0.00    +0.000 A 
ENDBRANCH  19  20
ENDBRANCH  11  14
ENDBRANCH   1  12
BRANCH   8  27
ATOM     27  N   UNL     1      -0.203  11.061  22.839  0.00  0.00    +0.000 NA
ATOM     28  H   UNL     1       0.698  11.017  23.320  0.00  0.00    +0.000 HD
BRANCH  27  29
ATOM     29  C   UNL     1      -0.433  12.465  22.456  0.00  0.00    +0.000 C 
BRANCH  29  30
ATOM     30  C   UNL     1      -1.467  13.150  23.324  0.00  0.00    +0.000 A 
ATOM     31  C   UNL     1      -2.755  12.627  23.435  0.00  0.00    +0.000 A 
ATOM     32  C   UNL     1      -3.688  13.293  24.219  0.00  0.00    +0.000 A 
ATOM     33  C   UNL     1      -3.319  14.464  24.868  0.00  0.00    +0.000 A 
ATOM     34  C   UNL     1      -2.020  14.919  24.710  0.00  0.00    +0.000 A 
ATOM     35  N   UNL     1      -1.089  14.289  23.961  0.00  0.00    +0.000 NA
ENDBRANCH  29  30
ENDBRANCH  27  29
ENDBRANCH   8  27
TORSDOF 6
ENDMDL
MODEL 6
REMARK VINA RESULT:      -8.7      3.239      4.708
REMARK  Name = 
REMARK  6 active torsions:
REMARK  status: ('A' for Active; 'I' for Inactive)
REMARK    1  A    between atoms: C_2  and  C_21
REMARK    2  A    between atoms: N_3  and  C_4
REMARK    3  A    between atoms: C_11  and  N_12
REMARK    4  A    between atoms: N_12  and  C_13
REMARK    5  A    between atoms: C_13  and  C_14
REMARK    6  A    between atoms: C_26  and  C_27
REMARK                            x       y       z     vdW  Elec       q    Type
REMARK                         _______ _______ _______ _____ _____    ______ ____
ROOT
ATOM      1  C   UNL     1       1.806   8.144  19.658  0.00  0.00    +0.000 A 
ATOM      2  C   UNL     1       2.258   8.575  18.401  0.00  0.00    +0.000 A 
ATOM      3  C   UNL     1       1.945   9.851  17.934  0.00  0.00    +0.000 A 
ATOM      4  C   UNL     1       1.239  10.697  18.771  0.00  0.00    +0.000 A 
ATOM      5  C   UNL     1       0.831  10.291  20.046  0.00  0.00    +0.000 A 
ATOM      6  C   UNL     1       1.081   9.002  20.494  0.00  0.00    +0.000 A 
ATOM      7  C   UNL     1       0.216  11.439  20.792  0.00  0.00    +0.000 C 
ATOM      8  C   UNL     1      -0.179  12.383  19.627  0.00  0.00    +0.000 C 
ATOM      9  C   UNL     1       0.868  12.121  18.515  0.00  0.00    +0.000 C 
ENDROOT
BRANCH   1  12
ATOM     10  O   UNL     1       1.962   5.796  18.079  0.00  0.00    +0.000 OA
ATOM     11  C   UNL     1       2.224   5.763  19.275  0.00  0.00    +0.000 C 
ATOM     12  N   UNL     1       2.204   6.875  20.109  0.00  0.00    +0.000 N 
ATOM     13  H   UNL     1       2.824   6.876  20.904  0.00  0.00    +0.000 HD
BRANCH  11  14
ATOM     14  C   UNL     1       2.645   4.475  19.922  0.00  0.00    +0.000 A 
ATOM     15  C   UNL     1       1.897   4.038  21.042  0.00  0.00    +0.000 A 
ATOM     16  C   UNL     1       2.207   2.856  21.709  0.00  0.00    +0.000 A 
ATOM     17  C   UNL     1       3.285   2.101  21.284  0.00  0.00    +0.000 A 
ATOM     18  C   UNL     1       4.044   2.526  20.190  0.00  0.00    +0.000 A 
ATOM     19  C   UNL     1       3.765   3.718  19.474  0.00  0.00    +0.000 A 
BRANCH  19  20
ATOM     20  C   UNL     1       4.655   4.068  18.323  0.00  0.00    +0.000 A 
ATOM     21  C   UNL     1       5.812   4.856  18.463  0.00  0.00    +0.000 A 
ATOM     22  C   UNL     1       6.665   5.123  17.384  0.00  0.00    +0.000 A 
ATOM     23  C   UNL     1       6.338   4.669  16.113  0.00  0.00    +0.000 A 
ATOM     24 CL   UNL     1       7.374   5.011  14.784  0.00  0.00    +0.000 Cl
ATOM     25  C   UNL     1       5.172   3.941  15.917  0.00  0.00    +0.000 A 
ATOM     26  C   UNL     1       4.354   3.630  17.013  0.00  0.00    +0.000 A 
ENDBRANCH  19  20
ENDBRANCH  11  14
ENDBRANCH   1  12
BRANCH   8  27
ATOM     27  N   UNL     1      -0.287  13.788  20.043  0.00  0.00    +0.000 NA
ATOM     28  H   UNL     1      -0.489  13.833  21.044  0.00  0.00    +0.000 HD
BRANCH  27  29
ATOM     29  C   UNL     1       0.978  14.508  19.812  0.00  0.00    +0.000 C 
BRANCH  29  30
ATOM     30  C   UNL     1       0.800  15.758  18.977  0.00  0.00    +0.000 A 
ATOM     31  C   UNL     1      -0.477  16.233  18.679  0.00  0.00    +0.000 A 
ATOM     32  C   UNL     1      -0.607  17.367  17.889  0.00  0.00    +0.000 A 
ATOM     33  C   UNL     1       0.535  17.997  17.411  0.00  0.00    +0.000 A 
ATOM     34  C   UNL     1       1.768  17.466  17.752  0.00  0.00    +0.000 A 
ATOM     35  N   UNL     1       1.926  16.369  18.524  0.00  0.00    +0.000 NA
ENDBRANCH  29  30
ENDBRANCH  27  29
ENDBRANCH   8  27
TORSDOF 6
ENDMDL
MODEL 7
REMARK VINA RESULT:      -8.7      0.955      1.582
REMARK  Name = 
REMARK  6 active torsions:
REMARK  status: ('A' for Active; 'I' for Inactive)
REMARK    1  A    between atoms: C_2  and  C_21
REMARK    2  A    between atoms: N_3  and  C_4
REMARK    3  A    between atoms: C_11  and  N_12
REMARK    4  A    between atoms: N_12  and  C_13
REMARK    5  A    between atoms: C_13  and  C_14
REMARK    6  A    between atoms: C_26  and  C_27
REMARK                            x       y       z     vdW  Elec       q    Type
REMARK                         _______ _______ _______ _____ _____    ______ ____
ROOT
ATOM      1  C   UNL     1       2.089   7.973  18.279  0.00  0.00    +0.000 A 
ATOM      2  C   UNL     1       1.976   9.217  17.636  0.00  0.00    +0.000 A 
ATOM      3  C   UNL     1       1.356  10.290  18.274  0.00  0.00    +0.000 A 
ATOM      4  C   UNL     1       0.920  10.113  19.576  0.00  0.00    +0.000 A 
ATOM      5  C   UNL     1       1.078   8.892  20.240  0.00  0.00    +0.000 A 
ATOM      6  C   UNL     1       1.635   7.800  19.592  0.00  0.00    +0.000 A 
ATOM      7  C   UNL     1       0.656   9.015  21.675  0.00  0.00    +0.000 C 
ATOM      8  C   UNL     1      -0.263  10.263  21.616  0.00  0.00    +0.000 C 
ATOM      9  C   UNL     1       0.310  11.140  20.474  0.00  0.00    +0.000 C 
ENDROOT
BRANCH   1  12
ATOM     10  O   UNL     1       4.896   7.827  17.917  0.00  0.00    +0.000 OA
ATOM     11  C   UNL     1       4.160   6.963  17.455  0.00  0.00    +0.000 C 
ATOM     12  N   UNL     1       2.780   6.945  17.619  0.00  0.00    +0.000 N 
ATOM     13  H   UNL     1       2.319   6.047  17.619  0.00  0.00    +0.000 HD
BRANCH  11  14
ATOM     14  C   UNL     1       4.738   5.802  16.699  0.00  0.00    +0.000 A 
ATOM     15  C   UNL     1       5.535   6.099  15.567  0.00  0.00    +0.000 A 
ATOM     16  C   UNL     1       6.118   5.092  14.801  0.00  0.00    +0.000 A 
ATOM     17  C   UNL     1       5.895   3.770  15.138  0.00  0.00    +0.000 A 
ATOM     18  C   UNL     1       5.097   3.458  16.243  0.00  0.00    +0.000 A 
ATOM     19  C   UNL     1       4.487   4.446  17.057  0.00  0.00    +0.000 A 
BRANCH  19  20
ATOM     20  C   UNL     1       3.651   3.985  18.210  0.00  0.00    +0.000 A 
ATOM     21  C   UNL     1       2.266   3.758  18.106  0.00  0.00    +0.000 A 
ATOM     22  C   UNL     1       1.511   3.269  19.181  0.00  0.00    +0.000 A 
ATOM     23  C   UNL     1       2.113   3.068  20.416  0.00  0.00    +0.000 A 
ATOM     24 CL   UNL     1       1.185   2.485  21.741  0.00  0.00    +0.000 Cl
ATOM     25  C   UNL     1       3.465   3.339  20.580  0.00  0.00    +0.000 A 
ATOM     26  C   UNL     1       4.224   3.773  19.484  0.00  0.00    +0.000 A 
ENDBRANCH  19  20
ENDBRANCH  11  14
ENDBRANCH   1  12
BRANCH   8  27
ATOM     27  N   UNL     1      -0.376  10.949  22.911  0.00  0.00    +0.000 NA
ATOM     28  H   UNL     1       0.530  10.937  23.383  0.00  0.00    +0.000 HD
BRANCH  27  29
ATOM     29  C   UNL     1      -0.766  12.359  22.731  0.00  0.00    +0.000 C 
BRANCH  29  30
ATOM     30  C   UNL     1      -2.266  12.550  22.663  0.00  0.00    +0.000 A 
ATOM     31  C   UNL     1      -3.038  12.501  23.824  0.00  0.00    +0.000 A 
ATOM     32  C   UNL     1      -4.414  12.655  23.726  0.00  0.00    +0.000 A 
ATOM     33  C   UNL     1      -4.989  12.849  22.476  0.00  0.00    +0.000 A 
ATOM     34  C   UNL     1      -4.155  12.888  21.370  0.00  0.00    +0.000 A 
ATOM     35  N   UNL     1      -2.813  12.749  21.436  0.00  0.00    +0.000 NA
ENDBRANCH  29  30
ENDBRANCH  27  29
ENDBRANCH   8  27
TORSDOF 6
ENDMDL
MODEL 8
REMARK VINA RESULT:      -8.7      1.531      2.242
REMARK  Name = 
REMARK  6 active torsions:
REMARK  status: ('A' for Active; 'I' for Inactive)
REMARK    1  A    between atoms: C_2  and  C_21
REMARK    2  A    between atoms: N_3  and  C_4
REMARK    3  A    between atoms: C_11  and  N_12
REMARK    4  A    between atoms: N_12  and  C_13
REMARK    5  A    between atoms: C_13  and  C_14
REMARK    6  A    between atoms: C_26  and  C_27
REMARK                            x       y       z     vdW  Elec       q    Type
REMARK                         _______ _______ _______ _____ _____    ______ ____
ROOT
ATOM      1  C   UNL     1       2.324   7.630  18.570  0.00  0.00    +0.000 A 
ATOM      2  C   UNL     1       2.143   7.383  19.940  0.00  0.00    +0.000 A 
ATOM      3  C   UNL     1       1.445   8.289  20.737  0.00  0.00    +0.000 A 
ATOM      4  C   UNL     1       0.881   9.396  20.128  0.00  0.00    +0.000 A 
ATOM      5  C   UNL     1       1.013   9.619  18.753  0.00  0.00    +0.000 A 
ATOM      6  C   UNL     1       1.760   8.759  17.963  0.00  0.00    +0.000 A 
ATOM      7  C   UNL     1       0.191  10.802  18.331  0.00  0.00    +0.000 C 
ATOM      8  C   UNL     1       0.018  11.550  19.679  0.00  0.00    +0.000 C 
ATOM      9  C   UNL     1       0.028  10.444  20.765  0.00  0.00    +0.000 C 
ENDROOT
BRANCH   1  12
ATOM     10  O   UNL     1       5.029   7.719  17.728  0.00  0.00    +0.000 OA
ATOM     11  C   UNL     1       4.302   6.789  17.400  0.00  0.00    +0.000 C 
ATOM     12  N   UNL     1       2.977   6.655  17.799  0.00  0.00    +0.000 N 
ATOM     13  H   UNL     1       2.603   5.722  17.878  0.00  0.00    +0.000 HD
BRANCH  11  14
ATOM     14  C   UNL     1       4.839   5.671  16.554  0.00  0.00    +0.000 A 
ATOM     15  C   UNL     1       5.571   6.029  15.396  0.00  0.00    +0.000 A 
ATOM     16  C   UNL     1       6.112   5.066  14.548  0.00  0.00    +0.000 A 
ATOM     17  C   UNL     1       5.912   3.727  14.829  0.00  0.00    +0.000 A 
ATOM     18  C   UNL     1       5.177   3.355  15.959  0.00  0.00    +0.000 A 
ATOM     19  C   UNL     1       4.612   4.298  16.856  0.00  0.00    +0.000 A 
BRANCH  19  20
ATOM     20  C   UNL     1       3.843   3.774  18.028  0.00  0.00    +0.000 A 
ATOM     21  C   UNL     1       4.422   3.576  19.295  0.00  0.00    +0.000 A 
ATOM     22  C   UNL     1       3.672   3.141  20.396  0.00  0.00    +0.000 A 
ATOM     23  C   UNL     1       2.331   2.817  20.236  0.00  0.00    +0.000 A 
ATOM     24 CL   UNL     1       1.412   2.266  21.581  0.00  0.00    +0.000 Cl
ATOM     25  C   UNL     1       1.734   2.938  18.989  0.00  0.00    +0.000 A 
ATOM     26  C   UNL     1       2.478   3.428  17.906  0.00  0.00    +0.000 A 
ENDBRANCH  19  20
ENDBRANCH  11  14
ENDBRANCH   1  12
BRANCH   8  27
ATOM     27  N   UNL     1      -1.169  12.416  19.704  0.00  0.00    +0.000 NA
ATOM     28  H   UNL     1      -1.924  11.974  19.175  0.00  0.00    +0.000 HD
BRANCH  27  29
ATOM     29  C   UNL     1      -1.650  12.617  21.082  0.00  0.00    +0.000 C 
BRANCH  29  30
ATOM     30  C   UNL     1      -3.160  12.698  21.172  0.00  0.00    +0.000 A 
ATOM     31  C   UNL     1      -3.785  12.862  22.408  0.00  0.00    +0.000 A 
ATOM     32  C   UNL     1      -5.171  12.907  22.461  0.00  0.00    +0.000 A 
ATOM     33  C   UNL     1      -5.901  12.784  21.285  0.00  0.00    +0.000 A 
ATOM     34  C   UNL     1      -5.207  12.627  20.097  0.00  0.00    +0.000 A 
ATOM     35  N   UNL     1      -3.859  12.586  20.013  0.00  0.00    +0.000 NA
ENDBRANCH  29  30
ENDBRANCH  27  29
ENDBRANCH   8  27
TORSDOF 6
ENDMDL
MODEL 9
REMARK VINA RESULT:      -8.6      2.373      3.048
REMARK  Name = 
REMARK  6 active torsions:
REMARK  status: ('A' for Active; 'I' for Inactive)
REMARK    1  A    between atoms: C_2  and  C_21
REMARK    2  A    between atoms: N_3  and  C_4
REMARK    3  A    between atoms: C_11  and  N_12
REMARK    4  A    between atoms: N_12  and  C_13
REMARK    5  A    between atoms: C_13  and  C_14
REMARK    6  A    between atoms: C_26  and  C_27
REMARK                            x       y       z     vdW  Elec       q    Type
REMARK                         _______ _______ _______ _____ _____    ______ ____
ROOT
ATOM      1  C   UNL     1       2.319   7.826  18.464  0.00  0.00    +0.000 A 
ATOM      2  C   UNL     1       2.116   7.609  19.837  0.00  0.00    +0.000 A 
ATOM      3  C   UNL     1       1.434   8.548  20.609  0.00  0.00    +0.000 A 
ATOM      4  C   UNL     1       0.907   9.658  19.973  0.00  0.00    +0.000 A 
ATOM      5  C   UNL     1       1.060   9.852  18.596  0.00  0.00    +0.000 A 
ATOM      6  C   UNL     1       1.793   8.957  17.831  0.00  0.00    +0.000 A 
ATOM      7  C   UNL     1       0.275  11.049  18.143  0.00  0.00    +0.000 C 
ATOM      8  C   UNL     1       0.108  11.826  19.475  0.00  0.00    +0.000 C 
ATOM      9  C   UNL     1       0.076  10.741  20.581  0.00  0.00    +0.000 C 
ENDROOT
BRANCH   1  12
ATOM     10  O   UNL     1       5.069   7.751  17.782  0.00  0.00    +0.000 OA
ATOM     11  C   UNL     1       4.305   6.872  17.400  0.00  0.00    +0.000 C 
ATOM     12  N   UNL     1       2.954   6.819  17.720  0.00  0.00    +0.000 N 
ATOM     13  H   UNL     1       2.518   5.911  17.764  0.00  0.00    +0.000 HD
BRANCH  11  14
ATOM     14  C   UNL     1       4.821   5.731  16.571  0.00  0.00    +0.000 A 
ATOM     15  C   UNL     1       5.578   6.057  15.420  0.00  0.00    +0.000 A 
ATOM     16  C   UNL     1       6.101   5.070  14.588  0.00  0.00    +0.000 A 
ATOM     17  C   UNL     1       5.858   3.740  14.878  0.00  0.00    +0.000 A 
ATOM     18  C   UNL     1       5.098   3.401  16.002  0.00  0.00    +0.000 A 
ATOM     19  C   UNL     1       4.549   4.368  16.882  0.00  0.00    +0.000 A 
BRANCH  19  20
ATOM     20  C   UNL     1       3.749   3.878  18.049  0.00  0.00    +0.000 A 
ATOM     21  C   UNL     1       2.391   3.523  17.949  0.00  0.00    +0.000 A 
ATOM     22  C   UNL     1       1.675   3.011  19.039  0.00  0.00    +0.000 A 
ATOM     23  C   UNL     1       2.283   2.912  20.284  0.00  0.00    +0.000 A 
ATOM     24 CL   UNL     1       1.401   2.300  21.627  0.00  0.00    +0.000 Cl
ATOM     25  C   UNL     1       3.604   3.311  20.442  0.00  0.00    +0.000 A 
ATOM     26  C   UNL     1       4.330   3.769  19.333  0.00  0.00    +0.000 A 
ENDBRANCH  19  20
ENDBRANCH  11  14
ENDBRANCH   1  12
BRANCH   8  27
ATOM     27  N   UNL     1      -1.056  12.724  19.469  0.00  0.00    +0.000 NA
ATOM     28  H   UNL     1      -1.297  12.961  18.505  0.00  0.00    +0.000 HD
BRANCH  27  29
ATOM     29  C   UNL     1      -2.230  12.072  20.074  0.00  0.00    +0.000 C 
BRANCH  29  30
ATOM     30  C   UNL     1      -3.426  12.034  19.146  0.00  0.00    +0.000 A 
ATOM     31  C   UNL     1      -4.688  12.412  19.604  0.00  0.00    +0.000 A 
ATOM     32  C   UNL     1      -5.769  12.342  18.736  0.00  0.00    +0.000 A 
ATOM     33  C   UNL     1      -5.569  11.893  17.436  0.00  0.00    +0.000 A 
ATOM     34  C   UNL     1      -4.285  11.538  17.056  0.00  0.00    +0.000 A 
ATOM     35  N   UNL     1      -3.213  11.602  17.875  0.00  0.00    +0.000 NA
ENDBRANCH  29  30
ENDBRANCH  27  29
ENDBRANCH   8  27
TORSDOF 6
ENDMDL
