MODEL 1
REMARK VINA RESULT:      -8.1      0.000      0.000
REMARK  Name = 
REMARK  9 active torsions:
REMARK  status: ('A' for Active; 'I' for Inactive)
REMARK    1  A    between atoms: C_1  and  C_2
REMARK    2  A    between atoms: C_7  and  O_8
REMARK    3  A    between atoms: O_8  and  C_9
REMARK    4  A    between atoms: C_9  and  C_10
REMARK    5  A    between atoms: N_12  and  N_13
REMARK    6  A    between atoms: C_14  and  C_16
REMARK    7  A    between atoms: N_19  and  C_20
REMARK    8  A    between atoms: C_26  and  C_27
REMARK    9  A    between atoms: C_28  and  C_29
REMARK                            x       y       z     vdW  Elec       q    Type
REMARK                         _______ _______ _______ _____ _____    ______ ____
ROOT
ATOM      1  N   UNL     1       1.934   6.574  20.826  0.00  0.00    +0.000 N 
ATOM      2  C   UNL     1       1.698   7.754  20.150  0.00  0.00    +0.000 C 
ATOM      3  O   UNL     1       2.347   8.104  19.166  0.00  0.00    +0.000 OA
ATOM      4  H   UNL     1       1.585   6.423  21.776  0.00  0.00    +0.000 HD
ENDROOT
BRANCH   2   5
ATOM      5  C   UNL     1       0.579   8.611  20.730  0.00  0.00    +0.000 C 
ATOM      6  C   UNL     1       0.874   9.006  22.196  0.00  0.00    +0.000 C 
ATOM      7  C   UNL     1      -0.144  10.017  22.741  0.00  0.00    +0.000 C 
ATOM      8  N   UNL     1      -0.190  11.132  21.787  0.00  0.00    +0.000 N 
ATOM      9  C   UNL     1      -0.741  10.722  20.496  0.00  0.00    +0.000 C 
ATOM     10  C   UNL     1       0.336   9.846  19.853  0.00  0.00    +0.000 C 
BRANCH   8  11
ATOM     11  C   UNL     1      -0.645  12.360  22.268  0.00  0.00    +0.000 A 
ATOM     12  N   UNL     1      -1.717  12.377  23.102  0.00  0.00    +0.000 NA
ATOM     13  C   UNL     1      -2.147  13.545  23.596  0.00  0.00    +0.000 A 
ATOM     14  N   UNL     1      -1.643  14.756  23.373  0.00  0.00    +0.000 NA
ATOM     15  C   UNL     1      -0.568  14.720  22.567  0.00  0.00    +0.000 A 
ATOM     16  S   UNL     1       0.231  16.168  22.174  0.00  0.00    +0.000 S 
ATOM     17  C   UNL     1       1.393  15.357  21.233  0.00  0.00    +0.000 A 
ATOM     18  C   UNL     1       2.471  16.124  20.537  0.00  0.00    +0.000 C 
ATOM     19  C   UNL     1       1.204  13.983  21.229  0.00  0.00    +0.000 A 
ATOM     20  C   UNL     1       2.150  13.062  20.528  0.00  0.00    +0.000 C 
ATOM     21  C   UNL     1       0.007  13.598  21.983  0.00  0.00    +0.000 A 
ENDBRANCH   8  11
ENDBRANCH   2   5
BRANCH   1  24
ATOM     22  C   UNL     1       2.791   4.690  19.666  0.00  0.00    +0.000 C 
ATOM     23  O   UNL     1       1.658   4.387  19.296  0.00  0.00    +0.000 OA
ATOM     24  N   UNL     1       3.030   5.788  20.467  0.00  0.00    +0.000 N 
ATOM     25  H   UNL     1       3.954   6.104  20.751  0.00  0.00    +0.000 HD
BRANCH  22  26
ATOM     26  C   UNL     1       4.030   3.894  19.285  0.00  0.00    +0.000 C 
BRANCH  26  27
ATOM     27  O   UNL     1       4.535   4.359  18.051  0.00  0.00    +0.000 OA
BRANCH  27  34
ATOM     28  C   UNL     1       4.994   6.687  15.942  0.00  0.00    +0.000 C 
ATOM     29  C   UNL     1       5.840   6.296  17.121  0.00  0.00    +0.000 A 
ATOM     30  C   UNL     1       7.014   7.068  17.312  0.00  0.00    +0.000 A 
ATOM     31  C   UNL     1       7.892   6.820  18.370  0.00  0.00    +0.000 A 
ATOM     32  C   UNL     1       7.614   5.800  19.262  0.00  0.00    +0.000 A 
ATOM     33  C   UNL     1       6.464   5.029  19.089  0.00  0.00    +0.000 A 
ATOM     34  C   UNL     1       5.569   5.257  18.023  0.00  0.00    +0.000 A 
ENDBRANCH  27  34
ENDBRANCH  26  27
ENDBRANCH  22  26
ENDBRANCH   1  24
TORSDOF 6
ENDMDL
MODEL 2
REMARK VINA RESULT:      -8.1      6.202      7.912
REMARK  Name = 
REMARK  9 active torsions:
REMARK  status: ('A' for Active; 'I' for Inactive)
REMARK    1  A    between atoms: C_1  and  C_2
REMARK    2  A    between atoms: C_7  and  O_8
REMARK    3  A    between atoms: O_8  and  C_9
REMARK    4  A    between atoms: C_9  and  C_10
REMARK    5  A    between atoms: N_12  and  N_13
REMARK    6  A    between atoms: C_14  and  C_16
REMARK    7  A    between atoms: N_19  and  C_20
REMARK    8  A    between atoms: C_26  and  C_27
REMARK    9  A    between atoms: C_28  and  C_29
REMARK                            x       y       z     vdW  Elec       q    Type
REMARK                         _______ _______ _______ _____ _____    ______ ____
ROOT
ATOM      1  N   UNL     1       7.255   8.066  17.146  0.00  0.00    +0.000 N 
ATOM      2  C   UNL     1       8.218   8.315  18.103  0.00  0.00    +0.000 C 
ATOM      3  O   UNL     1       8.517   7.506  18.980  0.00  0.00    +0.000 OA
ATOM      4  H   UNL     1       6.831   8.823  16.604  0.00  0.00    +0.000 HD
ENDROOT
BRANCH   2   5
ATOM      5  C   UNL     1       8.873   9.688  18.009  0.00  0.00    +0.000 C 
ATOM      6  C   UNL     1       7.841  10.781  17.646  0.00  0.00    +0.000 C 
ATOM      7  C   UNL     1       8.438  12.193  17.726  0.00  0.00    +0.000 C 
ATOM      8  N   UNL     1       9.049  12.322  19.054  0.00  0.00    +0.000 N 
ATOM      9  C   UNL     1      10.198  11.432  19.214  0.00  0.00    +0.000 C 
ATOM     10  C   UNL     1       9.612  10.023  19.311  0.00  0.00    +0.000 C 
BRANCH   8  11
ATOM     11  C   UNL     1       9.221  13.614  19.550  0.00  0.00    +0.000 A 
ATOM     12  N   UNL     1       9.502  14.616  18.677  0.00  0.00    +0.000 NA
ATOM     13  C   UNL     1       9.640  15.868  19.133  0.00  0.00    +0.000 A 
ATOM     14  N   UNL     1       9.534  16.290  20.391  0.00  0.00    +0.000 NA
ATOM     15  C   UNL     1       9.230  15.292  21.239  0.00  0.00    +0.000 A 
ATOM     16  S   UNL     1       9.034  15.632  22.893  0.00  0.00    +0.000 S 
ATOM     17  C   UNL     1       8.666  14.012  23.257  0.00  0.00    +0.000 A 
ATOM     18  C   UNL     1       8.378  13.600  24.665  0.00  0.00    +0.000 C 
ATOM     19  C   UNL     1       8.662  13.205  22.129  0.00  0.00    +0.000 A 
ATOM     20  C   UNL     1       8.292  11.757  22.200  0.00  0.00    +0.000 C 
ATOM     21  C   UNL     1       9.045  13.951  20.927  0.00  0.00    +0.000 A 
ENDBRANCH   8  11
ENDBRANCH   2   5
BRANCH   1  24
ATOM     22  C   UNL     1       6.804   5.871  16.365  0.00  0.00    +0.000 C 
ATOM     23  O   UNL     1       7.698   5.972  15.527  0.00  0.00    +0.000 OA
ATOM     24  N   UNL     1       6.493   6.899  17.230  0.00  0.00    +0.000 N 
ATOM     25  H   UNL     1       5.799   6.839  17.971  0.00  0.00    +0.000 HD
BRANCH  22  26
ATOM     26  C   UNL     1       5.957   4.618  16.530  0.00  0.00    +0.000 C 
BRANCH  26  27
ATOM     27  O   UNL     1       5.329   4.630  17.795  0.00  0.00    +0.000 OA
BRANCH  27  34
ATOM     28  C   UNL     1       2.908   6.655  18.144  0.00  0.00    +0.000 C 
ATOM     29  C   UNL     1       2.886   5.154  18.075  0.00  0.00    +0.000 A 
ATOM     30  C   UNL     1       1.606   4.557  18.195  0.00  0.00    +0.000 A 
ATOM     31  C   UNL     1       1.433   3.172  18.145  0.00  0.00    +0.000 A 
ATOM     32  C   UNL     1       2.534   2.354  17.970  0.00  0.00    +0.000 A 
ATOM     33  C   UNL     1       3.803   2.922  17.851  0.00  0.00    +0.000 A 
ATOM     34  C   UNL     1       4.000   4.318  17.908  0.00  0.00    +0.000 A 
ENDBRANCH  27  34
ENDBRANCH  26  27
ENDBRANCH  22  26
ENDBRANCH   1  24
TORSDOF 6
ENDMDL
MODEL 3
REMARK VINA RESULT:      -8.1      2.491      3.547
REMARK  Name = 
REMARK  9 active torsions:
REMARK  status: ('A' for Active; 'I' for Inactive)
REMARK    1  A    between atoms: C_1  and  C_2
REMARK    2  A    between atoms: C_7  and  O_8
REMARK    3  A    between atoms: O_8  and  C_9
REMARK    4  A    between atoms: C_9  and  C_10
REMARK    5  A    between atoms: N_12  and  N_13
REMARK    6  A    between atoms: C_14  and  C_16
REMARK    7  A    between atoms: N_19  and  C_20
REMARK    8  A    between atoms: C_26  and  C_27
REMARK    9  A    between atoms: C_28  and  C_29
REMARK                            x       y       z     vdW  Elec       q    Type
REMARK                         _______ _______ _______ _____ _____    ______ ____
ROOT
ATOM      1  N   UNL     1       1.860   7.882  20.672  0.00  0.00    +0.000 N 
ATOM      2  C   UNL     1       1.342   9.033  20.114  0.00  0.00    +0.000 C 
ATOM      3  O   UNL     1       1.340   9.249  18.903  0.00  0.00    +0.000 OA
ATOM      4  H   UNL     1       2.100   7.831  21.665  0.00  0.00    +0.000 HD
ENDROOT
BRANCH   2   5
ATOM      5  C   UNL     1       0.790  10.038  21.118  0.00  0.00    +0.000 C 
ATOM      6  C   UNL     1       0.417  11.374  20.433  0.00  0.00    +0.000 C 
ATOM      7  C   UNL     1      -0.309  12.333  21.386  0.00  0.00    +0.000 C 
ATOM      8  N   UNL     1      -1.434  11.588  21.964  0.00  0.00    +0.000 N 
ATOM      9  C   UNL     1      -0.980  10.496  22.824  0.00  0.00    +0.000 C 
ATOM     10  C   UNL     1      -0.404   9.443  21.876  0.00  0.00    +0.000 C 
BRANCH   8  11
ATOM     11  C   UNL     1      -2.500  12.337  22.462  0.00  0.00    +0.000 A 
ATOM     12  N   UNL     1      -2.454  12.760  23.751  0.00  0.00    +0.000 NA
ATOM     13  C   UNL     1      -3.457  13.506  24.235  0.00  0.00    +0.000 A 
ATOM     14  N   UNL     1      -4.550  13.911  23.594  0.00  0.00    +0.000 NA
ATOM     15  C   UNL     1      -4.568  13.506  22.313  0.00  0.00    +0.000 A 
ATOM     16  S   UNL     1      -5.878  13.939  21.318  0.00  0.00    +0.000 S 
ATOM     17  C   UNL     1      -5.208  13.150  19.968  0.00  0.00    +0.000 A 
ATOM     18  C   UNL     1      -5.932  13.143  18.660  0.00  0.00    +0.000 C 
ATOM     19  C   UNL     1      -3.977  12.576  20.249  0.00  0.00    +0.000 A 
ATOM     20  C   UNL     1      -3.169  11.893  19.192  0.00  0.00    +0.000 C 
ATOM     21  C   UNL     1      -3.610  12.742  21.659  0.00  0.00    +0.000 A 
ENDBRANCH   8  11
ENDBRANCH   2   5
BRANCH   1  24
ATOM     22  C   UNL     1       2.438   5.630  20.199  0.00  0.00    +0.000 C 
ATOM     23  O   UNL     1       1.830   5.251  21.198  0.00  0.00    +0.000 OA
ATOM     24  N   UNL     1       2.521   6.963  19.855  0.00  0.00    +0.000 N 
ATOM     25  H   UNL     1       2.967   7.315  19.012  0.00  0.00    +0.000 HD
BRANCH  22  26
ATOM     26  C   UNL     1       3.154   4.679  19.250  0.00  0.00    +0.000 C 
BRANCH  26  27
ATOM     27  O   UNL     1       4.549   4.865  19.354  0.00  0.00    +0.000 OA
BRANCH  27  34
ATOM     28  C   UNL     1       7.628   5.604  19.109  0.00  0.00    +0.000 C 
ATOM     29  C   UNL     1       6.703   5.038  18.068  0.00  0.00    +0.000 A 
ATOM     30  C   UNL     1       7.283   4.815  16.794  0.00  0.00    +0.000 A 
ATOM     31  C   UNL     1       6.543   4.289  15.732  0.00  0.00    +0.000 A 
ATOM     32  C   UNL     1       5.210   3.972  15.920  0.00  0.00    +0.000 A 
ATOM     33  C   UNL     1       4.621   4.187  17.167  0.00  0.00    +0.000 A 
ATOM     34  C   UNL     1       5.348   4.724  18.250  0.00  0.00    +0.000 A 
ENDBRANCH  27  34
ENDBRANCH  26  27
ENDBRANCH  22  26
ENDBRANCH   1  24
TORSDOF 6
ENDMDL
MODEL 4
REMARK VINA RESULT:      -8.0      1.959      2.512
REMARK  Name = 
REMARK  9 active torsions:
REMARK  status: ('A' for Active; 'I' for Inactive)
REMARK    1  A    between atoms: C_1  and  C_2
REMARK    2  A    between atoms: C_7  and  O_8
REMARK    3  A    between atoms: O_8  and  C_9
REMARK    4  A    between atoms: C_9  and  C_10
REMARK    5  A    between atoms: N_12  and  N_13
REMARK    6  A    between atoms: C_14  and  C_16
REMARK    7  A    between atoms: N_19  and  C_20
REMARK    8  A    between atoms: C_26  and  C_27
REMARK    9  A    between atoms: C_28  and  C_29
REMARK                            x       y       z     vdW  Elec       q    Type
REMARK                         _______ _______ _______ _____ _____    ______ ____
ROOT
ATOM      1  N   UNL     1       1.790   7.671  20.403  0.00  0.00    +0.000 N 
ATOM      2  C   UNL     1       1.415   8.571  19.426  0.00  0.00    +0.000 C 
ATOM      3  O   UNL     1       1.833   8.520  18.271  0.00  0.00    +0.000 OA
ATOM      4  H   UNL     1       1.658   7.875  21.397  0.00  0.00    +0.000 HD
ENDROOT
BRANCH   2   5
ATOM      5  C   UNL     1       0.455   9.659  19.893  0.00  0.00    +0.000 C 
ATOM      6  C   UNL     1       1.131  10.611  20.907  0.00  0.00    +0.000 C 
ATOM      7  C   UNL     1       0.247  11.817  21.251  0.00  0.00    +0.000 C 
ATOM      8  N   UNL     1      -0.146  12.433  19.978  0.00  0.00    +0.000 N 
ATOM      9  C   UNL     1      -1.016  11.557  19.194  0.00  0.00    +0.000 C 
ATOM     10  C   UNL     1      -0.113  10.428  18.693  0.00  0.00    +0.000 C 
BRANCH   8  11
ATOM     11  C   UNL     1      -0.526  13.775  20.013  0.00  0.00    +0.000 A 
ATOM     12  N   UNL     1      -1.663  14.113  20.673  0.00  0.00    +0.000 NA
ATOM     13  C   UNL     1      -2.025  15.401  20.742  0.00  0.00    +0.000 A 
ATOM     14  N   UNL     1      -1.391  16.452  20.227  0.00  0.00    +0.000 NA
ATOM     15  C   UNL     1      -0.255  16.103  19.599  0.00  0.00    +0.000 A 
ATOM     16  S   UNL     1       0.710  17.308  18.887  0.00  0.00    +0.000 S 
ATOM     17  C   UNL     1       1.871  16.177  18.373  0.00  0.00    +0.000 A 
ATOM     18  C   UNL     1       3.076  16.625  17.609  0.00  0.00    +0.000 C 
ATOM     19  C   UNL     1       1.555  14.883  18.758  0.00  0.00    +0.000 A 
ATOM     20  C   UNL     1       2.471  13.734  18.479  0.00  0.00    +0.000 C 
ATOM     21  C   UNL     1       0.263  14.823  19.448  0.00  0.00    +0.000 A 
ENDBRANCH   8  11
ENDBRANCH   2   5
BRANCH   1  24
ATOM     22  C   UNL     1       2.419   5.394  20.181  0.00  0.00    +0.000 C 
ATOM     23  O   UNL     1       1.286   5.037  20.499  0.00  0.00    +0.000 OA
ATOM     24  N   UNL     1       2.776   6.725  20.119  0.00  0.00    +0.000 N 
ATOM     25  H   UNL     1       3.683   7.065  19.810  0.00  0.00    +0.000 HD
BRANCH  22  26
ATOM     26  C   UNL     1       3.531   4.416  19.830  0.00  0.00    +0.000 C 
BRANCH  26  27
ATOM     27  O   UNL     1       4.733   5.122  19.607  0.00  0.00    +0.000 OA
BRANCH  27  34
ATOM     28  C   UNL     1       7.812   5.769  19.177  0.00  0.00    +0.000 C 
ATOM     29  C   UNL     1       6.834   5.141  18.225  0.00  0.00    +0.000 A 
ATOM     30  C   UNL     1       7.355   4.799  16.952  0.00  0.00    +0.000 A 
ATOM     31  C   UNL     1       6.562   4.205  15.968  0.00  0.00    +0.000 A 
ATOM     32  C   UNL     1       5.232   3.935  16.236  0.00  0.00    +0.000 A 
ATOM     33  C   UNL     1       4.700   4.265  17.483  0.00  0.00    +0.000 A 
ATOM     34  C   UNL     1       5.482   4.873  18.487  0.00  0.00    +0.000 A 
ENDBRANCH  27  34
ENDBRANCH  26  27
ENDBRANCH  22  26
ENDBRANCH   1  24
TORSDOF 6
ENDMDL
MODEL 5
REMARK VINA RESULT:      -8.0      1.124      1.613
REMARK  Name = 
REMARK  9 active torsions:
REMARK  status: ('A' for Active; 'I' for Inactive)
REMARK    1  A    between atoms: C_1  and  C_2
REMARK    2  A    between atoms: C_7  and  O_8
REMARK    3  A    between atoms: O_8  and  C_9
REMARK    4  A    between atoms: C_9  and  C_10
REMARK    5  A    between atoms: N_12  and  N_13
REMARK    6  A    between atoms: C_14  and  C_16
REMARK    7  A    between atoms: N_19  and  C_20
REMARK    8  A    between atoms: C_26  and  C_27
REMARK    9  A    between atoms: C_28  and  C_29
REMARK                            x       y       z     vdW  Elec       q    Type
REMARK                         _______ _______ _______ _____ _____    ______ ____
ROOT
ATOM      1  N   UNL     1       2.361   6.358  20.646  0.00  0.00    +0.000 N 
ATOM      2  C   UNL     1       2.017   7.448  19.871  0.00  0.00    +0.000 C 
ATOM      3  O   UNL     1       2.528   7.680  18.777  0.00  0.00    +0.000 OA
ATOM      4  H   UNL     1       2.140   6.321  21.644  0.00  0.00    +0.000 HD
ENDROOT
BRANCH   2   5
ATOM      5  C   UNL     1       0.968   8.365  20.487  0.00  0.00    +0.000 C 
ATOM      6  C   UNL     1       1.401   8.857  21.888  0.00  0.00    +0.000 C 
ATOM      7  C   UNL     1       0.451   9.924  22.448  0.00  0.00    +0.000 C 
ATOM      8  N   UNL     1       0.331  10.969  21.425  0.00  0.00    +0.000 N 
ATOM      9  C   UNL     1      -0.341  10.479  20.222  0.00  0.00    +0.000 C 
ATOM     10  C   UNL     1       0.661   9.539  19.549  0.00  0.00    +0.000 C 
BRANCH   8  11
ATOM     11  C   UNL     1      -0.062  12.236  21.855  0.00  0.00    +0.000 A 
ATOM     12  N   UNL     1      -0.859  12.335  22.950  0.00  0.00    +0.000 NA
ATOM     13  C   UNL     1      -1.220  13.546  23.393  0.00  0.00    +0.000 A 
ATOM     14  N   UNL     1      -0.889  14.730  22.884  0.00  0.00    +0.000 NA
ATOM     15  C   UNL     1      -0.080  14.616  21.817  0.00  0.00    +0.000 A 
ATOM     16  S   UNL     1       0.469  16.020  21.031  0.00  0.00    +0.000 S 
ATOM     17  C   UNL     1       1.381  15.124  19.909  0.00  0.00    +0.000 A 
ATOM     18  C   UNL     1       2.164  15.821  18.843  0.00  0.00    +0.000 C 
ATOM     19  C   UNL     1       1.301  13.758  20.134  0.00  0.00    +0.000 A 
ATOM     20  C   UNL     1       2.081  12.780  19.315  0.00  0.00    +0.000 C 
ATOM     21  C   UNL     1       0.392  13.443  21.241  0.00  0.00    +0.000 A 
ENDBRANCH   8  11
ENDBRANCH   2   5
BRANCH   1  24
ATOM     22  C   UNL     1       3.106   4.250  19.850  0.00  0.00    +0.000 C 
ATOM     23  O   UNL     1       1.955   3.820  19.875  0.00  0.00    +0.000 OA
ATOM     24  N   UNL     1       3.415   5.537  20.242  0.00  0.00    +0.000 N 
ATOM     25  H   UNL     1       4.342   5.949  20.187  0.00  0.00    +0.000 HD
BRANCH  22  26
ATOM     26  C   UNL     1       4.295   3.419  19.392  0.00  0.00    +0.000 C 
BRANCH  26  27
ATOM     27  O   UNL     1       5.437   4.242  19.279  0.00  0.00    +0.000 OA
BRANCH  27  34
ATOM     28  C   UNL     1       7.824   6.239  18.648  0.00  0.00    +0.000 C 
ATOM     29  C   UNL     1       6.933   5.495  17.693  0.00  0.00    +0.000 A 
ATOM     30  C   UNL     1       7.185   5.726  16.318  0.00  0.00    +0.000 A 
ATOM     31  C   UNL     1       6.438   5.099  15.318  0.00  0.00    +0.000 A 
ATOM     32  C   UNL     1       5.426   4.225  15.670  0.00  0.00    +0.000 A 
ATOM     33  C   UNL     1       5.161   3.986  17.019  0.00  0.00    +0.000 A 
ATOM     34  C   UNL     1       5.898   4.615  18.044  0.00  0.00    +0.000 A 
ENDBRANCH  27  34
ENDBRANCH  26  27
ENDBRANCH  22  26
ENDBRANCH   1  24
TORSDOF 6
ENDMDL
MODEL 6
REMARK VINA RESULT:      -8.0      2.669      3.778
REMARK  Name = 
REMARK  9 active torsions:
REMARK  status: ('A' for Active; 'I' for Inactive)
REMARK    1  A    between atoms: C_1  and  C_2
REMARK    2  A    between atoms: C_7  and  O_8
REMARK    3  A    between atoms: O_8  and  C_9
REMARK    4  A    between atoms: C_9  and  C_10
REMARK    5  A    between atoms: N_12  and  N_13
REMARK    6  A    between atoms: C_14  and  C_16
REMARK    7  A    between atoms: N_19  and  C_20
REMARK    8  A    between atoms: C_26  and  C_27
REMARK    9  A    between atoms: C_28  and  C_29
REMARK                            x       y       z     vdW  Elec       q    Type
REMARK                         _______ _______ _______ _____ _____    ______ ____
ROOT
ATOM      1  N   UNL     1       2.133   7.663  19.994  0.00  0.00    +0.000 N 
ATOM      2  C   UNL     1       1.611   8.666  19.202  0.00  0.00    +0.000 C 
ATOM      3  O   UNL     1       1.584   8.604  17.973  0.00  0.00    +0.000 OA
ATOM      4  H   UNL     1       2.395   7.833  20.968  0.00  0.00    +0.000 HD
ENDROOT
BRANCH   2   5
ATOM      5  C   UNL     1       1.088   9.876  19.965  0.00  0.00    +0.000 C 
ATOM      6  C   UNL     1       0.653  11.006  19.002  0.00  0.00    +0.000 C 
ATOM      7  C   UNL     1      -0.045  12.158  19.736  0.00  0.00    +0.000 C 
ATOM      8  N   UNL     1      -1.125  11.564  20.534  0.00  0.00    +0.000 N 
ATOM      9  C   UNL     1      -0.605  10.713  21.604  0.00  0.00    +0.000 C 
ATOM     10  C   UNL     1      -0.054   9.469  20.905  0.00  0.00    +0.000 C 
BRANCH   8  11
ATOM     11  C   UNL     1      -2.181  12.399  20.895  0.00  0.00    +0.000 A 
ATOM     12  N   UNL     1      -2.030  13.213  21.972  0.00  0.00    +0.000 NA
ATOM     13  C   UNL     1      -3.024  14.043  22.313  0.00  0.00    +0.000 A 
ATOM     14  N   UNL     1      -4.202  14.191  21.711  0.00  0.00    +0.000 NA
ATOM     15  C   UNL     1      -4.326  13.398  20.633  0.00  0.00    +0.000 A 
ATOM     16  S   UNL     1      -5.756  13.452  19.716  0.00  0.00    +0.000 S 
ATOM     17  C   UNL     1      -5.178  12.295  18.612  0.00  0.00    +0.000 A 
ATOM     18  C   UNL     1      -6.031  11.849  17.467  0.00  0.00    +0.000 C 
ATOM     19  C   UNL     1      -3.890  11.877  18.910  0.00  0.00    +0.000 A 
ATOM     20  C   UNL     1      -3.152  10.917  18.032  0.00  0.00    +0.000 C 
ATOM     21  C   UNL     1      -3.391  12.495  20.143  0.00  0.00    +0.000 A 
ENDBRANCH   8  11
ENDBRANCH   2   5
BRANCH   1  24
ATOM     22  C   UNL     1       2.611   5.339  19.978  0.00  0.00    +0.000 C 
ATOM     23  O   UNL     1       1.958   5.185  21.008  0.00  0.00    +0.000 OA
ATOM     24  N   UNL     1       2.771   6.577  19.391  0.00  0.00    +0.000 N 
ATOM     25  H   UNL     1       3.257   6.741  18.513  0.00  0.00    +0.000 HD
BRANCH  22  26
ATOM     26  C   UNL     1       3.305   4.194  19.254  0.00  0.00    +0.000 C 
BRANCH  26  27
ATOM     27  O   UNL     1       4.705   4.340  19.364  0.00  0.00    +0.000 OA
BRANCH  27  34
ATOM     28  C   UNL     1       7.617   5.590  19.164  0.00  0.00    +0.000 C 
ATOM     29  C   UNL     1       6.757   5.011  18.075  0.00  0.00    +0.000 A 
ATOM     30  C   UNL     1       7.319   5.038  16.775  0.00  0.00    +0.000 A 
ATOM     31  C   UNL     1       6.635   4.531  15.668  0.00  0.00    +0.000 A 
ATOM     32  C   UNL     1       5.377   3.982  15.836  0.00  0.00    +0.000 A 
ATOM     33  C   UNL     1       4.805   3.949  17.109  0.00  0.00    +0.000 A 
ATOM     34  C   UNL     1       5.476   4.463  18.238  0.00  0.00    +0.000 A 
ENDBRANCH  27  34
ENDBRANCH  26  27
ENDBRANCH  22  26
ENDBRANCH   1  24
TORSDOF 6
ENDMDL
MODEL 7
REMARK VINA RESULT:      -7.9      6.672      8.819
REMARK  Name = 
REMARK  9 active torsions:
REMARK  status: ('A' for Active; 'I' for Inactive)
REMARK    1  A    between atoms: C_1  and  C_2
REMARK    2  A    between atoms: C_7  and  O_8
REMARK    3  A    between atoms: O_8  and  C_9
REMARK    4  A    between atoms: C_9  and  C_10
REMARK    5  A    between atoms: N_12  and  N_13
REMARK    6  A    between atoms: C_14  and  C_16
REMARK    7  A    between atoms: N_19  and  C_20
REMARK    8  A    between atoms: C_26  and  C_27
REMARK    9  A    between atoms: C_28  and  C_29
REMARK                            x       y       z     vdW  Elec       q    Type
REMARK                         _______ _______ _______ _____ _____    ______ ____
ROOT
ATOM      1  N   UNL     1       7.790   8.827  17.425  0.00  0.00    +0.000 N 
ATOM      2  C   UNL     1       8.641   9.519  18.263  0.00  0.00    +0.000 C 
ATOM      3  O   UNL     1       8.933   9.129  19.392  0.00  0.00    +0.000 OA
ATOM      4  H   UNL     1       7.348   9.278  16.620  0.00  0.00    +0.000 HD
ENDROOT
BRANCH   2   5
ATOM      5  C   UNL     1       9.177  10.826  17.693  0.00  0.00    +0.000 C 
ATOM      6  C   UNL     1       8.108  11.942  17.737  0.00  0.00    +0.000 C 
ATOM      7  C   UNL     1       8.679  13.310  17.340  0.00  0.00    +0.000 C 
ATOM      8  N   UNL     1       9.860  13.539  18.181  0.00  0.00    +0.000 N 
ATOM      9  C   UNL     1      10.935  12.595  17.879  0.00  0.00    +0.000 C 
ATOM     10  C   UNL     1      10.460  11.247  18.423  0.00  0.00    +0.000 C 
BRANCH   8  11
ATOM     11  C   UNL     1      10.261  14.862  18.364  0.00  0.00    +0.000 A 
ATOM     12  N   UNL     1      10.465  15.639  17.270  0.00  0.00    +0.000 NA
ATOM     13  C   UNL     1      10.821  16.921  17.430  0.00  0.00    +0.000 A 
ATOM     14  N   UNL     1      11.012  17.574  18.574  0.00  0.00    +0.000 NA
ATOM     15  C   UNL     1      10.782  16.799  19.647  0.00  0.00    +0.000 A 
ATOM     16  S   UNL     1      10.956  17.456  21.205  0.00  0.00    +0.000 S 
ATOM     17  C   UNL     1      10.502  15.996  21.951  0.00  0.00    +0.000 A 
ATOM     18  C   UNL     1      10.459  15.890  23.442  0.00  0.00    +0.000 C 
ATOM     19  C   UNL     1      10.188  15.008  21.030  0.00  0.00    +0.000 A 
ATOM     20  C   UNL     1       9.691  13.664  21.458  0.00  0.00    +0.000 C 
ATOM     21  C   UNL     1      10.399  15.463  19.653  0.00  0.00    +0.000 A 
ENDBRANCH   8  11
ENDBRANCH   2   5
BRANCH   1  24
ATOM     22  C   UNL     1       7.245   6.531  17.171  0.00  0.00    +0.000 C 
ATOM     23  O   UNL     1       7.880   6.484  16.120  0.00  0.00    +0.000 OA
ATOM     24  N   UNL     1       7.129   7.694  17.904  0.00  0.00    +0.000 N 
ATOM     25  H   UNL     1       6.660   7.765  18.803  0.00  0.00    +0.000 HD
BRANCH  22  26
ATOM     26  C   UNL     1       6.527   5.328  17.764  0.00  0.00    +0.000 C 
BRANCH  26  27
ATOM     27  O   UNL     1       5.343   5.749  18.407  0.00  0.00    +0.000 OA
BRANCH  27  34
ATOM     28  C   UNL     1       2.454   7.050  18.198  0.00  0.00    +0.000 C 
ATOM     29  C   UNL     1       2.855   5.607  18.073  0.00  0.00    +0.000 A 
ATOM     30  C   UNL     1       1.793   4.697  17.840  0.00  0.00    +0.000 A 
ATOM     31  C   UNL     1       2.018   3.326  17.699  0.00  0.00    +0.000 A 
ATOM     32  C   UNL     1       3.308   2.834  17.782  0.00  0.00    +0.000 A 
ATOM     33  C   UNL     1       4.366   3.714  18.012  0.00  0.00    +0.000 A 
ATOM     34  C   UNL     1       4.160   5.101  18.166  0.00  0.00    +0.000 A 
ENDBRANCH  27  34
ENDBRANCH  26  27
ENDBRANCH  22  26
ENDBRANCH   1  24
TORSDOF 6
ENDMDL
MODEL 8
REMARK VINA RESULT:      -7.9      3.176      4.964
REMARK  Name = 
REMARK  9 active torsions:
REMARK  status: ('A' for Active; 'I' for Inactive)
REMARK    1  A    between atoms: C_1  and  C_2
REMARK    2  A    between atoms: C_7  and  O_8
REMARK    3  A    between atoms: O_8  and  C_9
REMARK    4  A    between atoms: C_9  and  C_10
REMARK    5  A    between atoms: N_12  and  N_13
REMARK    6  A    between atoms: C_14  and  C_16
REMARK    7  A    between atoms: N_19  and  C_20
REMARK    8  A    between atoms: C_26  and  C_27
REMARK    9  A    between atoms: C_28  and  C_29
REMARK                            x       y       z     vdW  Elec       q    Type
REMARK                         _______ _______ _______ _____ _____    ______ ____
ROOT
ATOM      1  N   UNL     1       0.874   9.547  20.337  0.00  0.00    +0.000 N 
ATOM      2  C   UNL     1       0.987   9.911  21.664  0.00  0.00    +0.000 C 
ATOM      3  O   UNL     1       1.734   9.337  22.455  0.00  0.00    +0.000 OA
ATOM      4  H   UNL     1       0.075   9.840  19.769  0.00  0.00    +0.000 HD
ENDROOT
BRANCH   2   5
ATOM      5  C   UNL     1       0.093  11.070  22.088  0.00  0.00    +0.000 C 
ATOM      6  C   UNL     1      -0.335  11.926  20.873  0.00  0.00    +0.000 C 
ATOM      7  C   UNL     1      -1.381  12.985  21.248  0.00  0.00    +0.000 C 
ATOM      8  N   UNL     1      -2.470  12.283  21.937  0.00  0.00    +0.000 N 
ATOM      9  C   UNL     1      -2.037  11.730  23.219  0.00  0.00    +0.000 C 
ATOM     10  C   UNL     1      -1.123  10.554  22.869  0.00  0.00    +0.000 C 
BRANCH   8  11
ATOM     11  C   UNL     1      -3.719  12.904  21.946  0.00  0.00    +0.000 A 
ATOM     12  N   UNL     1      -4.098  13.592  23.054  0.00  0.00    +0.000 NA
ATOM     13  C   UNL     1      -5.281  14.219  23.066  0.00  0.00    +0.000 A 
ATOM     14  N   UNL     1      -6.186  14.265  22.091  0.00  0.00    +0.000 NA
ATOM     15  C   UNL     1      -5.786  13.602  20.993  0.00  0.00    +0.000 A 
ATOM     16  S   UNL     1      -6.799  13.558  19.628  0.00  0.00    +0.000 S 
ATOM     17  C   UNL     1      -5.677  12.642  18.735  0.00  0.00    +0.000 A 
ATOM     18  C   UNL     1      -5.989  12.221  17.335  0.00  0.00    +0.000 C 
ATOM     19  C   UNL     1      -4.517  12.385  19.450  0.00  0.00    +0.000 A 
ATOM     20  C   UNL     1      -3.361  11.659  18.838  0.00  0.00    +0.000 C 
ATOM     21  C   UNL     1      -4.593  12.912  20.816  0.00  0.00    +0.000 A 
ENDBRANCH   8  11
ENDBRANCH   2   5
BRANCH   1  24
ATOM     22  C   UNL     1       2.049   8.436  18.601  0.00  0.00    +0.000 C 
ATOM     23  O   UNL     1       1.910   9.411  17.866  0.00  0.00    +0.000 OA
ATOM     24  N   UNL     1       1.538   8.406  19.882  0.00  0.00    +0.000 N 
ATOM     25  H   UNL     1       1.675   7.644  20.540  0.00  0.00    +0.000 HD
BRANCH  22  26
ATOM     26  C   UNL     1       2.787   7.174  18.178  0.00  0.00    +0.000 C 
BRANCH  26  27
ATOM     27  O   UNL     1       2.859   6.277  19.266  0.00  0.00    +0.000 OA
BRANCH  27  34
ATOM     28  C   UNL     1       3.859   4.152  17.128  0.00  0.00    +0.000 C 
ATOM     29  C   UNL     1       2.816   4.000  18.200  0.00  0.00    +0.000 A 
ATOM     30  C   UNL     1       2.181   2.734  18.258  0.00  0.00    +0.000 A 
ATOM     31  C   UNL     1       1.196   2.448  19.205  0.00  0.00    +0.000 A 
ATOM     32  C   UNL     1       0.827   3.419  20.118  0.00  0.00    +0.000 A 
ATOM     33  C   UNL     1       1.439   4.672  20.077  0.00  0.00    +0.000 A 
ATOM     34  C   UNL     1       2.430   4.984  19.122  0.00  0.00    +0.000 A 
ENDBRANCH  27  34
ENDBRANCH  26  27
ENDBRANCH  22  26
ENDBRANCH   1  24
TORSDOF 6
ENDMDL
MODEL 9
REMARK VINA RESULT:      -7.8      2.371      3.386
REMARK  Name = 
REMARK  9 active torsions:
REMARK  status: ('A' for Active; 'I' for Inactive)
REMARK    1  A    between atoms: C_1  and  C_2
REMARK    2  A    between atoms: C_7  and  O_8
REMARK    3  A    between atoms: O_8  and  C_9
REMARK    4  A    between atoms: C_9  and  C_10
REMARK    5  A    between atoms: N_12  and  N_13
REMARK    6  A    between atoms: C_14  and  C_16
REMARK    7  A    between atoms: N_19  and  C_20
REMARK    8  A    between atoms: C_26  and  C_27
REMARK    9  A    between atoms: C_28  and  C_29
REMARK                            x       y       z     vdW  Elec       q    Type
REMARK                         _______ _______ _______ _____ _____    ______ ____
ROOT
ATOM      1  N   UNL     1       1.933   7.654  20.874  0.00  0.00    +0.000 N 
ATOM      2  C   UNL     1       1.399   8.783  20.286  0.00  0.00    +0.000 C 
ATOM      3  O   UNL     1       1.366   8.952  19.068  0.00  0.00    +0.000 OA
ATOM      4  H   UNL     1       2.198   7.640  21.862  0.00  0.00    +0.000 HD
ENDROOT
BRANCH   2   5
ATOM      5  C   UNL     1       0.870   9.824  21.264  0.00  0.00    +0.000 C 
ATOM      6  C   UNL     1       0.628  11.183  20.567  0.00  0.00    +0.000 C 
ATOM      7  C   UNL     1      -0.075  12.191  21.486  0.00  0.00    +0.000 C 
ATOM      8  N   UNL     1      -1.279  11.528  22.004  0.00  0.00    +0.000 N 
ATOM      9  C   UNL     1      -0.947  10.406  22.881  0.00  0.00    +0.000 C 
ATOM     10  C   UNL     1      -0.400   9.315  21.960  0.00  0.00    +0.000 C 
BRANCH   8  11
ATOM     11  C   UNL     1      -2.313  12.350  22.450  0.00  0.00    +0.000 A 
ATOM     12  N   UNL     1      -2.240  12.867  23.704  0.00  0.00    +0.000 NA
ATOM     13  C   UNL     1      -3.211  13.683  24.136  0.00  0.00    +0.000 A 
ATOM     14  N   UNL     1      -4.294  14.079  23.473  0.00  0.00    +0.000 NA
ATOM     15  C   UNL     1      -4.339  13.580  22.226  0.00  0.00    +0.000 A 
ATOM     16  S   UNL     1      -5.640  13.984  21.210  0.00  0.00    +0.000 S 
ATOM     17  C   UNL     1      -5.011  13.072  19.919  0.00  0.00    +0.000 A 
ATOM     18  C   UNL     1      -5.746  12.994  18.620  0.00  0.00    +0.000 C 
ATOM     19  C   UNL     1      -3.799  12.476  20.235  0.00  0.00    +0.000 A 
ATOM     20  C   UNL     1      -3.025  11.687  19.227  0.00  0.00    +0.000 C 
ATOM     21  C   UNL     1      -3.414  12.734  21.626  0.00  0.00    +0.000 A 
ENDBRANCH   8  11
ENDBRANCH   2   5
BRANCH   1  24
ATOM     22  C   UNL     1       2.054   5.429  20.059  0.00  0.00    +0.000 C 
ATOM     23  O   UNL     1       1.078   5.114  20.735  0.00  0.00    +0.000 OA
ATOM     24  N   UNL     1       2.576   6.706  20.076  0.00  0.00    +0.000 N 
ATOM     25  H   UNL     1       3.348   7.022  19.494  0.00  0.00    +0.000 HD
BRANCH  22  26
ATOM     26  C   UNL     1       2.782   4.453  19.146  0.00  0.00    +0.000 C 
BRANCH  26  27
ATOM     27  O   UNL     1       4.116   4.879  18.960  0.00  0.00    +0.000 OA
BRANCH  27  34
ATOM     28  C   UNL     1       4.076   7.571  17.276  0.00  0.00    +0.000 C 
ATOM     29  C   UNL     1       4.614   6.221  16.893  0.00  0.00    +0.000 A 
ATOM     30  C   UNL     1       5.172   6.134  15.593  0.00  0.00    +0.000 A 
ATOM     31  C   UNL     1       5.714   4.943  15.104  0.00  0.00    +0.000 A 
ATOM     32  C   UNL     1       5.714   3.815  15.904  0.00  0.00    +0.000 A 
ATOM     33  C   UNL     1       5.168   3.881  17.186  0.00  0.00    +0.000 A 
ATOM     34  C   UNL     1       4.608   5.071  17.696  0.00  0.00    +0.000 A 
ENDBRANCH  27  34
ENDBRANCH  26  27
ENDBRANCH  22  26
ENDBRANCH   1  24
TORSDOF 6
ENDMDL
