MODEL 1
REMARK VINA RESULT:      -6.3      0.000      0.000
REMARK  Name = 
REMARK  0 active torsions:
REMARK  status: ('A' for Active; 'I' for Inactive)
REMARK                            x       y       z     vdW  Elec       q    Type
REMARK                         _______ _______ _______ _____ _____    ______ ____
ROOT
ATOM      1 CL   UNL     1       5.703   7.819  17.063  0.00  0.00    +0.000 Cl
ATOM      2  C   UNL     1       5.287   6.150  16.786  0.00  0.00    +0.000 A 
ATOM      3  C   UNL     1       6.019   5.346  15.909  0.00  0.00    +0.000 A 
ATOM      4  C   UNL     1       5.712   3.987  15.802  0.00  0.00    +0.000 A 
ATOM      5  C   UNL     1       4.723   3.422  16.627  0.00  0.00    +0.000 A 
ATOM      6  C   UNL     1       3.997   4.242  17.514  0.00  0.00    +0.000 A 
ATOM      7  C   UNL     1       4.247   5.613  17.523  0.00  0.00    +0.000 A 
ATOM      8  I   UNL     1       2.957   6.794  18.683  0.00  0.00    +0.000 I 
ATOM      9  C   UNL     1       2.305   4.888  19.134  0.00  0.00    +0.000 A 
ATOM     10  C   UNL     1       1.317   4.692  20.089  0.00  0.00    +0.000 A 
ATOM     11  C   UNL     1       1.026   3.400  20.506  0.00  0.00    +0.000 A 
ATOM     12  C   UNL     1       1.730   2.313  19.967  0.00  0.00    +0.000 A 
ATOM     13  C   UNL     1       2.696   2.508  18.966  0.00  0.00    +0.000 A 
ATOM     14 CL   UNL     1       3.562   1.074  18.440  0.00  0.00    +0.000 Cl
ATOM     15  C   UNL     1       2.975   3.823  18.518  0.00  0.00    +0.000 A 
ENDROOT
TORSDOF 0
ENDMDL
MODEL 2
REMARK VINA RESULT:      -6.3      2.966      4.767
REMARK  Name = 
REMARK  0 active torsions:
REMARK  status: ('A' for Active; 'I' for Inactive)
REMARK                            x       y       z     vdW  Elec       q    Type
REMARK                         _______ _______ _______ _____ _____    ______ ____
ROOT
ATOM      1 CL   UNL     1       0.982   8.221  21.727  0.00  0.00    +0.000 Cl
ATOM      2  C   UNL     1       1.506   8.235  20.065  0.00  0.00    +0.000 A 
ATOM      3  C   UNL     1       1.452   9.392  19.288  0.00  0.00    +0.000 A 
ATOM      4  C   UNL     1       1.983   9.380  17.996  0.00  0.00    +0.000 A 
ATOM      5  C   UNL     1       2.632   8.229  17.513  0.00  0.00    +0.000 A 
ATOM      6  C   UNL     1       2.688   7.069  18.312  0.00  0.00    +0.000 A 
ATOM      7  C   UNL     1       2.055   7.073  19.553  0.00  0.00    +0.000 A 
ATOM      8  I   UNL     1       1.966   5.238  20.567  0.00  0.00    +0.000 I 
ATOM      9  C   UNL     1       3.121   4.758  18.925  0.00  0.00    +0.000 A 
ATOM     10  C   UNL     1       3.682   3.494  18.807  0.00  0.00    +0.000 A 
ATOM     11  C   UNL     1       4.600   3.253  17.793  0.00  0.00    +0.000 A 
ATOM     12  C   UNL     1       4.954   4.282  16.908  0.00  0.00    +0.000 A 
ATOM     13  C   UNL     1       4.352   5.547  16.998  0.00  0.00    +0.000 A 
ATOM     14 CL   UNL     1       4.947   6.767  15.885  0.00  0.00    +0.000 Cl
ATOM     15  C   UNL     1       3.393   5.788  18.014  0.00  0.00    +0.000 A 
ENDROOT
TORSDOF 0
ENDMDL
MODEL 3
REMARK VINA RESULT:      -6.2      1.762      5.351
REMARK  Name = 
REMARK  0 active torsions:
REMARK  status: ('A' for Active; 'I' for Inactive)
REMARK                            x       y       z     vdW  Elec       q    Type
REMARK                         _______ _______ _______ _____ _____    ______ ____
ROOT
ATOM      1 CL   UNL     1       1.803   2.651  21.070  0.00  0.00    +0.000 Cl
ATOM      2  C   UNL     1       2.129   4.139  20.225  0.00  0.00    +0.000 A 
ATOM      3  C   UNL     1       1.725   5.375  20.731  0.00  0.00    +0.000 A 
ATOM      4  C   UNL     1       2.103   6.547  20.071  0.00  0.00    +0.000 A 
ATOM      5  C   UNL     1       2.946   6.481  18.947  0.00  0.00    +0.000 A 
ATOM      6  C   UNL     1       3.354   5.227  18.450  0.00  0.00    +0.000 A 
ATOM      7  C   UNL     1       2.874   4.070  19.061  0.00  0.00    +0.000 A 
ATOM      8  I   UNL     1       3.322   2.252  18.113  0.00  0.00    +0.000 I 
ATOM      9  C   UNL     1       4.374   3.602  16.958  0.00  0.00    +0.000 A 
ATOM     10  C   UNL     1       5.196   3.157  15.933  0.00  0.00    +0.000 A 
ATOM     11  C   UNL     1       6.031   4.064  15.292  0.00  0.00    +0.000 A 
ATOM     12  C   UNL     1       6.040   5.409  15.689  0.00  0.00    +0.000 A 
ATOM     13  C   UNL     1       5.174   5.869  16.694  0.00  0.00    +0.000 A 
ATOM     14 CL   UNL     1       5.348   7.555  17.151  0.00  0.00    +0.000 Cl
ATOM     15  C   UNL     1       4.300   4.951  17.330  0.00  0.00    +0.000 A 
ENDROOT
TORSDOF 0
ENDMDL
MODEL 4
REMARK VINA RESULT:      -6.1      2.277      4.083
REMARK  Name = 
REMARK  0 active torsions:
REMARK  status: ('A' for Active; 'I' for Inactive)
REMARK                            x       y       z     vdW  Elec       q    Type
REMARK                         _______ _______ _______ _____ _____    ______ ____
ROOT
ATOM      1 CL   UNL     1       2.483   9.295  17.825  0.00  0.00    +0.000 Cl
ATOM      2  C   UNL     1       2.183   8.112  19.070  0.00  0.00    +0.000 A 
ATOM      3  C   UNL     1       1.426   8.414  20.203  0.00  0.00    +0.000 A 
ATOM      4  C   UNL     1       1.124   7.404  21.119  0.00  0.00    +0.000 A 
ATOM      5  C   UNL     1       1.519   6.078  20.860  0.00  0.00    +0.000 A 
ATOM      6  C   UNL     1       2.275   5.785  19.708  0.00  0.00    +0.000 A 
ATOM      7  C   UNL     1       2.657   6.828  18.867  0.00  0.00    +0.000 A 
ATOM      8  I   UNL     1       3.987   6.347  17.318  0.00  0.00    +0.000 I 
ATOM      9  C   UNL     1       3.602   4.491  18.136  0.00  0.00    +0.000 A 
ATOM     10  C   UNL     1       4.123   3.345  17.552  0.00  0.00    +0.000 A 
ATOM     11  C   UNL     1       3.703   2.102  18.008  0.00  0.00    +0.000 A 
ATOM     12  C   UNL     1       2.759   2.017  19.042  0.00  0.00    +0.000 A 
ATOM     13  C   UNL     1       2.267   3.176  19.664  0.00  0.00    +0.000 A 
ATOM     14 CL   UNL     1       1.030   2.931  20.885  0.00  0.00    +0.000 Cl
ATOM     15  C   UNL     1       2.716   4.445  19.221  0.00  0.00    +0.000 A 
ENDROOT
TORSDOF 0
ENDMDL
MODEL 5
REMARK VINA RESULT:      -6.1      2.595      5.290
REMARK  Name = 
REMARK  0 active torsions:
REMARK  status: ('A' for Active; 'I' for Inactive)
REMARK                            x       y       z     vdW  Elec       q    Type
REMARK                         _______ _______ _______ _____ _____    ______ ____
ROOT
ATOM      1 CL   UNL     1       4.835   1.535  19.933  0.00  0.00    +0.000 Cl
ATOM      2  C   UNL     1       3.513   2.602  20.322  0.00  0.00    +0.000 A 
ATOM      3  C   UNL     1       2.649   2.341  21.386  0.00  0.00    +0.000 A 
ATOM      4  C   UNL     1       1.671   3.280  21.725  0.00  0.00    +0.000 A 
ATOM      5  C   UNL     1       1.610   4.510  21.044  0.00  0.00    +0.000 A 
ATOM      6  C   UNL     1       2.495   4.764  19.977  0.00  0.00    +0.000 A 
ATOM      7  C   UNL     1       3.388   3.767  19.587  0.00  0.00    +0.000 A 
ATOM      8  I   UNL     1       4.491   4.126  17.839  0.00  0.00    +0.000 I 
ATOM      9  C   UNL     1       3.487   5.913  18.079  0.00  0.00    +0.000 A 
ATOM     10  C   UNL     1       3.738   6.979  17.227  0.00  0.00    +0.000 A 
ATOM     11  C   UNL     1       3.190   8.222  17.518  0.00  0.00    +0.000 A 
ATOM     12  C   UNL     1       2.399   8.389  18.664  0.00  0.00    +0.000 A 
ATOM     13  C   UNL     1       2.106   7.300  19.500  0.00  0.00    +0.000 A 
ATOM     14 CL   UNL     1       1.176   7.663  20.944  0.00  0.00    +0.000 Cl
ATOM     15  C   UNL     1       2.640   6.024  19.190  0.00  0.00    +0.000 A 
ENDROOT
TORSDOF 0
ENDMDL
MODEL 6
REMARK VINA RESULT:      -6.0      2.677      4.492
REMARK  Name = 
REMARK  0 active torsions:
REMARK  status: ('A' for Active; 'I' for Inactive)
REMARK                            x       y       z     vdW  Elec       q    Type
REMARK                         _______ _______ _______ _____ _____    ______ ____
ROOT
ATOM      1 CL   UNL     1       3.538   2.678  18.106  0.00  0.00    +0.000 Cl
ATOM      2  C   UNL     1       3.822   4.380  17.861  0.00  0.00    +0.000 A 
ATOM      3  C   UNL     1       4.606   4.849  16.806  0.00  0.00    +0.000 A 
ATOM      4  C   UNL     1       4.716   6.224  16.588  0.00  0.00    +0.000 A 
ATOM      5  C   UNL     1       3.981   7.123  17.382  0.00  0.00    +0.000 A 
ATOM      6  C   UNL     1       3.187   6.637  18.439  0.00  0.00    +0.000 A 
ATOM      7  C   UNL     1       3.180   5.269  18.704  0.00  0.00    +0.000 A 
ATOM      8  I   UNL     1       2.177   4.654  20.441  0.00  0.00    +0.000 I 
ATOM      9  C   UNL     1       1.755   6.674  20.402  0.00  0.00    +0.000 A 
ATOM     10  C   UNL     1       0.898   7.231  21.341  0.00  0.00    +0.000 A 
ATOM     11  C   UNL     1       0.486   8.548  21.185  0.00  0.00    +0.000 A 
ATOM     12  C   UNL     1       0.932   9.297  20.086  0.00  0.00    +0.000 A 
ATOM     13  C   UNL     1       1.836   8.749  19.162  0.00  0.00    +0.000 A 
ATOM     14 CL   UNL     1       2.246   9.763  17.789  0.00  0.00    +0.000 Cl
ATOM     15  C   UNL     1       2.281   7.414  19.334  0.00  0.00    +0.000 A 
ENDROOT
TORSDOF 0
ENDMDL
MODEL 7
REMARK VINA RESULT:      -6.0      2.206      3.084
REMARK  Name = 
REMARK  0 active torsions:
REMARK  status: ('A' for Active; 'I' for Inactive)
REMARK                            x       y       z     vdW  Elec       q    Type
REMARK                         _______ _______ _______ _____ _____    ______ ____
ROOT
ATOM      1 CL   UNL     1       5.449   3.604  14.717  0.00  0.00    +0.000 Cl
ATOM      2  C   UNL     1       5.203   4.778  15.981  0.00  0.00    +0.000 A 
ATOM      3  C   UNL     1       5.722   6.070  15.895  0.00  0.00    +0.000 A 
ATOM      4  C   UNL     1       5.407   7.007  16.883  0.00  0.00    +0.000 A 
ATOM      5  C   UNL     1       4.513   6.667  17.915  0.00  0.00    +0.000 A 
ATOM      6  C   UNL     1       3.988   5.361  17.985  0.00  0.00    +0.000 A 
ATOM      7  C   UNL     1       4.404   4.415  17.051  0.00  0.00    +0.000 A 
ATOM      8  I   UNL     1       3.776   2.439  17.373  0.00  0.00    +0.000 I 
ATOM      9  C   UNL     1       2.781   3.448  18.874  0.00  0.00    +0.000 A 
ATOM     10  C   UNL     1       1.883   2.780  19.693  0.00  0.00    +0.000 A 
ATOM     11  C   UNL     1       1.093   3.511  20.571  0.00  0.00    +0.000 A 
ATOM     12  C   UNL     1       1.205   4.909  20.617  0.00  0.00    +0.000 A 
ATOM     13  C   UNL     1       2.147   5.581  19.821  0.00  0.00    +0.000 A 
ATOM     14 CL   UNL     1       2.125   7.334  19.913  0.00  0.00    +0.000 Cl
ATOM     15  C   UNL     1       2.975   4.834  18.946  0.00  0.00    +0.000 A 
ENDROOT
TORSDOF 0
ENDMDL
MODEL 8
REMARK VINA RESULT:      -5.8      1.976      4.677
REMARK  Name = 
REMARK  0 active torsions:
REMARK  status: ('A' for Active; 'I' for Inactive)
REMARK                            x       y       z     vdW  Elec       q    Type
REMARK                         _______ _______ _______ _____ _____    ______ ____
ROOT
ATOM      1 CL   UNL     1       0.604   3.755  20.411  0.00  0.00    +0.000 Cl
ATOM      2  C   UNL     1       1.980   3.160  19.522  0.00  0.00    +0.000 A 
ATOM      3  C   UNL     1       2.238   1.795  19.396  0.00  0.00    +0.000 A 
ATOM      4  C   UNL     1       3.291   1.365  18.584  0.00  0.00    +0.000 A 
ATOM      5  C   UNL     1       4.036   2.301  17.844  0.00  0.00    +0.000 A 
ATOM      6  C   UNL     1       3.760   3.677  17.974  0.00  0.00    +0.000 A 
ATOM      7  C   UNL     1       2.778   4.086  18.873  0.00  0.00    +0.000 A 
ATOM      8  I   UNL     1       2.601   6.152  19.194  0.00  0.00    +0.000 I 
ATOM      9  C   UNL     1       4.019   6.077  17.696  0.00  0.00    +0.000 A 
ATOM     10  C   UNL     1       4.500   7.247  17.126  0.00  0.00    +0.000 A 
ATOM     11  C   UNL     1       5.312   7.168  16.002  0.00  0.00    +0.000 A 
ATOM     12  C   UNL     1       5.631   5.917  15.453  0.00  0.00    +0.000 A 
ATOM     13  C   UNL     1       5.183   4.731  16.058  0.00  0.00    +0.000 A 
ATOM     14 CL   UNL     1       5.583   3.240  15.223  0.00  0.00    +0.000 Cl
ATOM     15  C   UNL     1       4.379   4.808  17.222  0.00  0.00    +0.000 A 
ENDROOT
TORSDOF 0
ENDMDL
MODEL 9
REMARK VINA RESULT:      -5.7      3.504      5.372
REMARK  Name = 
REMARK  0 active torsions:
REMARK  status: ('A' for Active; 'I' for Inactive)
REMARK                            x       y       z     vdW  Elec       q    Type
REMARK                         _______ _______ _______ _____ _____    ______ ____
ROOT
ATOM      1 CL   UNL     1       5.279   3.982  18.661  0.00  0.00    +0.000 Cl
ATOM      2  C   UNL     1       3.808   4.479  19.453  0.00  0.00    +0.000 A 
ATOM      3  C   UNL     1       3.230   3.720  20.472  0.00  0.00    +0.000 A 
ATOM      4  C   UNL     1       2.112   4.214  21.150  0.00  0.00    +0.000 A 
ATOM      5  C   UNL     1       1.621   5.499  20.853  0.00  0.00    +0.000 A 
ATOM      6  C   UNL     1       2.219   6.258  19.828  0.00  0.00    +0.000 A 
ATOM      7  C   UNL     1       3.263   5.699  19.094  0.00  0.00    +0.000 A 
ATOM      8  I   UNL     1       3.929   6.788  17.429  0.00  0.00    +0.000 I 
ATOM      9  C   UNL     1       2.547   8.081  18.254  0.00  0.00    +0.000 A 
ATOM     10  C   UNL     1       2.367   9.349  17.721  0.00  0.00    +0.000 A 
ATOM     11  C   UNL     1       1.571  10.262  18.400  0.00  0.00    +0.000 A 
ATOM     12  C   UNL     1       0.965   9.899  19.612  0.00  0.00    +0.000 A 
ATOM     13  C   UNL     1       1.109   8.601  20.127  0.00  0.00    +0.000 A 
ATOM     14 CL   UNL     1       0.370   8.305  21.692  0.00  0.00    +0.000 Cl
ATOM     15  C   UNL     1       1.898   7.658  19.422  0.00  0.00    +0.000 A 
ENDROOT
TORSDOF 0
ENDMDL
