MODEL 1
REMARK VINA RESULT:      -7.1      0.000      0.000
REMARK  Name = 
REMARK  8 active torsions:
REMARK  status: ('A' for Active; 'I' for Inactive)
REMARK    1  A    between atoms: C_1  and  C_2
REMARK    2  A    between atoms: C_2  and  C_15
REMARK    3  A    between atoms: C_3  and  C_4
REMARK    4  A    between atoms: C_4  and  C_5
REMARK    5  A    between atoms: C_5  and  C_6
REMARK    6  A    between atoms: C_6  and  C_7
REMARK    7  A    between atoms: C_13  and  C_14
REMARK    8  A    between atoms: C_15  and  O_17
REMARK                            x       y       z     vdW  Elec       q    Type
REMARK                         _______ _______ _______ _____ _____    ______ ____
ROOT
ATOM      1  C   UNL     1       3.076   5.728  19.153  0.00  0.00    +0.000 C 
ENDROOT
BRANCH   1   2
ATOM      2  C   UNL     1       2.169   4.481  18.993  0.00  0.00    +0.000 C 
ATOM      3  C   UNL     1       1.508   4.474  17.604  0.00  0.00    +0.000 C 
ATOM      4  C   UNL     1       1.136   4.274  20.188  0.00  0.00    +0.000 C 
ATOM      5  C   UNL     1       0.598   2.823  19.961  0.00  0.00    +0.000 C 
ATOM      6  C   UNL     1       1.957   2.178  19.831  0.00  0.00    +0.000 C 
ATOM      7  C   UNL     1       2.883   2.913  20.743  0.00  0.00    +0.000 C 
ATOM      8  C   UNL     1       2.077   4.005  21.414  0.00  0.00    +0.000 C 
ATOM      9  C   UNL     1       2.928   3.176  19.262  0.00  0.00    +0.000 C 
ATOM     10  C   UNL     1       4.076   2.744  18.421  0.00  0.00    +0.000 C 
ENDBRANCH   1   2
BRANCH   1  11
ATOM     11  C   UNL     1       3.508   6.347  17.819  0.00  0.00    +0.000 C 
BRANCH  11  14
ATOM     12  C   UNL     1       5.047   4.787  15.686  0.00  0.00    +0.000 C 
ATOM     13  C   UNL     1       5.690   5.713  16.689  0.00  0.00    +0.000 C 
ATOM     14  C   UNL     1       5.006   6.365  17.658  0.00  0.00    +0.000 C 
BRANCH  13  15
ATOM     15  C   UNL     1       7.173   5.768  16.551  0.00  0.00    +0.000 C 
ATOM     16  O   UNL     1       7.794   6.819  16.495  0.00  0.00    +0.000 OA
BRANCH  15  17
ATOM     17  O   UNL     1       7.798   4.573  16.550  0.00  0.00    +0.000 OA
ATOM     18  H   UNL     1       7.199   3.804  16.548  0.00  0.00    +0.000 HD
ENDBRANCH  15  17
ENDBRANCH  13  15
ENDBRANCH  11  14
ENDBRANCH   1  11
TORSDOF 5
ENDMDL
MODEL 2
REMARK VINA RESULT:      -7.1      1.372      1.838
REMARK  Name = 
REMARK  8 active torsions:
REMARK  status: ('A' for Active; 'I' for Inactive)
REMARK    1  A    between atoms: C_1  and  C_2
REMARK    2  A    between atoms: C_2  and  C_15
REMARK    3  A    between atoms: C_3  and  C_4
REMARK    4  A    between atoms: C_4  and  C_5
REMARK    5  A    between atoms: C_5  and  C_6
REMARK    6  A    between atoms: C_6  and  C_7
REMARK    7  A    between atoms: C_13  and  C_14
REMARK    8  A    between atoms: C_15  and  O_17
REMARK                            x       y       z     vdW  Elec       q    Type
REMARK                         _______ _______ _______ _____ _____    ______ ____
ROOT
ATOM      1  C   UNL     1       4.804   4.344  19.430  0.00  0.00    +0.000 C 
ENDROOT
BRANCH   1   2
ATOM      2  C   UNL     1       3.278   4.613  19.415  0.00  0.00    +0.000 C 
ATOM      3  C   UNL     1       2.989   6.022  18.871  0.00  0.00    +0.000 C 
ATOM      4  C   UNL     1       2.553   4.307  20.801  0.00  0.00    +0.000 C 
ATOM      5  C   UNL     1       1.033   4.337  20.434  0.00  0.00    +0.000 C 
ATOM      6  C   UNL     1       1.145   3.398  19.256  0.00  0.00    +0.000 C 
ATOM      7  C   UNL     1       2.213   2.407  19.582  0.00  0.00    +0.000 C 
ATOM      8  C   UNL     1       2.746   2.759  20.955  0.00  0.00    +0.000 C 
ATOM      9  C   UNL     1       2.509   3.540  18.637  0.00  0.00    +0.000 C 
ATOM     10  C   UNL     1       2.724   3.314  17.182  0.00  0.00    +0.000 C 
ENDBRANCH   1   2
BRANCH   1  11
ATOM     11  C   UNL     1       5.626   5.433  18.732  0.00  0.00    +0.000 C 
BRANCH  11  14
ATOM     12  C   UNL     1       5.035   6.288  15.855  0.00  0.00    +0.000 C 
ATOM     13  C   UNL     1       6.123   5.318  16.246  0.00  0.00    +0.000 C 
ATOM     14  C   UNL     1       6.348   4.910  17.516  0.00  0.00    +0.000 C 
BRANCH  13  15
ATOM     15  C   UNL     1       6.870   4.789  15.069  0.00  0.00    +0.000 C 
ATOM     16  O   UNL     1       7.861   5.340  14.612  0.00  0.00    +0.000 OA
BRANCH  15  17
ATOM     17  O   UNL     1       6.412   3.622  14.570  0.00  0.00    +0.000 OA
ATOM     18  H   UNL     1       7.010   3.194  13.932  0.00  0.00    +0.000 HD
ENDBRANCH  15  17
ENDBRANCH  13  15
ENDBRANCH  11  14
ENDBRANCH   1  11
TORSDOF 5
ENDMDL
MODEL 3
REMARK VINA RESULT:      -7.0      0.817      1.092
REMARK  Name = 
REMARK  8 active torsions:
REMARK  status: ('A' for Active; 'I' for Inactive)
REMARK    1  A    between atoms: C_1  and  C_2
REMARK    2  A    between atoms: C_2  and  C_15
REMARK    3  A    between atoms: C_3  and  C_4
REMARK    4  A    between atoms: C_4  and  C_5
REMARK    5  A    between atoms: C_5  and  C_6
REMARK    6  A    between atoms: C_6  and  C_7
REMARK    7  A    between atoms: C_13  and  C_14
REMARK    8  A    between atoms: C_15  and  O_17
REMARK                            x       y       z     vdW  Elec       q    Type
REMARK                         _______ _______ _______ _____ _____    ______ ____
ROOT
ATOM      1  C   UNL     1       3.480   5.396  18.933  0.00  0.00    +0.000 C 
ENDROOT
BRANCH   1   2
ATOM      2  C   UNL     1       2.309   4.382  18.968  0.00  0.00    +0.000 C 
ATOM      3  C   UNL     1       1.520   4.430  17.648  0.00  0.00    +0.000 C 
ATOM      4  C   UNL     1       1.388   4.501  20.263  0.00  0.00    +0.000 C 
ATOM      5  C   UNL     1       0.521   3.200  20.217  0.00  0.00    +0.000 C 
ATOM      6  C   UNL     1       1.683   2.253  20.029  0.00  0.00    +0.000 C 
ATOM      7  C   UNL     1       2.839   2.819  20.785  0.00  0.00    +0.000 C 
ATOM      8  C   UNL     1       2.371   4.110  21.421  0.00  0.00    +0.000 C 
ATOM      9  C   UNL     1       2.785   2.960  19.288  0.00  0.00    +0.000 C 
ATOM     10  C   UNL     1       3.714   2.219  18.394  0.00  0.00    +0.000 C 
ENDBRANCH   1   2
BRANCH   1  11
ATOM     11  C   UNL     1       3.749   5.975  17.540  0.00  0.00    +0.000 C 
BRANCH  11  14
ATOM     12  C   UNL     1       6.599   7.072  17.359  0.00  0.00    +0.000 C 
ATOM     13  C   UNL     1       6.166   5.738  16.801  0.00  0.00    +0.000 C 
ATOM     14  C   UNL     1       4.893   5.281  16.845  0.00  0.00    +0.000 C 
BRANCH  13  15
ATOM     15  C   UNL     1       7.275   5.014  16.118  0.00  0.00    +0.000 C 
ATOM     16  O   UNL     1       7.581   5.219  14.953  0.00  0.00    +0.000 OA
BRANCH  15  17
ATOM     17  O   UNL     1       7.964   4.149  16.892  0.00  0.00    +0.000 OA
ATOM     18  H   UNL     1       8.349   3.396  16.410  0.00  0.00    +0.000 HD
ENDBRANCH  15  17
ENDBRANCH  13  15
ENDBRANCH  11  14
ENDBRANCH   1  11
TORSDOF 5
ENDMDL
MODEL 4
REMARK VINA RESULT:      -7.0      1.572      2.794
REMARK  Name = 
REMARK  8 active torsions:
REMARK  status: ('A' for Active; 'I' for Inactive)
REMARK    1  A    between atoms: C_1  and  C_2
REMARK    2  A    between atoms: C_2  and  C_15
REMARK    3  A    between atoms: C_3  and  C_4
REMARK    4  A    between atoms: C_4  and  C_5
REMARK    5  A    between atoms: C_5  and  C_6
REMARK    6  A    between atoms: C_6  and  C_7
REMARK    7  A    between atoms: C_13  and  C_14
REMARK    8  A    between atoms: C_15  and  O_17
REMARK                            x       y       z     vdW  Elec       q    Type
REMARK                         _______ _______ _______ _____ _____    ______ ____
ROOT
ATOM      1  C   UNL     1       3.505   5.837  17.608  0.00  0.00    +0.000 C 
ENDROOT
BRANCH   1   2
ATOM      2  C   UNL     1       3.731   4.658  18.589  0.00  0.00    +0.000 C 
ATOM      3  C   UNL     1       4.908   4.964  19.531  0.00  0.00    +0.000 C 
ATOM      4  C   UNL     1       3.841   3.237  17.877  0.00  0.00    +0.000 C 
ATOM      5  C   UNL     1       3.733   2.223  19.064  0.00  0.00    +0.000 C 
ATOM      6  C   UNL     1       2.487   2.830  19.666  0.00  0.00    +0.000 C 
ATOM      7  C   UNL     1       1.658   3.344  18.535  0.00  0.00    +0.000 C 
ATOM      8  C   UNL     1       2.413   3.051  17.256  0.00  0.00    +0.000 C 
ATOM      9  C   UNL     1       2.461   4.304  19.370  0.00  0.00    +0.000 C 
ATOM     10  C   UNL     1       1.814   5.267  20.302  0.00  0.00    +0.000 C 
ENDBRANCH   1   2
BRANCH   1  11
ATOM     11  C   UNL     1       4.796   6.564  17.215  0.00  0.00    +0.000 C 
BRANCH  11  14
ATOM     12  C   UNL     1       7.159   4.653  16.866  0.00  0.00    +0.000 C 
ATOM     13  C   UNL     1       6.346   5.215  15.726  0.00  0.00    +0.000 C 
ATOM     14  C   UNL     1       5.331   6.095  15.886  0.00  0.00    +0.000 C 
BRANCH  13  15
ATOM     15  C   UNL     1       6.837   4.761  14.393  0.00  0.00    +0.000 C 
ATOM     16  O   UNL     1       6.340   3.822  13.789  0.00  0.00    +0.000 OA
BRANCH  15  17
ATOM     17  O   UNL     1       7.839   5.495  13.866  0.00  0.00    +0.000 OA
ATOM     18  H   UNL     1       8.383   5.966  14.522  0.00  0.00    +0.000 HD
ENDBRANCH  15  17
ENDBRANCH  13  15
ENDBRANCH  11  14
ENDBRANCH   1  11
TORSDOF 5
ENDMDL
MODEL 5
REMARK VINA RESULT:      -6.9      1.185      2.334
REMARK  Name = 
REMARK  8 active torsions:
REMARK  status: ('A' for Active; 'I' for Inactive)
REMARK    1  A    between atoms: C_1  and  C_2
REMARK    2  A    between atoms: C_2  and  C_15
REMARK    3  A    between atoms: C_3  and  C_4
REMARK    4  A    between atoms: C_4  and  C_5
REMARK    5  A    between atoms: C_5  and  C_6
REMARK    6  A    between atoms: C_6  and  C_7
REMARK    7  A    between atoms: C_13  and  C_14
REMARK    8  A    between atoms: C_15  and  O_17
REMARK                            x       y       z     vdW  Elec       q    Type
REMARK                         _______ _______ _______ _____ _____    ______ ____
ROOT
ATOM      1  C   UNL     1       2.991   2.783  17.891  0.00  0.00    +0.000 C 
ENDROOT
BRANCH   1   2
ATOM      2  C   UNL     1       3.046   2.866  19.437  0.00  0.00    +0.000 C 
ATOM      3  C   UNL     1       4.404   2.362  19.953  0.00  0.00    +0.000 C 
ATOM      4  C   UNL     1       1.800   2.191  20.166  0.00  0.00    +0.000 C 
ATOM      5  C   UNL     1       1.926   2.690  21.644  0.00  0.00    +0.000 C 
ATOM      6  C   UNL     1       2.075   4.152  21.296  0.00  0.00    +0.000 C 
ATOM      7  C   UNL     1       1.243   4.403  20.082  0.00  0.00    +0.000 C 
ATOM      8  C   UNL     1       0.601   3.087  19.698  0.00  0.00    +0.000 C 
ATOM      9  C   UNL     1       2.736   4.277  19.951  0.00  0.00    +0.000 C 
ATOM     10  C   UNL     1       3.598   5.444  19.620  0.00  0.00    +0.000 C 
ENDBRANCH   1   2
BRANCH   1  11
ATOM     11  C   UNL     1       3.487   4.052  17.190  0.00  0.00    +0.000 C 
BRANCH  11  14
ATOM     12  C   UNL     1       5.280   6.401  16.397  0.00  0.00    +0.000 C 
ATOM     13  C   UNL     1       5.726   4.959  16.409  0.00  0.00    +0.000 C 
ATOM     14  C   UNL     1       4.913   3.922  16.718  0.00  0.00    +0.000 C 
BRANCH  13  15
ATOM     15  C   UNL     1       7.137   4.791  15.962  0.00  0.00    +0.000 C 
ATOM     16  O   UNL     1       7.555   5.242  14.905  0.00  0.00    +0.000 OA
BRANCH  15  17
ATOM     17  O   UNL     1       7.948   4.152  16.831  0.00  0.00    +0.000 OA
ATOM     18  H   UNL     1       8.856   4.501  16.866  0.00  0.00    +0.000 HD
ENDBRANCH  15  17
ENDBRANCH  13  15
ENDBRANCH  11  14
ENDBRANCH   1  11
TORSDOF 5
ENDMDL
MODEL 6
REMARK VINA RESULT:      -6.9      1.251      2.531
REMARK  Name = 
REMARK  8 active torsions:
REMARK  status: ('A' for Active; 'I' for Inactive)
REMARK    1  A    between atoms: C_1  and  C_2
REMARK    2  A    between atoms: C_2  and  C_15
REMARK    3  A    between atoms: C_3  and  C_4
REMARK    4  A    between atoms: C_4  and  C_5
REMARK    5  A    between atoms: C_5  and  C_6
REMARK    6  A    between atoms: C_6  and  C_7
REMARK    7  A    between atoms: C_13  and  C_14
REMARK    8  A    between atoms: C_15  and  O_17
REMARK                            x       y       z     vdW  Elec       q    Type
REMARK                         _______ _______ _______ _____ _____    ______ ____
ROOT
ATOM      1  C   UNL     1       2.853   2.990  17.907  0.00  0.00    +0.000 C 
ENDROOT
BRANCH   1   2
ATOM      2  C   UNL     1       2.973   2.988  19.452  0.00  0.00    +0.000 C 
ATOM      3  C   UNL     1       4.334   2.417  19.883  0.00  0.00    +0.000 C 
ATOM      4  C   UNL     1       1.737   2.311  20.196  0.00  0.00    +0.000 C 
ATOM      5  C   UNL     1       1.937   2.725  21.691  0.00  0.00    +0.000 C 
ATOM      6  C   UNL     1       2.119   4.198  21.416  0.00  0.00    +0.000 C 
ATOM      7  C   UNL     1       1.247   4.540  20.253  0.00  0.00    +0.000 C 
ATOM      8  C   UNL     1       0.548   3.266  19.827  0.00  0.00    +0.000 C 
ATOM      9  C   UNL     1       2.729   4.377  20.053  0.00  0.00    +0.000 C 
ATOM     10  C   UNL     1       3.613   5.534  19.748  0.00  0.00    +0.000 C 
ENDBRANCH   1   2
BRANCH   1  11
ATOM     11  C   UNL     1       4.190   2.782  17.188  0.00  0.00    +0.000 C 
BRANCH  11  14
ATOM     12  C   UNL     1       6.617   4.507  17.891  0.00  0.00    +0.000 C 
ATOM     13  C   UNL     1       5.720   4.748  16.702  0.00  0.00    +0.000 C 
ATOM     14  C   UNL     1       4.622   4.008  16.424  0.00  0.00    +0.000 C 
BRANCH  13  15
ATOM     15  C   UNL     1       6.125   5.946  15.912  0.00  0.00    +0.000 C 
ATOM     16  O   UNL     1       5.324   6.779  15.515  0.00  0.00    +0.000 OA
BRANCH  15  17
ATOM     17  O   UNL     1       7.452   6.082  15.709  0.00  0.00    +0.000 OA
ATOM     18  H   UNL     1       7.946   5.243  15.688  0.00  0.00    +0.000 HD
ENDBRANCH  15  17
ENDBRANCH  13  15
ENDBRANCH  11  14
ENDBRANCH   1  11
TORSDOF 5
ENDMDL
MODEL 7
REMARK VINA RESULT:      -6.9      0.965      1.621
REMARK  Name = 
REMARK  8 active torsions:
REMARK  status: ('A' for Active; 'I' for Inactive)
REMARK    1  A    between atoms: C_1  and  C_2
REMARK    2  A    between atoms: C_2  and  C_15
REMARK    3  A    between atoms: C_3  and  C_4
REMARK    4  A    between atoms: C_4  and  C_5
REMARK    5  A    between atoms: C_5  and  C_6
REMARK    6  A    between atoms: C_6  and  C_7
REMARK    7  A    between atoms: C_13  and  C_14
REMARK    8  A    between atoms: C_15  and  O_17
REMARK                            x       y       z     vdW  Elec       q    Type
REMARK                         _______ _______ _______ _____ _____    ______ ____
ROOT
ATOM      1  C   UNL     1       3.881   5.373  19.765  0.00  0.00    +0.000 C 
ENDROOT
BRANCH   1   2
ATOM      2  C   UNL     1       2.505   4.761  20.134  0.00  0.00    +0.000 C 
ATOM      3  C   UNL     1       1.516   5.869  20.534  0.00  0.00    +0.000 C 
ATOM      4  C   UNL     1       2.589   3.573  21.192  0.00  0.00    +0.000 C 
ATOM      5  C   UNL     1       1.163   2.933  21.139  0.00  0.00    +0.000 C 
ATOM      6  C   UNL     1       1.118   2.792  19.636  0.00  0.00    +0.000 C 
ATOM      7  C   UNL     1       2.509   2.499  19.180  0.00  0.00    +0.000 C 
ATOM      8  C   UNL     1       3.389   2.473  20.411  0.00  0.00    +0.000 C 
ATOM      9  C   UNL     1       1.943   3.883  19.010  0.00  0.00    +0.000 C 
ATOM     10  C   UNL     1       1.605   4.435  17.671  0.00  0.00    +0.000 C 
ENDBRANCH   1   2
BRANCH   1  11
ATOM     11  C   UNL     1       3.898   6.059  18.394  0.00  0.00    +0.000 C 
BRANCH  11  14
ATOM     12  C   UNL     1       4.997   3.759  16.703  0.00  0.00    +0.000 C 
ATOM     13  C   UNL     1       5.742   5.043  16.977  0.00  0.00    +0.000 C 
ATOM     14  C   UNL     1       5.267   6.036  17.764  0.00  0.00    +0.000 C 
BRANCH  13  15
ATOM     15  C   UNL     1       7.097   5.063  16.356  0.00  0.00    +0.000 C 
ATOM     16  O   UNL     1       7.431   5.891  15.521  0.00  0.00    +0.000 OA
BRANCH  15  17
ATOM     17  O   UNL     1       7.959   4.134  16.820  0.00  0.00    +0.000 OA
ATOM     18  H   UNL     1       8.056   3.352  16.247  0.00  0.00    +0.000 HD
ENDBRANCH  15  17
ENDBRANCH  13  15
ENDBRANCH  11  14
ENDBRANCH   1  11
TORSDOF 5
ENDMDL
MODEL 8
REMARK VINA RESULT:      -6.8      0.984      2.084
REMARK  Name = 
REMARK  8 active torsions:
REMARK  status: ('A' for Active; 'I' for Inactive)
REMARK    1  A    between atoms: C_1  and  C_2
REMARK    2  A    between atoms: C_2  and  C_15
REMARK    3  A    between atoms: C_3  and  C_4
REMARK    4  A    between atoms: C_4  and  C_5
REMARK    5  A    between atoms: C_5  and  C_6
REMARK    6  A    between atoms: C_6  and  C_7
REMARK    7  A    between atoms: C_13  and  C_14
REMARK    8  A    between atoms: C_15  and  O_17
REMARK                            x       y       z     vdW  Elec       q    Type
REMARK                         _______ _______ _______ _____ _____    ______ ____
ROOT
ATOM      1  C   UNL     1       3.559   5.473  19.190  0.00  0.00    +0.000 C 
ENDROOT
BRANCH   1   2
ATOM      2  C   UNL     1       3.351   3.938  19.153  0.00  0.00    +0.000 C 
ATOM      3  C   UNL     1       4.662   3.212  19.497  0.00  0.00    +0.000 C 
ATOM      4  C   UNL     1       2.665   3.410  17.815  0.00  0.00    +0.000 C 
ATOM      5  C   UNL     1       2.276   1.934  18.160  0.00  0.00    +0.000 C 
ATOM      6  C   UNL     1       1.575   2.263  19.456  0.00  0.00    +0.000 C 
ATOM      7  C   UNL     1       0.923   3.595  19.278  0.00  0.00    +0.000 C 
ATOM      8  C   UNL     1       1.242   4.066  17.876  0.00  0.00    +0.000 C 
ATOM      9  C   UNL     1       2.202   3.488  20.063  0.00  0.00    +0.000 C 
ATOM     10  C   UNL     1       2.239   3.688  21.537  0.00  0.00    +0.000 C 
ENDBRANCH   1   2
BRANCH   1  11
ATOM     11  C   UNL     1       3.900   6.079  17.824  0.00  0.00    +0.000 C 
BRANCH  11  14
ATOM     12  C   UNL     1       4.915   4.420  15.462  0.00  0.00    +0.000 C 
ATOM     13  C   UNL     1       5.807   5.200  16.397  0.00  0.00    +0.000 C 
ATOM     14  C   UNL     1       5.353   5.895  17.466  0.00  0.00    +0.000 C 
BRANCH  13  15
ATOM     15  C   UNL     1       7.253   5.055  16.066  0.00  0.00    +0.000 C 
ATOM     16  O   UNL     1       7.752   5.530  15.056  0.00  0.00    +0.000 OA
BRANCH  15  17
ATOM     17  O   UNL     1       7.994   4.407  16.988  0.00  0.00    +0.000 OA
ATOM     18  H   UNL     1       8.837   4.053  16.652  0.00  0.00    +0.000 HD
ENDBRANCH  15  17
ENDBRANCH  13  15
ENDBRANCH  11  14
ENDBRANCH   1  11
TORSDOF 5
ENDMDL
MODEL 9
REMARK VINA RESULT:      -6.8      1.374      2.458
REMARK  Name = 
REMARK  8 active torsions:
REMARK  status: ('A' for Active; 'I' for Inactive)
REMARK    1  A    between atoms: C_1  and  C_2
REMARK    2  A    between atoms: C_2  and  C_15
REMARK    3  A    between atoms: C_3  and  C_4
REMARK    4  A    between atoms: C_4  and  C_5
REMARK    5  A    between atoms: C_5  and  C_6
REMARK    6  A    between atoms: C_6  and  C_7
REMARK    7  A    between atoms: C_13  and  C_14
REMARK    8  A    between atoms: C_15  and  O_17
REMARK                            x       y       z     vdW  Elec       q    Type
REMARK                         _______ _______ _______ _____ _____    ______ ____
ROOT
ATOM      1  C   UNL     1       2.961   4.116  17.739  0.00  0.00    +0.000 C 
ENDROOT
BRANCH   1   2
ATOM      2  C   UNL     1       3.124   3.823  19.252  0.00  0.00    +0.000 C 
ATOM      3  C   UNL     1       4.583   4.043  19.685  0.00  0.00    +0.000 C 
ATOM      4  C   UNL     1       2.532   2.415  19.706  0.00  0.00    +0.000 C 
ATOM      5  C   UNL     1       2.521   2.508  21.267  0.00  0.00    +0.000 C 
ATOM      6  C   UNL     1       1.813   3.840  21.333  0.00  0.00    +0.000 C 
ATOM      7  C   UNL     1       0.855   3.886  20.188  0.00  0.00    +0.000 C 
ATOM      8  C   UNL     1       0.997   2.583  19.432  0.00  0.00    +0.000 C 
ATOM      9  C   UNL     1       2.153   4.644  20.108  0.00  0.00    +0.000 C 
ATOM     10  C   UNL     1       2.199   6.130  20.148  0.00  0.00    +0.000 C 
ENDBRANCH   1   2
BRANCH   1  11
ATOM     11  C   UNL     1       3.848   5.261  17.237  0.00  0.00    +0.000 C 
BRANCH  11  14
ATOM     12  C   UNL     1       6.740   6.168  16.819  0.00  0.00    +0.000 C 
ATOM     13  C   UNL     1       6.014   5.201  15.915  0.00  0.00    +0.000 C 
ATOM     14  C   UNL     1       4.720   4.840  16.081  0.00  0.00    +0.000 C 
BRANCH  13  15
ATOM     15  C   UNL     1       6.851   4.751  14.767  0.00  0.00    +0.000 C 
ATOM     16  O   UNL     1       7.832   5.369  14.380  0.00  0.00    +0.000 OA
BRANCH  15  17
ATOM     17  O   UNL     1       6.487   3.577  14.211  0.00  0.00    +0.000 OA
ATOM     18  H   UNL     1       7.208   3.103  13.760  0.00  0.00    +0.000 HD
ENDBRANCH  15  17
ENDBRANCH  13  15
ENDBRANCH  11  14
ENDBRANCH   1  11
TORSDOF 5
ENDMDL
