MODEL 1
REMARK VINA RESULT:      -7.9      0.000      0.000
REMARK  Name = 
REMARK  11 active torsions:
REMARK  status: ('A' for Active; 'I' for Inactive)
REMARK    1  A    between atoms: C_1  and  C_2
REMARK    2  A    between atoms: C_2  and  O_3
REMARK    3  A    between atoms: O_3  and  C_4
REMARK    4  A    between atoms: C_6  and  C_7
REMARK    5  A    between atoms: C_7  and  N_8
REMARK    6  A    between atoms: N_8  and  C_9
REMARK    7  A    between atoms: C_9  and  C_10
REMARK    8  A    between atoms: C_10  and  N_11
REMARK    9  A    between atoms: C_19  and  O_20
REMARK   10  A    between atoms: O_20  and  C_21
REMARK   11  A    between atoms: C_21  and  C_22
REMARK                            x       y       z     vdW  Elec       q    Type
REMARK                         _______ _______ _______ _____ _____    ______ ____
ROOT
ATOM      1  C   UNL     1       5.937   5.126  16.193  0.00  0.00    +0.000 A 
ATOM      2  C   UNL     1       6.977   5.977  16.620  0.00  0.00    +0.000 A 
ATOM      3  C   UNL     1       7.168   6.288  17.976  0.00  0.00    +0.000 A 
ATOM      4  C   UNL     1       6.314   5.752  18.922  0.00  0.00    +0.000 A 
ATOM      5  C   UNL     1       5.307   4.902  18.541  0.00  0.00    +0.000 A 
ATOM      6  C   UNL     1       5.081   4.545  17.192  0.00  0.00    +0.000 A 
ENDROOT
BRANCH   1   7
ATOM      7  O   UNL     1       5.865   4.941  14.839  0.00  0.00    +0.000 OA
BRANCH   7   9
ATOM      8  C   UNL     1       5.622   3.556  12.772  0.00  0.00    +0.000 C 
ATOM      9  C   UNL     1       6.485   4.138  13.882  0.00  0.00    +0.000 C 
ENDBRANCH   7   9
ENDBRANCH   1   7
BRANCH   3  10
ATOM     10  C   UNL     1       8.283   7.160  18.481  0.00  0.00    +0.000 C 
BRANCH  10  11
ATOM     11  N   UNL     1       8.091   8.561  18.046  0.00  0.00    +0.000 NA
ATOM     12  H   UNL     1       7.074   8.806  18.074  0.00  0.00    +0.000 HD
BRANCH  11  13
ATOM     13  C   UNL     1       8.828   9.555  18.853  0.00  0.00    +0.000 C 
BRANCH  13  14
ATOM     14  C   UNL     1       9.201  10.761  17.989  0.00  0.00    +0.000 C 
BRANCH  14  15
ATOM     15  N   UNL     1       9.504  11.994  18.750  0.00  0.00    +0.000 NA
ATOM     16  C   UNL     1       9.853  13.169  17.924  0.00  0.00    +0.000 C 
ATOM     17  C   UNL     1      11.215  12.980  17.235  0.00  0.00    +0.000 C 
ATOM     18  O   UNL     1      12.236  12.762  18.194  0.00  0.00    +0.000 OA
ATOM     19  C   UNL     1      11.956  11.596  18.945  0.00  0.00    +0.000 C 
ATOM     20  C   UNL     1      10.614  11.737  19.694  0.00  0.00    +0.000 C 
ENDBRANCH  14  15
ENDBRANCH  13  14
ENDBRANCH  11  13
ENDBRANCH  10  11
ENDBRANCH   3  10
BRANCH   6  21
ATOM     21  O   UNL     1       4.065   3.685  16.901  0.00  0.00    +0.000 OA
BRANCH  21  22
ATOM     22  C   UNL     1       3.779   2.629  17.755  0.00  0.00    +0.000 C 
BRANCH  22  23
ATOM     23  C   UNL     1       2.852   2.882  18.899  0.00  0.00    +0.000 A 
ATOM     24  C   UNL     1       1.566   3.423  18.748  0.00  0.00    +0.000 A 
ATOM     25  C   UNL     1       0.746   3.590  19.870  0.00  0.00    +0.000 A 
ATOM     26  C   UNL     1       1.208   3.232  21.141  0.00  0.00    +0.000 A 
ATOM     27  C   UNL     1       2.484   2.694  21.297  0.00  0.00    +0.000 A 
ATOM     28  C   UNL     1       3.302   2.507  20.189  0.00  0.00    +0.000 A 
ATOM     29 CL   UNL     1       4.901   1.803  20.456  0.00  0.00    +0.000 Cl
ENDBRANCH  22  23
ENDBRANCH  21  22
ENDBRANCH   6  21
TORSDOF 10
ENDMDL
MODEL 2
REMARK VINA RESULT:      -7.6      1.661      2.500
REMARK  Name = 
REMARK  11 active torsions:
REMARK  status: ('A' for Active; 'I' for Inactive)
REMARK    1  A    between atoms: C_1  and  C_2
REMARK    2  A    between atoms: C_2  and  O_3
REMARK    3  A    between atoms: O_3  and  C_4
REMARK    4  A    between atoms: C_6  and  C_7
REMARK    5  A    between atoms: C_7  and  N_8
REMARK    6  A    between atoms: N_8  and  C_9
REMARK    7  A    between atoms: C_9  and  C_10
REMARK    8  A    between atoms: C_10  and  N_11
REMARK    9  A    between atoms: C_19  and  O_20
REMARK   10  A    between atoms: O_20  and  C_21
REMARK   11  A    between atoms: C_21  and  C_22
REMARK                            x       y       z     vdW  Elec       q    Type
REMARK                         _______ _______ _______ _____ _____    ______ ____
ROOT
ATOM      1  C   UNL     1       4.691   6.414  17.412  0.00  0.00    +0.000 A 
ATOM      2  C   UNL     1       5.808   7.199  17.766  0.00  0.00    +0.000 A 
ATOM      3  C   UNL     1       7.078   6.634  17.961  0.00  0.00    +0.000 A 
ATOM      4  C   UNL     1       7.244   5.270  17.808  0.00  0.00    +0.000 A 
ATOM      5  C   UNL     1       6.183   4.481  17.441  0.00  0.00    +0.000 A 
ATOM      6  C   UNL     1       4.888   5.003  17.218  0.00  0.00    +0.000 A 
ENDROOT
BRANCH   1   7
ATOM      7  O   UNL     1       3.519   7.107  17.283  0.00  0.00    +0.000 OA
BRANCH   7   9
ATOM      8  C   UNL     1       1.843   8.860  17.891  0.00  0.00    +0.000 C 
ATOM      9  C   UNL     1       2.459   7.486  18.107  0.00  0.00    +0.000 C 
ENDBRANCH   7   9
ENDBRANCH   1   7
BRANCH   3  10
ATOM     10  C   UNL     1       8.303   7.435  18.302  0.00  0.00    +0.000 C 
BRANCH  10  11
ATOM     11  N   UNL     1       8.121   8.856  17.929  0.00  0.00    +0.000 NA
ATOM     12  H   UNL     1       7.101   9.093  17.919  0.00  0.00    +0.000 HD
BRANCH  11  13
ATOM     13  C   UNL     1       8.809   9.812  18.819  0.00  0.00    +0.000 C 
BRANCH  13  14
ATOM     14  C   UNL     1       9.619  10.811  17.991  0.00  0.00    +0.000 C 
BRANCH  14  15
ATOM     15  N   UNL     1      10.615  11.588  18.764  0.00  0.00    +0.000 NA
ATOM     16  C   UNL     1      10.047  12.621  19.656  0.00  0.00    +0.000 C 
ATOM     17  C   UNL     1       9.429  13.774  18.848  0.00  0.00    +0.000 C 
ATOM     18  O   UNL     1      10.398  14.368  18.001  0.00  0.00    +0.000 OA
ATOM     19  C   UNL     1      10.899  13.409  17.088  0.00  0.00    +0.000 C 
ATOM     20  C   UNL     1      11.568  12.238  17.838  0.00  0.00    +0.000 C 
ENDBRANCH  14  15
ENDBRANCH  13  14
ENDBRANCH  11  13
ENDBRANCH  10  11
ENDBRANCH   3  10
BRANCH   6  21
ATOM     21  O   UNL     1       3.892   4.150  16.845  0.00  0.00    +0.000 OA
BRANCH  21  22
ATOM     22  C   UNL     1       3.609   3.029  17.612  0.00  0.00    +0.000 C 
BRANCH  22  23
ATOM     23  C   UNL     1       2.791   3.213  18.849  0.00  0.00    +0.000 A 
ATOM     24  C   UNL     1       1.543   3.856  18.862  0.00  0.00    +0.000 A 
ATOM     25  C   UNL     1       0.822   3.950  20.059  0.00  0.00    +0.000 A 
ATOM     26  C   UNL     1       1.345   3.416  21.241  0.00  0.00    +0.000 A 
ATOM     27  C   UNL     1       2.584   2.776  21.234  0.00  0.00    +0.000 A 
ATOM     28  C   UNL     1       3.302   2.661  20.049  0.00  0.00    +0.000 A 
ATOM     29 CL   UNL     1       4.856   1.821  20.107  0.00  0.00    +0.000 Cl
ENDBRANCH  22  23
ENDBRANCH  21  22
ENDBRANCH   6  21
TORSDOF 10
ENDMDL
MODEL 3
REMARK VINA RESULT:      -7.6      1.453      2.582
REMARK  Name = 
REMARK  11 active torsions:
REMARK  status: ('A' for Active; 'I' for Inactive)
REMARK    1  A    between atoms: C_1  and  C_2
REMARK    2  A    between atoms: C_2  and  O_3
REMARK    3  A    between atoms: O_3  and  C_4
REMARK    4  A    between atoms: C_6  and  C_7
REMARK    5  A    between atoms: C_7  and  N_8
REMARK    6  A    between atoms: N_8  and  C_9
REMARK    7  A    between atoms: C_9  and  C_10
REMARK    8  A    between atoms: C_10  and  N_11
REMARK    9  A    between atoms: C_19  and  O_20
REMARK   10  A    between atoms: O_20  and  C_21
REMARK   11  A    between atoms: C_21  and  C_22
REMARK                            x       y       z     vdW  Elec       q    Type
REMARK                         _______ _______ _______ _____ _____    ______ ____
ROOT
ATOM      1  C   UNL     1       4.210   5.763  17.421  0.00  0.00    +0.000 A 
ATOM      2  C   UNL     1       5.301   6.653  17.516  0.00  0.00    +0.000 A 
ATOM      3  C   UNL     1       6.599   6.274  17.138  0.00  0.00    +0.000 A 
ATOM      4  C   UNL     1       6.822   4.995  16.664  0.00  0.00    +0.000 A 
ATOM      5  C   UNL     1       5.778   4.113  16.537  0.00  0.00    +0.000 A 
ATOM      6  C   UNL     1       4.451   4.449  16.890  0.00  0.00    +0.000 A 
ENDROOT
BRANCH   1   7
ATOM      7  O   UNL     1       3.016   6.271  17.852  0.00  0.00    +0.000 OA
BRANCH   7   9
ATOM      8  C   UNL     1       2.166   7.062  20.066  0.00  0.00    +0.000 C 
ATOM      9  C   UNL     1       2.581   7.344  18.629  0.00  0.00    +0.000 C 
ENDBRANCH   7   9
ENDBRANCH   1   7
BRANCH   3  10
ATOM     10  C   UNL     1       7.783   7.199  17.187  0.00  0.00    +0.000 C 
BRANCH  10  11
ATOM     11  N   UNL     1       7.461   8.422  17.954  0.00  0.00    +0.000 NA
ATOM     12  H   UNL     1       7.611   8.252  18.976  0.00  0.00    +0.000 HD
BRANCH  11  13
ATOM     13  C   UNL     1       8.247   9.610  17.564  0.00  0.00    +0.000 C 
BRANCH  13  14
ATOM     14  C   UNL     1       8.932  10.214  18.791  0.00  0.00    +0.000 C 
BRANCH  14  15
ATOM     15  N   UNL     1       9.157  11.676  18.714  0.00  0.00    +0.000 NA
ATOM     16  C   UNL     1      10.296  12.089  17.867  0.00  0.00    +0.000 C 
ATOM     17  C   UNL     1      11.636  11.680  18.498  0.00  0.00    +0.000 C 
ATOM     18  O   UNL     1      11.780  12.254  19.787  0.00  0.00    +0.000 OA
ATOM     19  C   UNL     1      10.738  11.808  20.635  0.00  0.00    +0.000 C 
ATOM     20  C   UNL     1       9.361  12.221  20.074  0.00  0.00    +0.000 C 
ENDBRANCH  14  15
ENDBRANCH  13  14
ENDBRANCH  11  13
ENDBRANCH  10  11
ENDBRANCH   3  10
BRANCH   6  21
ATOM     21  O   UNL     1       3.471   3.517  16.722  0.00  0.00    +0.000 OA
BRANCH  21  22
ATOM     22  C   UNL     1       3.308   2.501  17.653  0.00  0.00    +0.000 C 
BRANCH  22  23
ATOM     23  C   UNL     1       2.598   2.824  18.927  0.00  0.00    +0.000 A 
ATOM     24  C   UNL     1       1.305   3.371  18.976  0.00  0.00    +0.000 A 
ATOM     25  C   UNL     1       0.696   3.606  20.215  0.00  0.00    +0.000 A 
ATOM     26  C   UNL     1       1.375   3.310  21.402  0.00  0.00    +0.000 A 
ATOM     27  C   UNL     1       2.658   2.767  21.360  0.00  0.00    +0.000 A 
ATOM     28  C   UNL     1       3.267   2.513  20.136  0.00  0.00    +0.000 A 
ATOM     29 CL   UNL     1       4.887   1.806  20.155  0.00  0.00    +0.000 Cl
ENDBRANCH  22  23
ENDBRANCH  21  22
ENDBRANCH   6  21
TORSDOF 10
ENDMDL
MODEL 4
REMARK VINA RESULT:      -7.4      6.196      9.243
REMARK  Name = 
REMARK  11 active torsions:
REMARK  status: ('A' for Active; 'I' for Inactive)
REMARK    1  A    between atoms: C_1  and  C_2
REMARK    2  A    between atoms: C_2  and  O_3
REMARK    3  A    between atoms: O_3  and  C_4
REMARK    4  A    between atoms: C_6  and  C_7
REMARK    5  A    between atoms: C_7  and  N_8
REMARK    6  A    between atoms: N_8  and  C_9
REMARK    7  A    between atoms: C_9  and  C_10
REMARK    8  A    between atoms: C_10  and  N_11
REMARK    9  A    between atoms: C_19  and  O_20
REMARK   10  A    between atoms: O_20  and  C_21
REMARK   11  A    between atoms: C_21  and  C_22
REMARK                            x       y       z     vdW  Elec       q    Type
REMARK                         _______ _______ _______ _____ _____    ______ ____
ROOT
ATOM      1  C   UNL     1       2.038   7.164  19.934  0.00  0.00    +0.000 A 
ATOM      2  C   UNL     1       1.315   8.209  20.546  0.00  0.00    +0.000 A 
ATOM      3  C   UNL     1       1.032   9.408  19.871  0.00  0.00    +0.000 A 
ATOM      4  C   UNL     1       1.476   9.576  18.573  0.00  0.00    +0.000 A 
ATOM      5  C   UNL     1       2.161   8.569  17.941  0.00  0.00    +0.000 A 
ATOM      6  C   UNL     1       2.459   7.339  18.570  0.00  0.00    +0.000 A 
ENDROOT
BRANCH   1   7
ATOM      7  O   UNL     1       2.255   6.073  20.730  0.00  0.00    +0.000 OA
BRANCH   7   9
ATOM      8  C   UNL     1       1.082   3.876  20.502  0.00  0.00    +0.000 C 
ATOM      9  C   UNL     1       2.365   4.693  20.565  0.00  0.00    +0.000 C 
ENDBRANCH   7   9
ENDBRANCH   1   7
BRANCH   3  10
ATOM     10  C   UNL     1       0.234  10.532  20.470  0.00  0.00    +0.000 C 
BRANCH  10  11
ATOM     11  N   UNL     1       0.136  11.666  19.525  0.00  0.00    +0.000 NA
ATOM     12  H   UNL     1       0.505  11.382  18.588  0.00  0.00    +0.000 HD
BRANCH  11  13
ATOM     13  C   UNL     1      -1.233  12.190  19.343  0.00  0.00    +0.000 C 
BRANCH  13  14
ATOM     14  C   UNL     1      -1.733  11.875  17.932  0.00  0.00    +0.000 C 
BRANCH  14  15
ATOM     15  N   UNL     1      -2.483  10.604  17.813  0.00  0.00    +0.000 NA
ATOM     16  C   UNL     1      -2.259   9.862  16.555  0.00  0.00    +0.000 C 
ATOM     17  C   UNL     1      -2.868  10.604  15.354  0.00  0.00    +0.000 C 
ATOM     18  O   UNL     1      -4.259  10.801  15.540  0.00  0.00    +0.000 OA
ATOM     19  C   UNL     1      -4.489  11.577  16.701  0.00  0.00    +0.000 C 
ATOM     20  C   UNL     1      -3.932  10.865  17.953  0.00  0.00    +0.000 C 
ENDBRANCH  14  15
ENDBRANCH  13  14
ENDBRANCH  11  13
ENDBRANCH  10  11
ENDBRANCH   3  10
BRANCH   6  21
ATOM     21  O   UNL     1       3.135   6.387  17.867  0.00  0.00    +0.000 OA
BRANCH  21  22
ATOM     22  C   UNL     1       4.517   6.305  17.955  0.00  0.00    +0.000 C 
BRANCH  22  23
ATOM     23  C   UNL     1       5.248   5.571  16.878  0.00  0.00    +0.000 A 
ATOM     24  C   UNL     1       4.641   4.621  16.041  0.00  0.00    +0.000 A 
ATOM     25  C   UNL     1       5.390   4.008  15.029  0.00  0.00    +0.000 A 
ATOM     26  C   UNL     1       6.740   4.331  14.856  0.00  0.00    +0.000 A 
ATOM     27  C   UNL     1       7.347   5.274  15.683  0.00  0.00    +0.000 A 
ATOM     28  C   UNL     1       6.611   5.902  16.681  0.00  0.00    +0.000 A 
ATOM     29 CL   UNL     1       7.438   7.102  17.682  0.00  0.00    +0.000 Cl
ENDBRANCH  22  23
ENDBRANCH  21  22
ENDBRANCH   6  21
TORSDOF 10
ENDMDL
MODEL 5
REMARK VINA RESULT:      -7.3      1.512      1.991
REMARK  Name = 
REMARK  11 active torsions:
REMARK  status: ('A' for Active; 'I' for Inactive)
REMARK    1  A    between atoms: C_1  and  C_2
REMARK    2  A    between atoms: C_2  and  O_3
REMARK    3  A    between atoms: O_3  and  C_4
REMARK    4  A    between atoms: C_6  and  C_7
REMARK    5  A    between atoms: C_7  and  N_8
REMARK    6  A    between atoms: N_8  and  C_9
REMARK    7  A    between atoms: C_9  and  C_10
REMARK    8  A    between atoms: C_10  and  N_11
REMARK    9  A    between atoms: C_19  and  O_20
REMARK   10  A    between atoms: O_20  and  C_21
REMARK   11  A    between atoms: C_21  and  C_22
REMARK                            x       y       z     vdW  Elec       q    Type
REMARK                         _______ _______ _______ _____ _____    ______ ____
ROOT
ATOM      1  C   UNL     1       5.998   5.069  16.097  0.00  0.00    +0.000 A 
ATOM      2  C   UNL     1       6.791   6.232  16.184  0.00  0.00    +0.000 A 
ATOM      3  C   UNL     1       7.089   6.834  17.418  0.00  0.00    +0.000 A 
ATOM      4  C   UNL     1       6.590   6.279  18.581  0.00  0.00    +0.000 A 
ATOM      5  C   UNL     1       5.834   5.134  18.533  0.00  0.00    +0.000 A 
ATOM      6  C   UNL     1       5.519   4.482  17.319  0.00  0.00    +0.000 A 
ENDROOT
BRANCH   1   7
ATOM      7  O   UNL     1       5.777   4.619  14.825  0.00  0.00    +0.000 OA
BRANCH   7   9
ATOM      8  C   UNL     1       5.886   3.469  12.607  0.00  0.00    +0.000 C 
ATOM      9  C   UNL     1       6.545   4.286  13.709  0.00  0.00    +0.000 C 
ENDBRANCH   7   9
ENDBRANCH   1   7
BRANCH   3  10
ATOM     10  C   UNL     1       7.959   8.050  17.562  0.00  0.00    +0.000 C 
BRANCH  10  11
ATOM     11  N   UNL     1       8.614   8.073  18.889  0.00  0.00    +0.000 NA
ATOM     12  H   UNL     1       9.448   7.440  18.885  0.00  0.00    +0.000 HD
BRANCH  11  13
ATOM     13  C   UNL     1       9.054   9.413  19.328  0.00  0.00    +0.000 C 
BRANCH  13  14
ATOM     14  C   UNL     1       8.950  10.406  18.169  0.00  0.00    +0.000 C 
BRANCH  14  15
ATOM     15  N   UNL     1      10.025  11.424  18.133  0.00  0.00    +0.000 NA
ATOM     16  C   UNL     1      10.545  11.832  19.455  0.00  0.00    +0.000 C 
ATOM     17  C   UNL     1       9.494  12.631  20.243  0.00  0.00    +0.000 C 
ATOM     18  O   UNL     1       9.095  13.784  19.521  0.00  0.00    +0.000 OA
ATOM     19  C   UNL     1       8.525  13.407  18.281  0.00  0.00    +0.000 C 
ATOM     20  C   UNL     1       9.546  12.630  17.423  0.00  0.00    +0.000 C 
ENDBRANCH  14  15
ENDBRANCH  13  14
ENDBRANCH  11  13
ENDBRANCH  10  11
ENDBRANCH   3  10
BRANCH   6  21
ATOM     21  O   UNL     1       4.772   3.342  17.361  0.00  0.00    +0.000 OA
BRANCH  21  22
ATOM     22  C   UNL     1       3.388   3.413  17.287  0.00  0.00    +0.000 C 
BRANCH  22  23
ATOM     23  C   UNL     1       2.615   3.413  18.566  0.00  0.00    +0.000 A 
ATOM     24  C   UNL     1       2.396   2.261  19.337  0.00  0.00    +0.000 A 
ATOM     25  C   UNL     1       1.694   2.356  20.545  0.00  0.00    +0.000 A 
ATOM     26  C   UNL     1       1.202   3.591  20.979  0.00  0.00    +0.000 A 
ATOM     27  C   UNL     1       1.417   4.739  20.217  0.00  0.00    +0.000 A 
ATOM     28  C   UNL     1       2.126   4.660  19.024  0.00  0.00    +0.000 A 
ATOM     29 CL   UNL     1       2.379   6.157  18.117  0.00  0.00    +0.000 Cl
ENDBRANCH  22  23
ENDBRANCH  21  22
ENDBRANCH   6  21
TORSDOF 10
ENDMDL
MODEL 6
REMARK VINA RESULT:      -7.3      1.287      1.884
REMARK  Name = 
REMARK  11 active torsions:
REMARK  status: ('A' for Active; 'I' for Inactive)
REMARK    1  A    between atoms: C_1  and  C_2
REMARK    2  A    between atoms: C_2  and  O_3
REMARK    3  A    between atoms: O_3  and  C_4
REMARK    4  A    between atoms: C_6  and  C_7
REMARK    5  A    between atoms: C_7  and  N_8
REMARK    6  A    between atoms: N_8  and  C_9
REMARK    7  A    between atoms: C_9  and  C_10
REMARK    8  A    between atoms: C_10  and  N_11
REMARK    9  A    between atoms: C_19  and  O_20
REMARK   10  A    between atoms: O_20  and  C_21
REMARK   11  A    between atoms: C_21  and  C_22
REMARK                            x       y       z     vdW  Elec       q    Type
REMARK                         _______ _______ _______ _____ _____    ______ ____
ROOT
ATOM      1  C   UNL     1       6.202   4.696  16.355  0.00  0.00    +0.000 A 
ATOM      2  C   UNL     1       7.265   5.522  16.774  0.00  0.00    +0.000 A 
ATOM      3  C   UNL     1       7.173   6.320  17.926  0.00  0.00    +0.000 A 
ATOM      4  C   UNL     1       6.009   6.304  18.670  0.00  0.00    +0.000 A 
ATOM      5  C   UNL     1       4.964   5.493  18.302  0.00  0.00    +0.000 A 
ATOM      6  C   UNL     1       5.012   4.660  17.161  0.00  0.00    +0.000 A 
ENDROOT
BRANCH   1   7
ATOM      7  O   UNL     1       6.436   4.000  15.201  0.00  0.00    +0.000 OA
BRANCH   7   9
ATOM      8  C   UNL     1       6.594   3.817  12.712  0.00  0.00    +0.000 C 
ATOM      9  C   UNL     1       5.776   3.768  13.994  0.00  0.00    +0.000 C 
ENDBRANCH   7   9
ENDBRANCH   1   7
BRANCH   3  10
ATOM     10  C   UNL     1       8.292   7.187  18.430  0.00  0.00    +0.000 C 
BRANCH  10  11
ATOM     11  N   UNL     1       8.122   8.583  17.971  0.00  0.00    +0.000 NA
ATOM     12  H   UNL     1       7.104   8.822  17.928  0.00  0.00    +0.000 HD
BRANCH  11  13
ATOM     13  C   UNL     1       8.798   9.588  18.816  0.00  0.00    +0.000 C 
BRANCH  13  14
ATOM     14  C   UNL     1       8.908  10.917  18.066  0.00  0.00    +0.000 C 
BRANCH  14  15
ATOM     15  N   UNL     1      10.283  11.458  17.970  0.00  0.00    +0.000 NA
ATOM     16  C   UNL     1      11.044  11.460  19.237  0.00  0.00    +0.000 C 
ATOM     17  C   UNL     1      10.464  12.477  20.233  0.00  0.00    +0.000 C 
ATOM     18  O   UNL     1      10.472  13.782  19.679  0.00  0.00    +0.000 OA
ATOM     19  C   UNL     1       9.684  13.816  18.504  0.00  0.00    +0.000 C 
ATOM     20  C   UNL     1      10.239  12.840  17.445  0.00  0.00    +0.000 C 
ENDBRANCH  14  15
ENDBRANCH  13  14
ENDBRANCH  11  13
ENDBRANCH  10  11
ENDBRANCH   3  10
BRANCH   6  21
ATOM     21  O   UNL     1       3.934   3.877  16.873  0.00  0.00    +0.000 OA
BRANCH  21  22
ATOM     22  C   UNL     1       3.673   2.744  17.632  0.00  0.00    +0.000 C 
BRANCH  22  23
ATOM     23  C   UNL     1       2.956   2.919  18.931  0.00  0.00    +0.000 A 
ATOM     24  C   UNL     1       3.446   2.439  20.156  0.00  0.00    +0.000 A 
ATOM     25  C   UNL     1       2.729   2.681  21.334  0.00  0.00    +0.000 A 
ATOM     26  C   UNL     1       1.523   3.388  21.293  0.00  0.00    +0.000 A 
ATOM     27  C   UNL     1       1.031   3.867  20.080  0.00  0.00    +0.000 A 
ATOM     28  C   UNL     1       1.742   3.648  18.905  0.00  0.00    +0.000 A 
ATOM     29 CL   UNL     1       1.071   4.299  17.404  0.00  0.00    +0.000 Cl
ENDBRANCH  22  23
ENDBRANCH  21  22
ENDBRANCH   6  21
TORSDOF 10
ENDMDL
MODEL 7
REMARK VINA RESULT:      -7.3      2.223      2.954
REMARK  Name = 
REMARK  11 active torsions:
REMARK  status: ('A' for Active; 'I' for Inactive)
REMARK    1  A    between atoms: C_1  and  C_2
REMARK    2  A    between atoms: C_2  and  O_3
REMARK    3  A    between atoms: O_3  and  C_4
REMARK    4  A    between atoms: C_6  and  C_7
REMARK    5  A    between atoms: C_7  and  N_8
REMARK    6  A    between atoms: N_8  and  C_9
REMARK    7  A    between atoms: C_9  and  C_10
REMARK    8  A    between atoms: C_10  and  N_11
REMARK    9  A    between atoms: C_19  and  O_20
REMARK   10  A    between atoms: O_20  and  C_21
REMARK   11  A    between atoms: C_21  and  C_22
REMARK                            x       y       z     vdW  Elec       q    Type
REMARK                         _______ _______ _______ _____ _____    ______ ____
ROOT
ATOM      1  C   UNL     1       5.317   5.995  18.249  0.00  0.00    +0.000 A 
ATOM      2  C   UNL     1       6.019   7.054  17.638  0.00  0.00    +0.000 A 
ATOM      3  C   UNL     1       7.375   7.298  17.912  0.00  0.00    +0.000 A 
ATOM      4  C   UNL     1       8.043   6.485  18.808  0.00  0.00    +0.000 A 
ATOM      5  C   UNL     1       7.394   5.431  19.402  0.00  0.00    +0.000 A 
ATOM      6  C   UNL     1       6.035   5.134  19.149  0.00  0.00    +0.000 A 
ENDROOT
BRANCH   1   7
ATOM      7  O   UNL     1       3.997   5.904  17.900  0.00  0.00    +0.000 OA
BRANCH   7   9
ATOM      8  C   UNL     1       2.396   6.661  19.665  0.00  0.00    +0.000 C 
ATOM      9  C   UNL     1       2.810   6.570  18.203  0.00  0.00    +0.000 C 
ENDBRANCH   7   9
ENDBRANCH   1   7
BRANCH   3  10
ATOM     10  C   UNL     1       8.173   8.390  17.258  0.00  0.00    +0.000 C 
BRANCH  10  11
ATOM     11  N   UNL     1       8.037   9.659  18.006  0.00  0.00    +0.000 NA
ATOM     12  H   UNL     1       7.141   9.660  18.546  0.00  0.00    +0.000 HD
BRANCH  11  13
ATOM     13  C   UNL     1       9.143   9.933  18.946  0.00  0.00    +0.000 C 
BRANCH  13  14
ATOM     14  C   UNL     1       9.901  11.190  18.515  0.00  0.00    +0.000 C 
BRANCH  14  15
ATOM     15  N   UNL     1      11.087  11.508  19.342  0.00  0.00    +0.000 NA
ATOM     16  C   UNL     1      10.790  12.158  20.636  0.00  0.00    +0.000 C 
ATOM     17  C   UNL     1      10.259  13.586  20.432  0.00  0.00    +0.000 C 
ATOM     18  O   UNL     1      11.196  14.373  19.717  0.00  0.00    +0.000 OA
ATOM     19  C   UNL     1      11.435  13.805  18.443  0.00  0.00    +0.000 C 
ATOM     20  C   UNL     1      12.008  12.378  18.579  0.00  0.00    +0.000 C 
ENDBRANCH  14  15
ENDBRANCH  13  14
ENDBRANCH  11  13
ENDBRANCH  10  11
ENDBRANCH   3  10
BRANCH   6  21
ATOM     21  O   UNL     1       5.470   4.062  19.773  0.00  0.00    +0.000 OA
BRANCH  21  22
ATOM     22  C   UNL     1       4.629   3.210  19.070  0.00  0.00    +0.000 C 
BRANCH  22  23
ATOM     23  C   UNL     1       3.218   3.071  19.541  0.00  0.00    +0.000 A 
ATOM     24  C   UNL     1       2.854   3.044  20.897  0.00  0.00    +0.000 A 
ATOM     25  C   UNL     1       1.502   2.951  21.251  0.00  0.00    +0.000 A 
ATOM     26  C   UNL     1       0.517   2.872  20.262  0.00  0.00    +0.000 A 
ATOM     27  C   UNL     1       0.873   2.898  18.914  0.00  0.00    +0.000 A 
ATOM     28  C   UNL     1       2.210   3.008  18.549  0.00  0.00    +0.000 A 
ATOM     29 CL   UNL     1       2.590   3.054  16.823  0.00  0.00    +0.000 Cl
ENDBRANCH  22  23
ENDBRANCH  21  22
ENDBRANCH   6  21
TORSDOF 10
ENDMDL
MODEL 8
REMARK VINA RESULT:      -7.2      6.120      8.598
REMARK  Name = 
REMARK  11 active torsions:
REMARK  status: ('A' for Active; 'I' for Inactive)
REMARK    1  A    between atoms: C_1  and  C_2
REMARK    2  A    between atoms: C_2  and  O_3
REMARK    3  A    between atoms: O_3  and  C_4
REMARK    4  A    between atoms: C_6  and  C_7
REMARK    5  A    between atoms: C_7  and  N_8
REMARK    6  A    between atoms: N_8  and  C_9
REMARK    7  A    between atoms: C_9  and  C_10
REMARK    8  A    between atoms: C_10  and  N_11
REMARK    9  A    between atoms: C_19  and  O_20
REMARK   10  A    between atoms: O_20  and  C_21
REMARK   11  A    between atoms: C_21  and  C_22
REMARK                            x       y       z     vdW  Elec       q    Type
REMARK                         _______ _______ _______ _____ _____    ______ ____
ROOT
ATOM      1  C   UNL     1       1.342   8.833  20.339  0.00  0.00    +0.000 A 
ATOM      2  C   UNL     1       1.645   7.504  20.703  0.00  0.00    +0.000 A 
ATOM      3  C   UNL     1       2.086   6.560  19.762  0.00  0.00    +0.000 A 
ATOM      4  C   UNL     1       2.224   6.936  18.439  0.00  0.00    +0.000 A 
ATOM      5  C   UNL     1       1.960   8.227  18.055  0.00  0.00    +0.000 A 
ATOM      6  C   UNL     1       1.529   9.218  18.966  0.00  0.00    +0.000 A 
ENDROOT
BRANCH   1   7
ATOM      7  O   UNL     1       0.901   9.623  21.364  0.00  0.00    +0.000 OA
BRANCH   7   9
ATOM      8  C   UNL     1      -0.831  10.239  23.059  0.00  0.00    +0.000 C 
ATOM      9  C   UNL     1       0.401   9.443  22.653  0.00  0.00    +0.000 C 
ENDBRANCH   7   9
ENDBRANCH   1   7
BRANCH   3  10
ATOM     10  C   UNL     1       2.454   5.146  20.111  0.00  0.00    +0.000 C 
BRANCH  10  11
ATOM     11  N   UNL     1       3.920   5.004  20.246  0.00  0.00    +0.000 NA
ATOM     12  H   UNL     1       4.162   4.714  21.222  0.00  0.00    +0.000 HD
BRANCH  11  13
ATOM     13  C   UNL     1       4.527   4.033  19.313  0.00  0.00    +0.000 C 
BRANCH  13  14
ATOM     14  C   UNL     1       5.655   4.699  18.522  0.00  0.00    +0.000 C 
BRANCH  14  15
ATOM     15  N   UNL     1       5.215   5.406  17.297  0.00  0.00    +0.000 NA
ATOM     16  C   UNL     1       5.504   4.701  16.031  0.00  0.00    +0.000 C 
ATOM     17  C   UNL     1       7.014   4.664  15.747  0.00  0.00    +0.000 C 
ATOM     18  O   UNL     1       7.546   5.976  15.685  0.00  0.00    +0.000 OA
ATOM     19  C   UNL     1       7.344   6.641  16.918  0.00  0.00    +0.000 C 
ATOM     20  C   UNL     1       5.839   6.746  17.244  0.00  0.00    +0.000 C 
ENDBRANCH  14  15
ENDBRANCH  13  14
ENDBRANCH  11  13
ENDBRANCH  10  11
ENDBRANCH   3  10
BRANCH   6  21
ATOM     21  O   UNL     1       1.300  10.480  18.504  0.00  0.00    +0.000 OA
BRANCH  21  22
ATOM     22  C   UNL     1       0.218  11.210  18.976  0.00  0.00    +0.000 C 
BRANCH  22  23
ATOM     23  C   UNL     1      -1.123  10.949  18.372  0.00  0.00    +0.000 A 
ATOM     24  C   UNL     1      -1.354   9.965  17.397  0.00  0.00    +0.000 A 
ATOM     25  C   UNL     1      -2.652   9.759  16.912  0.00  0.00    +0.000 A 
ATOM     26  C   UNL     1      -3.714  10.536  17.385  0.00  0.00    +0.000 A 
ATOM     27  C   UNL     1      -3.490  11.515  18.353  0.00  0.00    +0.000 A 
ATOM     28  C   UNL     1      -2.210  11.718  18.855  0.00  0.00    +0.000 A 
ATOM     29 CL   UNL     1      -2.000  12.962  20.094  0.00  0.00    +0.000 Cl
ENDBRANCH  22  23
ENDBRANCH  21  22
ENDBRANCH   6  21
TORSDOF 10
ENDMDL
MODEL 9
REMARK VINA RESULT:      -7.2      1.812      2.922
REMARK  Name = 
REMARK  11 active torsions:
REMARK  status: ('A' for Active; 'I' for Inactive)
REMARK    1  A    between atoms: C_1  and  C_2
REMARK    2  A    between atoms: C_2  and  O_3
REMARK    3  A    between atoms: O_3  and  C_4
REMARK    4  A    between atoms: C_6  and  C_7
REMARK    5  A    between atoms: C_7  and  N_8
REMARK    6  A    between atoms: N_8  and  C_9
REMARK    7  A    between atoms: C_9  and  C_10
REMARK    8  A    between atoms: C_10  and  N_11
REMARK    9  A    between atoms: C_19  and  O_20
REMARK   10  A    between atoms: O_20  and  C_21
REMARK   11  A    between atoms: C_21  and  C_22
REMARK                            x       y       z     vdW  Elec       q    Type
REMARK                         _______ _______ _______ _____ _____    ______ ____
ROOT
ATOM      1  C   UNL     1       5.504   4.460  18.578  0.00  0.00    +0.000 A 
ATOM      2  C   UNL     1       6.548   5.332  18.948  0.00  0.00    +0.000 A 
ATOM      3  C   UNL     1       7.070   6.283  18.055  0.00  0.00    +0.000 A 
ATOM      4  C   UNL     1       6.554   6.366  16.776  0.00  0.00    +0.000 A 
ATOM      5  C   UNL     1       5.522   5.547  16.392  0.00  0.00    +0.000 A 
ATOM      6  C   UNL     1       4.951   4.586  17.256  0.00  0.00    +0.000 A 
ENDROOT
BRANCH   1   7
ATOM      7  O   UNL     1       5.123   3.575  19.549  0.00  0.00    +0.000 OA
BRANCH   7   9
ATOM      8  C   UNL     1       4.968   1.497  20.930  0.00  0.00    +0.000 C 
ATOM      9  C   UNL     1       4.740   2.236  19.619  0.00  0.00    +0.000 C 
ENDBRANCH   7   9
ENDBRANCH   1   7
BRANCH   3  10
ATOM     10  C   UNL     1       8.156   7.256  18.418  0.00  0.00    +0.000 C 
BRANCH  10  11
ATOM     11  N   UNL     1       8.219   8.361  17.436  0.00  0.00    +0.000 NA
ATOM     12  H   UNL     1       7.541   8.185  16.657  0.00  0.00    +0.000 HD
BRANCH  11  13
ATOM     13  C   UNL     1       7.935   9.695  18.002  0.00  0.00    +0.000 C 
BRANCH  13  14
ATOM     14  C   UNL     1       9.189  10.259  18.673  0.00  0.00    +0.000 C 
BRANCH  14  15
ATOM     15  N   UNL     1       9.713  11.499  18.057  0.00  0.00    +0.000 NA
ATOM     16  C   UNL     1      11.187  11.594  18.002  0.00  0.00    +0.000 C 
ATOM     17  C   UNL     1      11.787  11.762  19.407  0.00  0.00    +0.000 C 
ATOM     18  O   UNL     1      11.266  12.919  20.040  0.00  0.00    +0.000 OA
ATOM     19  C   UNL     1       9.861  12.810  20.169  0.00  0.00    +0.000 C 
ATOM     20  C   UNL     1       9.193  12.676  18.784  0.00  0.00    +0.000 C 
ENDBRANCH  14  15
ENDBRANCH  13  14
ENDBRANCH  11  13
ENDBRANCH  10  11
ENDBRANCH   3  10
BRANCH   6  21
ATOM     21  O   UNL     1       3.921   3.820  16.798  0.00  0.00    +0.000 OA
BRANCH  21  22
ATOM     22  C   UNL     1       2.608   4.212  17.021  0.00  0.00    +0.000 C 
BRANCH  22  23
ATOM     23  C   UNL     1       1.967   3.818  18.312  0.00  0.00    +0.000 A 
ATOM     24  C   UNL     1       1.471   2.530  18.568  0.00  0.00    +0.000 A 
ATOM     25  C   UNL     1       0.921   2.234  19.821  0.00  0.00    +0.000 A 
ATOM     26  C   UNL     1       0.853   3.218  20.813  0.00  0.00    +0.000 A 
ATOM     27  C   UNL     1       1.344   4.499  20.564  0.00  0.00    +0.000 A 
ATOM     28  C   UNL     1       1.909   4.801  19.330  0.00  0.00    +0.000 A 
ATOM     29 CL   UNL     1       2.529   6.439  19.089  0.00  0.00    +0.000 Cl
ENDBRANCH  22  23
ENDBRANCH  21  22
ENDBRANCH   6  21
TORSDOF 10
ENDMDL
