MODEL 1
REMARK VINA RESULT:     -10.5      0.000      0.000
REMARK  Name = 
REMARK  7 active torsions:
REMARK  status: ('A' for Active; 'I' for Inactive)
REMARK    1  A    between atoms: C_1  and  C_2
REMARK    2  A    between atoms: C_2  and  C_3
REMARK    3  A    between atoms: C_8  and  C_9
REMARK    4  A    between atoms: C_12  and  N_13
REMARK    5  A    between atoms: N_13  and  C_14
REMARK    6  A    between atoms: C_15  and  C_16
REMARK    7  A    between atoms: C_16  and  C_17
REMARK                            x       y       z     vdW  Elec       q    Type
REMARK                         _______ _______ _______ _____ _____    ______ ____
ROOT
ATOM      1  N   UNL     1       2.804   6.355  19.834  0.00  0.00    +0.000 N 
ATOM      2  H   UNL     1       3.245   6.416  20.754  0.00  0.00    +0.000 HD
ENDROOT
BRANCH   1   6
ATOM      3  C   UNL     1       0.881  10.068  19.141  0.00  0.00    +0.000 A 
ATOM      4  C   UNL     1       1.582   9.439  18.111  0.00  0.00    +0.000 A 
ATOM      5  C   UNL     1       2.212   8.214  18.327  0.00  0.00    +0.000 A 
ATOM      6  C   UNL     1       2.128   7.570  19.563  0.00  0.00    +0.000 A 
ATOM      7  C   UNL     1       1.460   8.220  20.605  0.00  0.00    +0.000 A 
ATOM      8  C   UNL     1       0.841   9.453  20.393  0.00  0.00    +0.000 A 
ATOM      9  F   UNL     1       0.178  10.002  21.421  0.00  0.00    +0.000 F 
BRANCH   3  17
ATOM     10  C   UNL     1       0.742  13.091  20.708  0.00  0.00    +0.000 C 
ATOM     11  C   UNL     1       0.757  12.720  19.225  0.00  0.00    +0.000 C 
ATOM     12  C   UNL     1       2.118  12.931  18.571  0.00  0.00    +0.000 C 
ATOM     13  C   UNL     1      -0.293  13.587  18.556  0.00  0.00    +0.000 C 
ATOM     14  O   UNL     1      -0.266  14.790  18.386  0.00  0.00    +0.000 OA
ATOM     15  N   UNL     1      -1.320  12.718  18.226  0.00  0.00    +0.000 N 
ATOM     16  N   UNL     1      -1.031  11.399  18.400  0.00  0.00    +0.000 NA
ATOM     17  C   UNL     1       0.158  11.338  18.925  0.00  0.00    +0.000 C 
ATOM     18  H   UNL     1      -2.170  13.006  17.756  0.00  0.00    +0.000 HD
ENDBRANCH   3  17
ENDBRANCH   1   6
BRANCH   1  19
ATOM     19  C   UNL     1       2.270   5.100  19.582  0.00  0.00    +0.000 C 
ATOM     20  C   UNL     1       2.594   4.372  18.483  0.00  0.00    +0.000 C 
ATOM     21  C   UNL     1       1.899   3.050  18.298  0.00  0.00    +0.000 C 
ATOM     22  O   UNL     1       2.178   2.305  17.364  0.00  0.00    +0.000 OA
ATOM     23  C   UNL     1       0.765   2.678  19.224  0.00  0.00    +0.000 C 
ATOM     24  C   UNL     1       1.072   3.121  20.633  0.00  0.00    +0.000 C 
ATOM     25  C   UNL     1       1.309   4.620  20.656  0.00  0.00    +0.000 C 
BRANCH  20  26
ATOM     26  C   UNL     1       3.474   4.857  17.331  0.00  0.00    +0.000 C 
BRANCH  26  27
ATOM     27  C   UNL     1       4.888   5.300  17.689  0.00  0.00    +0.000 A 
ATOM     28  C   UNL     1       5.618   4.694  18.734  0.00  0.00    +0.000 A 
ATOM     29 CL   UNL     1       5.122   3.234  19.517  0.00  0.00    +0.000 Cl
ATOM     30  C   UNL     1       6.874   5.177  19.130  0.00  0.00    +0.000 A 
ATOM     31  C   UNL     1       7.465   6.246  18.469  0.00  0.00    +0.000 A 
ATOM     32  C   UNL     1       6.815   6.797  17.376  0.00  0.00    +0.000 A 
ATOM     33  C   UNL     1       5.559   6.318  16.979  0.00  0.00    +0.000 A 
ATOM     34 CL   UNL     1       4.994   6.969  15.481  0.00  0.00    +0.000 Cl
ENDBRANCH  26  27
ENDBRANCH  20  26
ENDBRANCH   1  19
TORSDOF 5
ENDMDL
MODEL 2
REMARK VINA RESULT:     -10.3      0.827      1.184
REMARK  Name = 
REMARK  7 active torsions:
REMARK  status: ('A' for Active; 'I' for Inactive)
REMARK    1  A    between atoms: C_1  and  C_2
REMARK    2  A    between atoms: C_2  and  C_3
REMARK    3  A    between atoms: C_8  and  C_9
REMARK    4  A    between atoms: C_12  and  N_13
REMARK    5  A    between atoms: N_13  and  C_14
REMARK    6  A    between atoms: C_15  and  C_16
REMARK    7  A    between atoms: C_16  and  C_17
REMARK                            x       y       z     vdW  Elec       q    Type
REMARK                         _______ _______ _______ _____ _____    ______ ____
ROOT
ATOM      1  N   UNL     1       2.840   6.283  20.027  0.00  0.00    +0.000 N 
ATOM      2  H   UNL     1       3.308   6.291  20.936  0.00  0.00    +0.000 HD
ENDROOT
BRANCH   1   6
ATOM      3  C   UNL     1       0.727   9.894  19.348  0.00  0.00    +0.000 A 
ATOM      4  C   UNL     1       0.627   9.245  20.580  0.00  0.00    +0.000 A 
ATOM      5  C   UNL     1       1.324   8.060  20.816  0.00  0.00    +0.000 A 
ATOM      6  C   UNL     1       2.164   7.514  19.843  0.00  0.00    +0.000 A 
ATOM      7  C   UNL     1       2.232   8.144  18.596  0.00  0.00    +0.000 A 
ATOM      8  C   UNL     1       1.524   9.322  18.355  0.00  0.00    +0.000 A 
ATOM      9  F   UNL     1       1.667   9.901  17.154  0.00  0.00    +0.000 F 
BRANCH   3  17
ATOM     10  C   UNL     1       0.481  12.887  20.958  0.00  0.00    +0.000 C 
ATOM     11  C   UNL     1       0.631  12.545  19.475  0.00  0.00    +0.000 C 
ATOM     12  C   UNL     1       2.052  12.748  18.958  0.00  0.00    +0.000 C 
ATOM     13  C   UNL     1      -0.338  13.441  18.728  0.00  0.00    +0.000 C 
ATOM     14  O   UNL     1      -0.278  14.647  18.586  0.00  0.00    +0.000 OA
ATOM     15  N   UNL     1      -1.341  12.594  18.285  0.00  0.00    +0.000 N 
ATOM     16  N   UNL     1      -1.088  11.268  18.458  0.00  0.00    +0.000 NA
ATOM     17  C   UNL     1       0.045  11.178  19.091  0.00  0.00    +0.000 C 
ATOM     18  H   UNL     1      -2.138  12.905  17.742  0.00  0.00    +0.000 HD
ENDBRANCH   3  17
ENDBRANCH   1   6
BRANCH   1  19
ATOM     19  C   UNL     1       2.293   5.046  19.721  0.00  0.00    +0.000 C 
ATOM     20  C   UNL     1       2.579   4.380  18.573  0.00  0.00    +0.000 C 
ATOM     21  C   UNL     1       1.872   3.073  18.335  0.00  0.00    +0.000 C 
ATOM     22  O   UNL     1       2.118   2.382  17.352  0.00  0.00    +0.000 OA
ATOM     23  C   UNL     1       0.766   2.653  19.273  0.00  0.00    +0.000 C 
ATOM     24  C   UNL     1       1.119   3.014  20.696  0.00  0.00    +0.000 C 
ATOM     25  C   UNL     1       1.364   4.508  20.796  0.00  0.00    +0.000 C 
BRANCH  20  26
ATOM     26  C   UNL     1       3.425   4.928  17.424  0.00  0.00    +0.000 C 
BRANCH  26  27
ATOM     27  C   UNL     1       4.857   5.329  17.758  0.00  0.00    +0.000 A 
ATOM     28  C   UNL     1       5.600   4.675  18.764  0.00  0.00    +0.000 A 
ATOM     29 CL   UNL     1       5.092   3.201  19.514  0.00  0.00    +0.000 Cl
ATOM     30  C   UNL     1       6.876   5.118  19.141  0.00  0.00    +0.000 A 
ATOM     31  C   UNL     1       7.473   6.195  18.498  0.00  0.00    +0.000 A 
ATOM     32  C   UNL     1       6.808   6.794  17.441  0.00  0.00    +0.000 A 
ATOM     33  C   UNL     1       5.532   6.354  17.062  0.00  0.00    +0.000 A 
ATOM     34 CL   UNL     1       4.943   7.064  15.600  0.00  0.00    +0.000 Cl
ENDBRANCH  26  27
ENDBRANCH  20  26
ENDBRANCH   1  19
TORSDOF 5
ENDMDL
MODEL 3
REMARK VINA RESULT:     -10.2      1.255      1.529
REMARK  Name = 
REMARK  7 active torsions:
REMARK  status: ('A' for Active; 'I' for Inactive)
REMARK    1  A    between atoms: C_1  and  C_2
REMARK    2  A    between atoms: C_2  and  C_3
REMARK    3  A    between atoms: C_8  and  C_9
REMARK    4  A    between atoms: C_12  and  N_13
REMARK    5  A    between atoms: N_13  and  C_14
REMARK    6  A    between atoms: C_15  and  C_16
REMARK    7  A    between atoms: C_16  and  C_17
REMARK                            x       y       z     vdW  Elec       q    Type
REMARK                         _______ _______ _______ _____ _____    ______ ____
ROOT
ATOM      1  N   UNL     1       3.196   5.907  20.053  0.00  0.00    +0.000 N 
ATOM      2  H   UNL     1       3.563   6.023  21.000  0.00  0.00    +0.000 HD
ENDROOT
BRANCH   1   6
ATOM      3  C   UNL     1       1.076   9.452  19.106  0.00  0.00    +0.000 A 
ATOM      4  C   UNL     1       1.848   8.817  18.133  0.00  0.00    +0.000 A 
ATOM      5  C   UNL     1       2.545   7.646  18.432  0.00  0.00    +0.000 A 
ATOM      6  C   UNL     1       2.458   7.062  19.697  0.00  0.00    +0.000 A 
ATOM      7  C   UNL     1       1.715   7.720  20.683  0.00  0.00    +0.000 A 
ATOM      8  C   UNL     1       1.031   8.900  20.387  0.00  0.00    +0.000 A 
ATOM      9  F   UNL     1       0.300   9.458  21.364  0.00  0.00    +0.000 F 
BRANCH   3  17
ATOM     10  C   UNL     1       0.606  12.491  20.574  0.00  0.00    +0.000 C 
ATOM     11  C   UNL     1       0.760  12.089  19.107  0.00  0.00    +0.000 C 
ATOM     12  C   UNL     1       2.150  12.383  18.552  0.00  0.00    +0.000 C 
ATOM     13  C   UNL     1      -0.293  12.864  18.338  0.00  0.00    +0.000 C 
ATOM     14  O   UNL     1      -0.337  14.062  18.137  0.00  0.00    +0.000 OA
ATOM     15  N   UNL     1      -1.229  11.916  17.956  0.00  0.00    +0.000 N 
ATOM     16  N   UNL     1      -0.862  10.625  18.188  0.00  0.00    +0.000 NA
ATOM     17  C   UNL     1       0.284  10.661  18.801  0.00  0.00    +0.000 C 
ATOM     18  H   UNL     1      -2.058  12.132  17.416  0.00  0.00    +0.000 HD
ENDBRANCH   3  17
ENDBRANCH   1   6
BRANCH   1  19
ATOM     19  C   UNL     1       2.773   4.610  19.801  0.00  0.00    +0.000 C 
ATOM     20  C   UNL     1       3.626   3.613  19.453  0.00  0.00    +0.000 C 
ATOM     21  C   UNL     1       3.030   2.265  19.150  0.00  0.00    +0.000 C 
ATOM     22  O   UNL     1       3.738   1.297  18.886  0.00  0.00    +0.000 OA
ATOM     23  C   UNL     1       1.529   2.124  19.071  0.00  0.00    +0.000 C 
ATOM     24  C   UNL     1       0.867   2.963  20.137  0.00  0.00    +0.000 C 
ATOM     25  C   UNL     1       1.276   4.415  19.969  0.00  0.00    +0.000 C 
BRANCH  20  26
ATOM     26  C   UNL     1       5.119   3.788  19.176  0.00  0.00    +0.000 C 
BRANCH  26  27
ATOM     27  C   UNL     1       5.508   4.861  18.165  0.00  0.00    +0.000 A 
ATOM     28  C   UNL     1       6.541   5.788  18.421  0.00  0.00    +0.000 A 
ATOM     29 CL   UNL     1       7.644   5.641  19.745  0.00  0.00    +0.000 Cl
ATOM     30  C   UNL     1       6.821   6.839  17.534  0.00  0.00    +0.000 A 
ATOM     31  C   UNL     1       6.116   6.973  16.346  0.00  0.00    +0.000 A 
ATOM     32  C   UNL     1       5.163   6.020  16.023  0.00  0.00    +0.000 A 
ATOM     33  C   UNL     1       4.880   4.968  16.906  0.00  0.00    +0.000 A 
ATOM     34 CL   UNL     1       3.828   3.761  16.256  0.00  0.00    +0.000 Cl
ENDBRANCH  26  27
ENDBRANCH  20  26
ENDBRANCH   1  19
TORSDOF 5
ENDMDL
MODEL 4
REMARK VINA RESULT:     -10.0      0.226      1.626
REMARK  Name = 
REMARK  7 active torsions:
REMARK  status: ('A' for Active; 'I' for Inactive)
REMARK    1  A    between atoms: C_1  and  C_2
REMARK    2  A    between atoms: C_2  and  C_3
REMARK    3  A    between atoms: C_8  and  C_9
REMARK    4  A    between atoms: C_12  and  N_13
REMARK    5  A    between atoms: N_13  and  C_14
REMARK    6  A    between atoms: C_15  and  C_16
REMARK    7  A    between atoms: C_16  and  C_17
REMARK                            x       y       z     vdW  Elec       q    Type
REMARK                         _______ _______ _______ _____ _____    ______ ____
ROOT
ATOM      1  N   UNL     1       2.867   6.315  19.599  0.00  0.00    +0.000 N 
ATOM      2  H   UNL     1       3.403   6.385  20.466  0.00  0.00    +0.000 HD
ENDROOT
BRANCH   1   6
ATOM      3  C   UNL     1       0.901  10.031  19.065  0.00  0.00    +0.000 A 
ATOM      4  C   UNL     1       1.542   9.418  17.989  0.00  0.00    +0.000 A 
ATOM      5  C   UNL     1       2.186   8.191  18.152  0.00  0.00    +0.000 A 
ATOM      6  C   UNL     1       2.175   7.532  19.383  0.00  0.00    +0.000 A 
ATOM      7  C   UNL     1       1.566   8.166  20.470  0.00  0.00    +0.000 A 
ATOM      8  C   UNL     1       0.934   9.400  20.310  0.00  0.00    +0.000 A 
ATOM      9  F   UNL     1       0.330   9.935  21.381  0.00  0.00    +0.000 F 
BRANCH   3  17
ATOM     10  C   UNL     1       0.864  13.042  20.661  0.00  0.00    +0.000 C 
ATOM     11  C   UNL     1       0.781  12.682  19.177  0.00  0.00    +0.000 C 
ATOM     12  C   UNL     1       2.095  12.900  18.437  0.00  0.00    +0.000 C 
ATOM     13  C   UNL     1      -0.312  13.553  18.587  0.00  0.00    +0.000 C 
ATOM     14  O   UNL     1      -0.297  14.758  18.425  0.00  0.00    +0.000 OA
ATOM     15  N   UNL     1      -1.358  12.685  18.320  0.00  0.00    +0.000 N 
ATOM     16  N   UNL     1      -1.058  11.365  18.464  0.00  0.00    +0.000 NA
ATOM     17  C   UNL     1       0.164  11.301  18.907  0.00  0.00    +0.000 C 
ATOM     18  H   UNL     1      -2.238  12.976  17.909  0.00  0.00    +0.000 HD
ENDBRANCH   3  17
ENDBRANCH   1   6
BRANCH   1  19
ATOM     19  C   UNL     1       2.302   5.061  19.423  0.00  0.00    +0.000 C 
ATOM     20  C   UNL     1       2.627   4.247  18.386  0.00  0.00    +0.000 C 
ATOM     21  C   UNL     1       1.896   2.936  18.278  0.00  0.00    +0.000 C 
ATOM     22  O   UNL     1       2.173   2.118  17.405  0.00  0.00    +0.000 OA
ATOM     23  C   UNL     1       0.732   2.663  19.200  0.00  0.00    +0.000 C 
ATOM     24  C   UNL     1       1.021   3.197  20.582  0.00  0.00    +0.000 C 
ATOM     25  C   UNL     1       1.303   4.686  20.505  0.00  0.00    +0.000 C 
BRANCH  20  26
ATOM     26  C   UNL     1       3.547   4.624  17.225  0.00  0.00    +0.000 C 
BRANCH  26  27
ATOM     27  C   UNL     1       4.943   5.116  17.589  0.00  0.00    +0.000 A 
ATOM     28  C   UNL     1       5.523   6.241  16.965  0.00  0.00    +0.000 A 
ATOM     29 CL   UNL     1       4.638   7.331  15.955  0.00  0.00    +0.000 Cl
ATOM     30  C   UNL     1       6.848   6.624  17.225  0.00  0.00    +0.000 A 
ATOM     31  C   UNL     1       7.620   5.930  18.148  0.00  0.00    +0.000 A 
ATOM     32  C   UNL     1       7.044   4.882  18.847  0.00  0.00    +0.000 A 
ATOM     33  C   UNL     1       5.721   4.495  18.589  0.00  0.00    +0.000 A 
ATOM     34 CL   UNL     1       5.098   3.320  19.692  0.00  0.00    +0.000 Cl
ENDBRANCH  26  27
ENDBRANCH  20  26
ENDBRANCH   1  19
TORSDOF 5
ENDMDL
MODEL 5
REMARK VINA RESULT:     -10.0      1.485      1.917
REMARK  Name = 
REMARK  7 active torsions:
REMARK  status: ('A' for Active; 'I' for Inactive)
REMARK    1  A    between atoms: C_1  and  C_2
REMARK    2  A    between atoms: C_2  and  C_3
REMARK    3  A    between atoms: C_8  and  C_9
REMARK    4  A    between atoms: C_12  and  N_13
REMARK    5  A    between atoms: N_13  and  C_14
REMARK    6  A    between atoms: C_15  and  C_16
REMARK    7  A    between atoms: C_16  and  C_17
REMARK                            x       y       z     vdW  Elec       q    Type
REMARK                         _______ _______ _______ _____ _____    ______ ____
ROOT
ATOM      1  N   UNL     1       3.164   5.954  20.221  0.00  0.00    +0.000 N 
ATOM      2  H   UNL     1       3.559   6.013  21.162  0.00  0.00    +0.000 HD
ENDROOT
BRANCH   1   6
ATOM      3  C   UNL     1       0.909   9.416  19.278  0.00  0.00    +0.000 A 
ATOM      4  C   UNL     1       0.808   8.839  20.544  0.00  0.00    +0.000 A 
ATOM      5  C   UNL     1       1.552   7.703  20.867  0.00  0.00    +0.000 A 
ATOM      6  C   UNL     1       2.438   7.139  19.948  0.00  0.00    +0.000 A 
ATOM      7  C   UNL     1       2.509   7.695  18.666  0.00  0.00    +0.000 A 
ATOM      8  C   UNL     1       1.754   8.823  18.339  0.00  0.00    +0.000 A 
ATOM      9  F   UNL     1       1.901   9.335  17.108  0.00  0.00    +0.000 F 
BRANCH   3  17
ATOM     10  C   UNL     1       0.316  12.410  20.793  0.00  0.00    +0.000 C 
ATOM     11  C   UNL     1       0.635  12.057  19.339  0.00  0.00    +0.000 C 
ATOM     12  C   UNL     1       2.084  12.344  18.961  0.00  0.00    +0.000 C 
ATOM     13  C   UNL     1      -0.310  12.878  18.482  0.00  0.00    +0.000 C 
ATOM     14  O   UNL     1      -0.312  14.083  18.322  0.00  0.00    +0.000 OA
ATOM     15  N   UNL     1      -1.209  11.962  17.960  0.00  0.00    +0.000 N 
ATOM     16  N   UNL     1      -0.891  10.657  18.184  0.00  0.00    +0.000 NA
ATOM     17  C   UNL     1       0.177  10.650  18.928  0.00  0.00    +0.000 C 
ATOM     18  H   UNL     1      -1.966  12.212  17.335  0.00  0.00    +0.000 HD
ENDBRANCH   3  17
ENDBRANCH   1   6
BRANCH   1  19
ATOM     19  C   UNL     1       2.710   4.680  19.914  0.00  0.00    +0.000 C 
ATOM     20  C   UNL     1       3.539   3.679  19.521  0.00  0.00    +0.000 C 
ATOM     21  C   UNL     1       2.911   2.360  19.161  0.00  0.00    +0.000 C 
ATOM     22  O   UNL     1       3.595   1.388  18.853  0.00  0.00    +0.000 OA
ATOM     23  C   UNL     1       1.407   2.258  19.078  0.00  0.00    +0.000 C 
ATOM     24  C   UNL     1       0.765   3.066  20.180  0.00  0.00    +0.000 C 
ATOM     25  C   UNL     1       1.209   4.513  20.075  0.00  0.00    +0.000 C 
BRANCH  20  26
ATOM     26  C   UNL     1       5.036   3.830  19.250  0.00  0.00    +0.000 C 
BRANCH  26  27
ATOM     27  C   UNL     1       5.444   4.882  18.225  0.00  0.00    +0.000 A 
ATOM     28  C   UNL     1       6.500   5.787  18.465  0.00  0.00    +0.000 A 
ATOM     29 CL   UNL     1       7.607   5.627  19.784  0.00  0.00    +0.000 Cl
ATOM     30  C   UNL     1       6.800   6.821  17.566  0.00  0.00    +0.000 A 
ATOM     31  C   UNL     1       6.091   6.959  16.380  0.00  0.00    +0.000 A 
ATOM     32  C   UNL     1       5.114   6.026  16.072  0.00  0.00    +0.000 A 
ATOM     33  C   UNL     1       4.811   4.991  16.969  0.00  0.00    +0.000 A 
ATOM     34 CL   UNL     1       3.727   3.803  16.338  0.00  0.00    +0.000 Cl
ENDBRANCH  26  27
ENDBRANCH  20  26
ENDBRANCH   1  19
TORSDOF 5
ENDMDL
MODEL 6
REMARK VINA RESULT:      -9.7      1.307      1.740
REMARK  Name = 
REMARK  7 active torsions:
REMARK  status: ('A' for Active; 'I' for Inactive)
REMARK    1  A    between atoms: C_1  and  C_2
REMARK    2  A    between atoms: C_2  and  C_3
REMARK    3  A    between atoms: C_8  and  C_9
REMARK    4  A    between atoms: C_12  and  N_13
REMARK    5  A    between atoms: N_13  and  C_14
REMARK    6  A    between atoms: C_15  and  C_16
REMARK    7  A    between atoms: C_16  and  C_17
REMARK                            x       y       z     vdW  Elec       q    Type
REMARK                         _______ _______ _______ _____ _____    ______ ____
ROOT
ATOM      1  N   UNL     1       3.187   5.840  20.018  0.00  0.00    +0.000 N 
ATOM      2  H   UNL     1       3.566   5.947  20.961  0.00  0.00    +0.000 HD
ENDROOT
BRANCH   1   6
ATOM      3  C   UNL     1       1.115   9.422  19.103  0.00  0.00    +0.000 A 
ATOM      4  C   UNL     1       1.865   8.776  18.119  0.00  0.00    +0.000 A 
ATOM      5  C   UNL     1       2.545   7.593  18.408  0.00  0.00    +0.000 A 
ATOM      6  C   UNL     1       2.464   7.008  19.673  0.00  0.00    +0.000 A 
ATOM      7  C   UNL     1       1.744   7.677  20.668  0.00  0.00    +0.000 A 
ATOM      8  C   UNL     1       1.076   8.868  20.383  0.00  0.00    +0.000 A 
ATOM      9  F   UNL     1       0.366   9.436  21.369  0.00  0.00    +0.000 F 
BRANCH   3  17
ATOM     10  C   UNL     1       0.739  12.478  20.564  0.00  0.00    +0.000 C 
ATOM     11  C   UNL     1       0.851  12.065  19.095  0.00  0.00    +0.000 C 
ATOM     12  C   UNL     1       2.233  12.328  18.506  0.00  0.00    +0.000 C 
ATOM     13  C   UNL     1      -0.204  12.856  18.347  0.00  0.00    +0.000 C 
ATOM     14  O   UNL     1      -0.229  14.053  18.140  0.00  0.00    +0.000 OA
ATOM     15  N   UNL     1      -1.167  11.925  17.993  0.00  0.00    +0.000 N 
ATOM     16  N   UNL     1      -0.821  10.628  18.223  0.00  0.00    +0.000 NA
ATOM     17  C   UNL     1       0.341  10.645  18.809  0.00  0.00    +0.000 C 
ATOM     18  H   UNL     1      -2.004  12.154  17.470  0.00  0.00    +0.000 HD
ENDBRANCH   3  17
ENDBRANCH   1   6
BRANCH   1  19
ATOM     19  C   UNL     1       2.740   4.551  19.767  0.00  0.00    +0.000 C 
ATOM     20  C   UNL     1       3.577   3.532  19.447  0.00  0.00    +0.000 C 
ATOM     21  C   UNL     1       2.958   2.195  19.142  0.00  0.00    +0.000 C 
ATOM     22  O   UNL     1       3.649   1.209  18.903  0.00  0.00    +0.000 OA
ATOM     23  C   UNL     1       1.456   2.087  19.029  0.00  0.00    +0.000 C 
ATOM     24  C   UNL     1       0.789   2.951  20.072  0.00  0.00    +0.000 C 
ATOM     25  C   UNL     1       1.235   4.391  19.901  0.00  0.00    +0.000 C 
BRANCH  20  26
ATOM     26  C   UNL     1       5.081   3.670  19.203  0.00  0.00    +0.000 C 
BRANCH  26  27
ATOM     27  C   UNL     1       5.508   4.575  18.054  0.00  0.00    +0.000 A 
ATOM     28  C   UNL     1       4.805   4.610  16.831  0.00  0.00    +0.000 A 
ATOM     29 CL   UNL     1       3.258   3.871  16.602  0.00  0.00    +0.000 Cl
ATOM     30  C   UNL     1       5.266   5.363  15.740  0.00  0.00    +0.000 A 
ATOM     31  C   UNL     1       6.412   6.140  15.846  0.00  0.00    +0.000 A 
ATOM     32  C   UNL     1       7.067   6.201  17.065  0.00  0.00    +0.000 A 
ATOM     33  C   UNL     1       6.611   5.449  18.158  0.00  0.00    +0.000 A 
ATOM     34 CL   UNL     1       7.412   5.806  19.647  0.00  0.00    +0.000 Cl
ENDBRANCH  26  27
ENDBRANCH  20  26
ENDBRANCH   1  19
TORSDOF 5
ENDMDL
MODEL 7
REMARK VINA RESULT:      -9.7      0.868      2.009
REMARK  Name = 
REMARK  7 active torsions:
REMARK  status: ('A' for Active; 'I' for Inactive)
REMARK    1  A    between atoms: C_1  and  C_2
REMARK    2  A    between atoms: C_2  and  C_3
REMARK    3  A    between atoms: C_8  and  C_9
REMARK    4  A    between atoms: C_12  and  N_13
REMARK    5  A    between atoms: N_13  and  C_14
REMARK    6  A    between atoms: C_15  and  C_16
REMARK    7  A    between atoms: C_16  and  C_17
REMARK                            x       y       z     vdW  Elec       q    Type
REMARK                         _______ _______ _______ _____ _____    ______ ____
ROOT
ATOM      1  N   UNL     1       2.879   6.211  19.914  0.00  0.00    +0.000 N 
ATOM      2  H   UNL     1       3.396   6.218  20.795  0.00  0.00    +0.000 HD
ENDROOT
BRANCH   1   6
ATOM      3  C   UNL     1       0.745   9.829  19.349  0.00  0.00    +0.000 A 
ATOM      4  C   UNL     1       0.690   9.168  20.577  0.00  0.00    +0.000 A 
ATOM      5  C   UNL     1       1.394   7.980  20.775  0.00  0.00    +0.000 A 
ATOM      6  C   UNL     1       2.197   7.444  19.767  0.00  0.00    +0.000 A 
ATOM      7  C   UNL     1       2.220   8.086  18.525  0.00  0.00    +0.000 A 
ATOM      8  C   UNL     1       1.504   9.267  18.322  0.00  0.00    +0.000 A 
ATOM      9  F   UNL     1       1.605   9.858  17.122  0.00  0.00    +0.000 F 
BRANCH   3  17
ATOM     10  C   UNL     1       0.507  12.784  21.030  0.00  0.00    +0.000 C 
ATOM     11  C   UNL     1       0.641  12.476  19.538  0.00  0.00    +0.000 C 
ATOM     12  C   UNL     1       2.054  12.697  19.009  0.00  0.00    +0.000 C 
ATOM     13  C   UNL     1      -0.341  13.386  18.824  0.00  0.00    +0.000 C 
ATOM     14  O   UNL     1      -0.288  14.594  18.710  0.00  0.00    +0.000 OA
ATOM     15  N   UNL     1      -1.346  12.545  18.373  0.00  0.00    +0.000 N 
ATOM     16  N   UNL     1      -1.086  11.216  18.512  0.00  0.00    +0.000 NA
ATOM     17  C   UNL     1       0.055  11.116  19.130  0.00  0.00    +0.000 C 
ATOM     18  H   UNL     1      -2.151  12.865  17.847  0.00  0.00    +0.000 HD
ENDBRANCH   3  17
ENDBRANCH   1   6
BRANCH   1  19
ATOM     19  C   UNL     1       2.311   4.975  19.639  0.00  0.00    +0.000 C 
ATOM     20  C   UNL     1       2.600   4.266  18.519  0.00  0.00    +0.000 C 
ATOM     21  C   UNL     1       1.871   2.966  18.314  0.00  0.00    +0.000 C 
ATOM     22  O   UNL     1       2.118   2.237  17.358  0.00  0.00    +0.000 OA
ATOM     23  C   UNL     1       0.742   2.599  19.247  0.00  0.00    +0.000 C 
ATOM     24  C   UNL     1       1.080   3.001  20.662  0.00  0.00    +0.000 C 
ATOM     25  C   UNL     1       1.354   4.493  20.717  0.00  0.00    +0.000 C 
BRANCH  20  26
ATOM     26  C   UNL     1       3.476   4.758  17.366  0.00  0.00    +0.000 C 
BRANCH  26  27
ATOM     27  C   UNL     1       4.894   5.192  17.719  0.00  0.00    +0.000 A 
ATOM     28  C   UNL     1       5.475   6.357  17.174  0.00  0.00    +0.000 A 
ATOM     29 CL   UNL     1       4.577   7.545  16.296  0.00  0.00    +0.000 Cl
ATOM     30  C   UNL     1       6.815   6.692  17.417  0.00  0.00    +0.000 A 
ATOM     31  C   UNL     1       7.605   5.906  18.247  0.00  0.00    +0.000 A 
ATOM     32  C   UNL     1       7.033   4.811  18.873  0.00  0.00    +0.000 A 
ATOM     33  C   UNL     1       5.694   4.472  18.632  0.00  0.00    +0.000 A 
ATOM     34 CL   UNL     1       5.086   3.216  19.652  0.00  0.00    +0.000 Cl
ENDBRANCH  26  27
ENDBRANCH  20  26
ENDBRANCH   1  19
TORSDOF 5
ENDMDL
MODEL 8
REMARK VINA RESULT:      -9.5      1.777      2.387
REMARK  Name = 
REMARK  7 active torsions:
REMARK  status: ('A' for Active; 'I' for Inactive)
REMARK    1  A    between atoms: C_1  and  C_2
REMARK    2  A    between atoms: C_2  and  C_3
REMARK    3  A    between atoms: C_8  and  C_9
REMARK    4  A    between atoms: C_12  and  N_13
REMARK    5  A    between atoms: N_13  and  C_14
REMARK    6  A    between atoms: C_15  and  C_16
REMARK    7  A    between atoms: C_16  and  C_17
REMARK                            x       y       z     vdW  Elec       q    Type
REMARK                         _______ _______ _______ _____ _____    ______ ____
ROOT
ATOM      1  N   UNL     1       3.040   5.522  20.498  0.00  0.00    +0.000 N 
ATOM      2  H   UNL     1       3.131   5.492  21.515  0.00  0.00    +0.000 HD
ENDROOT
BRANCH   1   6
ATOM      3  C   UNL     1       1.397   9.220  19.239  0.00  0.00    +0.000 A 
ATOM      4  C   UNL     1       1.223   8.789  20.554  0.00  0.00    +0.000 A 
ATOM      5  C   UNL     1       1.765   7.576  20.980  0.00  0.00    +0.000 A 
ATOM      6  C   UNL     1       2.524   6.785  20.116  0.00  0.00    +0.000 A 
ATOM      7  C   UNL     1       2.664   7.199  18.787  0.00  0.00    +0.000 A 
ATOM      8  C   UNL     1       2.108   8.405  18.357  0.00  0.00    +0.000 A 
ATOM      9  F   UNL     1       2.317   8.768  17.083  0.00  0.00    +0.000 F 
BRANCH   3  17
ATOM     10  C   UNL     1      -1.431  10.309  17.679  0.00  0.00    +0.000 C 
ATOM     11  C   UNL     1      -0.604  10.915  18.814  0.00  0.00    +0.000 C 
ATOM     12  C   UNL     1      -1.236  10.711  20.186  0.00  0.00    +0.000 C 
ATOM     13  C   UNL     1      -0.472  12.394  18.505  0.00  0.00    +0.000 C 
ATOM     14  O   UNL     1      -1.347  13.238  18.521  0.00  0.00    +0.000 OA
ATOM     15  N   UNL     1       0.855  12.569  18.146  0.00  0.00    +0.000 N 
ATOM     16  N   UNL     1       1.651  11.485  18.353  0.00  0.00    +0.000 NA
ATOM     17  C   UNL     1       0.881  10.525  18.776  0.00  0.00    +0.000 C 
ATOM     18  H   UNL     1       1.252  13.465  17.888  0.00  0.00    +0.000 HD
ENDBRANCH   3  17
ENDBRANCH   1   6
BRANCH   1  19
ATOM     19  C   UNL     1       2.607   4.316  19.966  0.00  0.00    +0.000 C 
ATOM     20  C   UNL     1       3.454   3.405  19.425  0.00  0.00    +0.000 C 
ATOM     21  C   UNL     1       2.849   2.162  18.830  0.00  0.00    +0.000 C 
ATOM     22  O   UNL     1       3.550   1.263  18.375  0.00  0.00    +0.000 OA
ATOM     23  C   UNL     1       1.348   2.064  18.699  0.00  0.00    +0.000 C 
ATOM     24  C   UNL     1       0.676   2.665  19.910  0.00  0.00    +0.000 C 
ATOM     25  C   UNL     1       1.104   4.112  20.064  0.00  0.00    +0.000 C 
BRANCH  20  26
ATOM     26  C   UNL     1       4.954   3.612  19.216  0.00  0.00    +0.000 C 
BRANCH  26  27
ATOM     27  C   UNL     1       5.365   4.727  18.261  0.00  0.00    +0.000 A 
ATOM     28  C   UNL     1       6.392   5.641  18.580  0.00  0.00    +0.000 A 
ATOM     29 CL   UNL     1       7.465   5.437  19.921  0.00  0.00    +0.000 Cl
ATOM     30  C   UNL     1       6.691   6.730  17.747  0.00  0.00    +0.000 A 
ATOM     31  C   UNL     1       6.013   6.915  16.549  0.00  0.00    +0.000 A 
ATOM     32  C   UNL     1       5.069   5.978  16.164  0.00  0.00    +0.000 A 
ATOM     33  C   UNL     1       4.766   4.890  16.994  0.00  0.00    +0.000 A 
ATOM     34 CL   UNL     1       3.729   3.713  16.269  0.00  0.00    +0.000 Cl
ENDBRANCH  26  27
ENDBRANCH  20  26
ENDBRANCH   1  19
TORSDOF 5
ENDMDL
MODEL 9
REMARK VINA RESULT:      -9.5      1.662      3.922
REMARK  Name = 
REMARK  7 active torsions:
REMARK  status: ('A' for Active; 'I' for Inactive)
REMARK    1  A    between atoms: C_1  and  C_2
REMARK    2  A    between atoms: C_2  and  C_3
REMARK    3  A    between atoms: C_8  and  C_9
REMARK    4  A    between atoms: C_12  and  N_13
REMARK    5  A    between atoms: N_13  and  C_14
REMARK    6  A    between atoms: C_15  and  C_16
REMARK    7  A    between atoms: C_16  and  C_17
REMARK                            x       y       z     vdW  Elec       q    Type
REMARK                         _______ _______ _______ _____ _____    ______ ____
ROOT
ATOM      1  N   UNL     1       3.964   5.800  19.148  0.00  0.00    +0.000 N 
ATOM      2  H   UNL     1       3.426   4.989  19.459  0.00  0.00    +0.000 HD
ENDROOT
BRANCH   1   6
ATOM      3  C   UNL     1       1.414   9.159  18.722  0.00  0.00    +0.000 A 
ATOM      4  C   UNL     1       2.253   8.779  17.674  0.00  0.00    +0.000 A 
ATOM      5  C   UNL     1       3.091   7.671  17.801  0.00  0.00    +0.000 A 
ATOM      6  C   UNL     1       3.086   6.896  18.962  0.00  0.00    +0.000 A 
ATOM      7  C   UNL     1       2.273   7.300  20.027  0.00  0.00    +0.000 A 
ATOM      8  C   UNL     1       1.446   8.417  19.904  0.00  0.00    +0.000 A 
ATOM      9  F   UNL     1       0.658   8.726  20.945  0.00  0.00    +0.000 F 
BRANCH   3  17
ATOM     10  C   UNL     1       0.689  11.940  20.552  0.00  0.00    +0.000 C 
ATOM     11  C   UNL     1       0.806  11.724  19.043  0.00  0.00    +0.000 C 
ATOM     12  C   UNL     1       2.121  12.239  18.468  0.00  0.00    +0.000 C 
ATOM     13  C   UNL     1      -0.369  12.450  18.415  0.00  0.00    +0.000 C 
ATOM     14  O   UNL     1      -0.557  13.649  18.357  0.00  0.00    +0.000 OA
ATOM     15  N   UNL     1      -1.212  11.447  17.965  0.00  0.00    +0.000 N 
ATOM     16  N   UNL     1      -0.692  10.190  18.029  0.00  0.00    +0.000 NA
ATOM     17  C   UNL     1       0.476  10.293  18.594  0.00  0.00    +0.000 C 
ATOM     18  H   UNL     1      -2.089  11.622  17.489  0.00  0.00    +0.000 HD
ENDBRANCH   3  17
ENDBRANCH   1   6
BRANCH   1  19
ATOM     19  C   UNL     1       4.975   5.460  18.262  0.00  0.00    +0.000 C 
ATOM     20  C   UNL     1       4.886   4.404  17.416  0.00  0.00    +0.000 C 
ATOM     21  C   UNL     1       6.079   4.108  16.546  0.00  0.00    +0.000 C 
ATOM     22  O   UNL     1       6.056   3.208  15.712  0.00  0.00    +0.000 OA
ATOM     23  C   UNL     1       7.362   4.870  16.774  0.00  0.00    +0.000 C 
ATOM     24  C   UNL     1       7.065   6.314  17.096  0.00  0.00    +0.000 C 
ATOM     25  C   UNL     1       6.176   6.391  18.322  0.00  0.00    +0.000 C 
BRANCH  20  26
ATOM     26  C   UNL     1       3.745   3.386  17.393  0.00  0.00    +0.000 C 
BRANCH  26  27
ATOM     27  C   UNL     1       2.899   3.277  18.656  0.00  0.00    +0.000 A 
ATOM     28  C   UNL     1       1.593   3.806  18.728  0.00  0.00    +0.000 A 
ATOM     29 CL   UNL     1       0.718   4.367  17.346  0.00  0.00    +0.000 Cl
ATOM     30  C   UNL     1       0.861   3.798  19.925  0.00  0.00    +0.000 A 
ATOM     31  C   UNL     1       1.386   3.223  21.075  0.00  0.00    +0.000 A 
ATOM     32  C   UNL     1       2.627   2.609  21.008  0.00  0.00    +0.000 A 
ATOM     33  C   UNL     1       3.361   2.615  19.814  0.00  0.00    +0.000 A 
ATOM     34 CL   UNL     1       4.779   1.628  19.849  0.00  0.00    +0.000 Cl
ENDBRANCH  26  27
ENDBRANCH  20  26
ENDBRANCH   1  19
TORSDOF 5
ENDMDL
