MODEL 1
REMARK VINA RESULT:      -7.7      0.000      0.000
REMARK  Name = 
REMARK  4 active torsions:
REMARK  status: ('A' for Active; 'I' for Inactive)
REMARK    1  A    between atoms: C_1  and  C_2
REMARK    2  A    between atoms: C_2  and  N_3
REMARK    3  A    between atoms: C_17  and  O_18
REMARK    4  A    between atoms: O_18  and  C_19
REMARK                            x       y       z     vdW  Elec       q    Type
REMARK                         _______ _______ _______ _____ _____    ______ ____
ROOT
ATOM      1  N   UNL     1       1.669   7.310  20.293  0.00  0.00    +0.000 N 
ATOM      2  C   UNL     1       2.005   8.307  19.342  0.00  0.00    +0.000 A 
ATOM      3  C   UNL     1       2.793   8.108  18.263  0.00  0.00    +0.000 A 
ATOM      4  C   UNL     1       3.334   6.807  18.052  0.00  0.00    +0.000 A 
ATOM      5  C   UNL     1       3.030   5.835  18.968  0.00  0.00    +0.000 A 
ATOM      6  N   UNL     1       3.637   4.660  18.613  0.00  0.00    +0.000 N 
ATOM      7  C   UNL     1       3.532   3.481  19.342  0.00  0.00    +0.000 A 
ATOM      8  O   UNL     1       4.085   2.450  18.999  0.00  0.00    +0.000 OA
ATOM      9  C   UNL     1       2.668   3.632  20.585  0.00  0.00    +0.000 A 
ATOM     10  O   UNL     1       2.494   2.675  21.334  0.00  0.00    +0.000 OA
ATOM     11  C   UNL     1       2.031   4.929  20.900  0.00  0.00    +0.000 A 
ATOM     12  C   UNL     1       2.205   6.003  20.118  0.00  0.00    +0.000 A 
ATOM     13  C   UNL     1       4.343   4.893  17.419  0.00  0.00    +0.000 A 
ATOM     14  C   UNL     1       5.133   4.040  16.618  0.00  0.00    +0.000 A 
ATOM     15  C   UNL     1       5.726   4.552  15.453  0.00  0.00    +0.000 A 
ATOM     16  C   UNL     1       5.535   5.883  15.095  0.00  0.00    +0.000 A 
ATOM     17  C   UNL     1       4.756   6.732  15.888  0.00  0.00    +0.000 A 
ATOM     18  C   UNL     1       4.153   6.241  17.061  0.00  0.00    +0.000 A 
ENDROOT
BRANCH   1  20
ATOM     19  C   UNL     1       0.487   9.154  21.424  0.00  0.00    +0.000 C 
ATOM     20  C   UNL     1       0.708   7.650  21.359  0.00  0.00    +0.000 C 
ENDBRANCH   1  20
BRANCH  15  21
ATOM     21  O   UNL     1       6.472   3.645  14.743  0.00  0.00    +0.000 OA
ATOM     22  C   UNL     1       6.289   3.624  13.332  0.00  0.00    +0.000 C 
ENDBRANCH  15  21
TORSDOF 2
ENDMDL
MODEL 2
REMARK VINA RESULT:      -7.6      1.954      5.822
REMARK  Name = 
REMARK  4 active torsions:
REMARK  status: ('A' for Active; 'I' for Inactive)
REMARK    1  A    between atoms: C_1  and  C_2
REMARK    2  A    between atoms: C_2  and  N_3
REMARK    3  A    between atoms: C_17  and  O_18
REMARK    4  A    between atoms: O_18  and  C_19
REMARK                            x       y       z     vdW  Elec       q    Type
REMARK                         _______ _______ _______ _____ _____    ______ ____
ROOT
ATOM      1  N   UNL     1       5.359   4.920  16.508  0.00  0.00    +0.000 N 
ATOM      2  C   UNL     1       5.184   6.160  15.841  0.00  0.00    +0.000 A 
ATOM      3  C   UNL     1       4.396   7.165  16.277  0.00  0.00    +0.000 A 
ATOM      4  C   UNL     1       3.681   6.984  17.496  0.00  0.00    +0.000 A 
ATOM      5  C   UNL     1       3.829   5.787  18.148  0.00  0.00    +0.000 A 
ATOM      6  N   UNL     1       3.068   5.786  19.288  0.00  0.00    +0.000 N 
ATOM      7  C   UNL     1       2.993   4.713  20.169  0.00  0.00    +0.000 A 
ATOM      8  O   UNL     1       2.308   4.743  21.176  0.00  0.00    +0.000 OA
ATOM      9  C   UNL     1       3.848   3.533  19.732  0.00  0.00    +0.000 A 
ATOM     10  O   UNL     1       3.872   2.507  20.408  0.00  0.00    +0.000 OA
ATOM     11  C   UNL     1       4.655   3.609  18.495  0.00  0.00    +0.000 A 
ATOM     12  C   UNL     1       4.647   4.703  17.722  0.00  0.00    +0.000 A 
ATOM     13  C   UNL     1       2.424   7.033  19.367  0.00  0.00    +0.000 A 
ATOM     14  C   UNL     1       1.537   7.568  20.327  0.00  0.00    +0.000 A 
ATOM     15  C   UNL     1       1.043   8.871  20.151  0.00  0.00    +0.000 A 
ATOM     16  C   UNL     1       1.426   9.622  19.044  0.00  0.00    +0.000 A 
ATOM     17  C   UNL     1       2.302   9.095  18.089  0.00  0.00    +0.000 A 
ATOM     18  C   UNL     1       2.808   7.791  18.245  0.00  0.00    +0.000 A 
ENDROOT
BRANCH   1  20
ATOM     19  C   UNL     1       6.287   3.943  14.444  0.00  0.00    +0.000 C 
ATOM     20  C   UNL     1       6.338   3.961  15.965  0.00  0.00    +0.000 C 
ENDBRANCH   1  20
BRANCH  15  21
ATOM     21  O   UNL     1       0.190   9.298  21.137  0.00  0.00    +0.000 OA
ATOM     22  C   UNL     1       0.691   9.291  22.469  0.00  0.00    +0.000 C 
ENDBRANCH  15  21
TORSDOF 2
ENDMDL
MODEL 3
REMARK VINA RESULT:      -7.2      2.445      3.806
REMARK  Name = 
REMARK  4 active torsions:
REMARK  status: ('A' for Active; 'I' for Inactive)
REMARK    1  A    between atoms: C_1  and  C_2
REMARK    2  A    between atoms: C_2  and  N_3
REMARK    3  A    between atoms: C_17  and  O_18
REMARK    4  A    between atoms: O_18  and  C_19
REMARK                            x       y       z     vdW  Elec       q    Type
REMARK                         _______ _______ _______ _____ _____    ______ ____
ROOT
ATOM      1  N   UNL     1       1.852   3.153  19.576  0.00  0.00    +0.000 N 
ATOM      2  C   UNL     1       2.365   2.000  18.928  0.00  0.00    +0.000 A 
ATOM      3  C   UNL     1       3.278   2.019  17.933  0.00  0.00    +0.000 A 
ATOM      4  C   UNL     1       3.771   3.280  17.491  0.00  0.00    +0.000 A 
ATOM      5  C   UNL     1       3.276   4.405  18.098  0.00  0.00    +0.000 A 
ATOM      6  N   UNL     1       3.852   5.519  17.546  0.00  0.00    +0.000 N 
ATOM      7  C   UNL     1       3.556   6.820  17.937  0.00  0.00    +0.000 A 
ATOM      8  O   UNL     1       4.087   7.791  17.427  0.00  0.00    +0.000 OA
ATOM      9  C   UNL     1       2.520   6.879  19.050  0.00  0.00    +0.000 A 
ATOM     10  O   UNL     1       2.151   7.964  19.491  0.00  0.00    +0.000 OA
ATOM     11  C   UNL     1       1.950   5.634  19.609  0.00  0.00    +0.000 A 
ATOM     12  C   UNL     1       2.314   4.429  19.148  0.00  0.00    +0.000 A 
ATOM     13  C   UNL     1       4.754   5.083  16.560  0.00  0.00    +0.000 A 
ATOM     14  C   UNL     1       5.610   5.798  15.694  0.00  0.00    +0.000 A 
ATOM     15  C   UNL     1       6.423   5.088  14.795  0.00  0.00    +0.000 A 
ATOM     16  C   UNL     1       6.382   3.697  14.762  0.00  0.00    +0.000 A 
ATOM     17  C   UNL     1       5.533   2.985  15.616  0.00  0.00    +0.000 A 
ATOM     18  C   UNL     1       4.710   3.677  16.523  0.00  0.00    +0.000 A 
ENDROOT
BRANCH   1  20
ATOM     19  C   UNL     1       1.725   2.667  21.989  0.00  0.00    +0.000 C 
ATOM     20  C   UNL     1       0.940   2.968  20.721  0.00  0.00    +0.000 C 
ENDBRANCH   1  20
BRANCH  15  21
ATOM     21  O   UNL     1       7.218   5.872  13.999  0.00  0.00    +0.000 OA
ATOM     22  C   UNL     1       7.883   5.227  12.919  0.00  0.00    +0.000 C 
ENDBRANCH  15  21
TORSDOF 2
ENDMDL
MODEL 4
REMARK VINA RESULT:      -6.8      3.895      6.254
REMARK  Name = 
REMARK  4 active torsions:
REMARK  status: ('A' for Active; 'I' for Inactive)
REMARK    1  A    between atoms: C_1  and  C_2
REMARK    2  A    between atoms: C_2  and  N_3
REMARK    3  A    between atoms: C_17  and  O_18
REMARK    4  A    between atoms: O_18  and  C_19
REMARK                            x       y       z     vdW  Elec       q    Type
REMARK                         _______ _______ _______ _____ _____    ______ ____
ROOT
ATOM      1  N   UNL     1      -0.680  11.272  22.341  0.00  0.00    +0.000 N 
ATOM      2  C   UNL     1      -0.722  10.046  23.052  0.00  0.00    +0.000 A 
ATOM      3  C   UNL     1      -0.159   8.893  22.632  0.00  0.00    +0.000 A 
ATOM      4  C   UNL     1       0.530   8.891  21.386  0.00  0.00    +0.000 A 
ATOM      5  C   UNL     1       0.570  10.065  20.679  0.00  0.00    +0.000 A 
ATOM      6  N   UNL     1       1.262   9.877  19.512  0.00  0.00    +0.000 N 
ATOM      7  C   UNL     1       1.474  10.876  18.567  0.00  0.00    +0.000 A 
ATOM      8  O   UNL     1       2.095  10.678  17.537  0.00  0.00    +0.000 OA
ATOM      9  C   UNL     1       0.853  12.206  18.967  0.00  0.00    +0.000 A 
ATOM     10  O   UNL     1       0.949  13.178  18.223  0.00  0.00    +0.000 OA
ATOM     11  C   UNL     1       0.130  12.339  20.250  0.00  0.00    +0.000 A 
ATOM     12  C   UNL     1      -0.011  11.301  21.085  0.00  0.00    +0.000 A 
ATOM     13  C   UNL     1       1.687   8.538  19.483  0.00  0.00    +0.000 A 
ATOM     14  C   UNL     1       2.434   7.814  18.528  0.00  0.00    +0.000 A 
ATOM     15  C   UNL     1       2.723   6.461  18.768  0.00  0.00    +0.000 A 
ATOM     16  C   UNL     1       2.277   5.845  19.933  0.00  0.00    +0.000 A 
ATOM     17  C   UNL     1       1.535   6.558  20.881  0.00  0.00    +0.000 A 
ATOM     18  C   UNL     1       1.233   7.914  20.660  0.00  0.00    +0.000 A 
ENDROOT
BRANCH   1  20
ATOM     19  C   UNL     1      -2.728  12.282  23.269  0.00  0.00    +0.000 C 
ATOM     20  C   UNL     1      -1.247  12.475  22.979  0.00  0.00    +0.000 C 
ENDBRANCH   1  20
BRANCH  15  21
ATOM     21  O   UNL     1       3.454   5.847  17.782  0.00  0.00    +0.000 OA
ATOM     22  C   UNL     1       4.531   6.590  17.223  0.00  0.00    +0.000 C 
ENDBRANCH  15  21
TORSDOF 2
ENDMDL
MODEL 5
REMARK VINA RESULT:      -6.7      2.717      6.396
REMARK  Name = 
REMARK  4 active torsions:
REMARK  status: ('A' for Active; 'I' for Inactive)
REMARK    1  A    between atoms: C_1  and  C_2
REMARK    2  A    between atoms: C_2  and  N_3
REMARK    3  A    between atoms: C_17  and  O_18
REMARK    4  A    between atoms: O_18  and  C_19
REMARK                            x       y       z     vdW  Elec       q    Type
REMARK                         _______ _______ _______ _____ _____    ______ ____
ROOT
ATOM      1  N   UNL     1       3.538   3.631  19.682  0.00  0.00    +0.000 N 
ATOM      2  C   UNL     1       2.722   3.631  20.842  0.00  0.00    +0.000 A 
ATOM      3  C   UNL     1       1.982   4.678  21.264  0.00  0.00    +0.000 A 
ATOM      4  C   UNL     1       2.012   5.879  20.498  0.00  0.00    +0.000 A 
ATOM      5  C   UNL     1       2.805   5.901  19.381  0.00  0.00    +0.000 A 
ATOM      6  N   UNL     1       2.718   7.128  18.778  0.00  0.00    +0.000 N 
ATOM      7  C   UNL     1       3.410   7.476  17.623  0.00  0.00    +0.000 A 
ATOM      8  O   UNL     1       3.310   8.577  17.109  0.00  0.00    +0.000 OA
ATOM      9  C   UNL     1       4.280   6.345  17.095  0.00  0.00    +0.000 A 
ATOM     10  O   UNL     1       4.960   6.510  16.086  0.00  0.00    +0.000 OA
ATOM     11  C   UNL     1       4.315   5.040  17.791  0.00  0.00    +0.000 A 
ATOM     12  C   UNL     1       3.601   4.821  18.903  0.00  0.00    +0.000 A 
ATOM     13  C   UNL     1       1.827   7.909  19.535  0.00  0.00    +0.000 A 
ATOM     14  C   UNL     1       1.371   9.234  19.367  0.00  0.00    +0.000 A 
ATOM     15  C   UNL     1       0.458   9.766  20.293  0.00  0.00    +0.000 A 
ATOM     16  C   UNL     1       0.011   8.992  21.360  0.00  0.00    +0.000 A 
ATOM     17  C   UNL     1       0.462   7.680  21.530  0.00  0.00    +0.000 A 
ATOM     18  C   UNL     1       1.378   7.128  20.616  0.00  0.00    +0.000 A 
ENDROOT
BRANCH   1  20
ATOM     19  C   UNL     1       3.318   1.569  18.351  0.00  0.00    +0.000 C 
ATOM     20  C   UNL     1       4.203   2.375  19.289  0.00  0.00    +0.000 C 
ENDBRANCH   1  20
BRANCH  15  21
ATOM     21  O   UNL     1       0.076  11.060  20.042  0.00  0.00    +0.000 OA
ATOM     22  C   UNL     1       0.674  11.703  18.922  0.00  0.00    +0.000 C 
ENDBRANCH  15  21
TORSDOF 2
ENDMDL
MODEL 6
REMARK VINA RESULT:      -6.3      2.540      5.921
REMARK  Name = 
REMARK  4 active torsions:
REMARK  status: ('A' for Active; 'I' for Inactive)
REMARK    1  A    between atoms: C_1  and  C_2
REMARK    2  A    between atoms: C_2  and  N_3
REMARK    3  A    between atoms: C_17  and  O_18
REMARK    4  A    between atoms: O_18  and  C_19
REMARK                            x       y       z     vdW  Elec       q    Type
REMARK                         _______ _______ _______ _____ _____    ______ ____
ROOT
ATOM      1  N   UNL     1       3.590   3.021  19.906  0.00  0.00    +0.000 N 
ATOM      2  C   UNL     1       2.736   3.402  20.972  0.00  0.00    +0.000 A 
ATOM      3  C   UNL     1       2.168   4.619  21.106  0.00  0.00    +0.000 A 
ATOM      4  C   UNL     1       2.436   5.604  20.113  0.00  0.00    +0.000 A 
ATOM      5  C   UNL     1       3.269   5.257  19.081  0.00  0.00    +0.000 A 
ATOM      6  N   UNL     1       3.419   6.321  18.232  0.00  0.00    +0.000 N 
ATOM      7  C   UNL     1       4.210   6.294  17.088  0.00  0.00    +0.000 A 
ATOM      8  O   UNL     1       4.322   7.258  16.350  0.00  0.00    +0.000 OA
ATOM      9  C   UNL     1       4.896   4.953  16.878  0.00  0.00    +0.000 A 
ATOM     10  O   UNL     1       5.638   4.785  15.914  0.00  0.00    +0.000 OA
ATOM     11  C   UNL     1       4.678   3.843  17.831  0.00  0.00    +0.000 A 
ATOM     12  C   UNL     1       3.889   3.987  18.904  0.00  0.00    +0.000 A 
ATOM     13  C   UNL     1       2.642   7.378  18.737  0.00  0.00    +0.000 A 
ATOM     14  C   UNL     1       2.426   8.689  18.261  0.00  0.00    +0.000 A 
ATOM     15  C   UNL     1       1.578   9.547  18.980  0.00  0.00    +0.000 A 
ATOM     16  C   UNL     1       0.959   9.105  20.146  0.00  0.00    +0.000 A 
ATOM     17  C   UNL     1       1.172   7.807  20.621  0.00  0.00    +0.000 A 
ATOM     18  C   UNL     1       2.019   6.932  19.917  0.00  0.00    +0.000 A 
ENDROOT
BRANCH   1  20
ATOM     19  C   UNL     1       5.131   1.357  20.872  0.00  0.00    +0.000 C 
ATOM     20  C   UNL     1       4.047   1.620  19.837  0.00  0.00    +0.000 C 
ENDBRANCH   1  20
BRANCH  15  21
ATOM     21  O   UNL     1       1.433  10.798  18.437  0.00  0.00    +0.000 OA
ATOM     22  C   UNL     1       0.535  11.686  19.094  0.00  0.00    +0.000 C 
ENDBRANCH  15  21
TORSDOF 2
ENDMDL
MODEL 7
REMARK VINA RESULT:      -6.3      3.105      6.482
REMARK  Name = 
REMARK  4 active torsions:
REMARK  status: ('A' for Active; 'I' for Inactive)
REMARK    1  A    between atoms: C_1  and  C_2
REMARK    2  A    between atoms: C_2  and  N_3
REMARK    3  A    between atoms: C_17  and  O_18
REMARK    4  A    between atoms: O_18  and  C_19
REMARK                            x       y       z     vdW  Elec       q    Type
REMARK                         _______ _______ _______ _____ _____    ______ ____
ROOT
ATOM      1  N   UNL     1       6.866   4.920  14.573  0.00  0.00    +0.000 N 
ATOM      2  C   UNL     1       5.898   4.054  14.002  0.00  0.00    +0.000 A 
ATOM      3  C   UNL     1       4.901   3.456  14.688  0.00  0.00    +0.000 A 
ATOM      4  C   UNL     1       4.800   3.701  16.088  0.00  0.00    +0.000 A 
ATOM      5  C   UNL     1       5.735   4.526  16.658  0.00  0.00    +0.000 A 
ATOM      6  N   UNL     1       5.490   4.641  18.001  0.00  0.00    +0.000 N 
ATOM      7  C   UNL     1       6.266   5.403  18.868  0.00  0.00    +0.000 A 
ATOM      8  O   UNL     1       6.022   5.487  20.059  0.00  0.00    +0.000 OA
ATOM      9  C   UNL     1       7.422   6.098  18.166  0.00  0.00    +0.000 A 
ATOM     10  O   UNL     1       8.202   6.798  18.807  0.00  0.00    +0.000 OA
ATOM     11  C   UNL     1       7.619   5.939  16.708  0.00  0.00    +0.000 A 
ATOM     12  C   UNL     1       6.801   5.175  15.972  0.00  0.00    +0.000 A 
ATOM     13  C   UNL     1       4.351   3.871  18.290  0.00  0.00    +0.000 A 
ATOM     14  C   UNL     1       3.662   3.639  19.501  0.00  0.00    +0.000 A 
ATOM     15  C   UNL     1       2.526   2.813  19.494  0.00  0.00    +0.000 A 
ATOM     16  C   UNL     1       2.089   2.232  18.308  0.00  0.00    +0.000 A 
ATOM     17  C   UNL     1       2.770   2.457  17.107  0.00  0.00    +0.000 A 
ATOM     18  C   UNL     1       3.911   3.281  17.091  0.00  0.00    +0.000 A 
ENDROOT
BRANCH   1  20
ATOM     19  C   UNL     1       7.626   5.134  12.238  0.00  0.00    +0.000 C 
ATOM     20  C   UNL     1       7.829   5.586  13.676  0.00  0.00    +0.000 C 
ENDBRANCH   1  20
BRANCH  15  21
ATOM     21  O   UNL     1       1.928   2.651  20.719  0.00  0.00    +0.000 OA
ATOM     22  C   UNL     1       2.234   3.618  21.717  0.00  0.00    +0.000 C 
ENDBRANCH  15  21
TORSDOF 2
ENDMDL
MODEL 8
REMARK VINA RESULT:      -6.2      8.230      9.602
REMARK  Name = 
REMARK  4 active torsions:
REMARK  status: ('A' for Active; 'I' for Inactive)
REMARK    1  A    between atoms: C_1  and  C_2
REMARK    2  A    between atoms: C_2  and  N_3
REMARK    3  A    between atoms: C_17  and  O_18
REMARK    4  A    between atoms: O_18  and  C_19
REMARK                            x       y       z     vdW  Elec       q    Type
REMARK                         _______ _______ _______ _____ _____    ______ ____
ROOT
ATOM      1  N   UNL     1      -3.561  13.035  22.715  0.00  0.00    +0.000 N 
ATOM      2  C   UNL     1      -4.853  13.051  22.129  0.00  0.00    +0.000 A 
ATOM      3  C   UNL     1      -5.122  12.714  20.849  0.00  0.00    +0.000 A 
ATOM      4  C   UNL     1      -4.041  12.312  20.013  0.00  0.00    +0.000 A 
ATOM      5  C   UNL     1      -2.784  12.303  20.560  0.00  0.00    +0.000 A 
ATOM      6  N   UNL     1      -1.874  11.901  19.618  0.00  0.00    +0.000 N 
ATOM      7  C   UNL     1      -0.508  11.793  19.856  0.00  0.00    +0.000 A 
ATOM      8  O   UNL     1       0.277  11.431  18.996  0.00  0.00    +0.000 OA
ATOM      9  C   UNL     1      -0.127  12.171  21.279  0.00  0.00    +0.000 A 
ATOM     10  O   UNL     1       1.049  12.136  21.631  0.00  0.00    +0.000 OA
ATOM     11  C   UNL     1      -1.165  12.584  22.248  0.00  0.00    +0.000 A 
ATOM     12  C   UNL     1      -2.458  12.651  21.902  0.00  0.00    +0.000 A 
ATOM     13  C   UNL     1      -2.583  11.634  18.434  0.00  0.00    +0.000 A 
ATOM     14  C   UNL     1      -2.150  11.188  17.166  0.00  0.00    +0.000 A 
ATOM     15  C   UNL     1      -3.098  10.998  16.147  0.00  0.00    +0.000 A 
ATOM     16  C   UNL     1      -4.445  11.245  16.389  0.00  0.00    +0.000 A 
ATOM     17  C   UNL     1      -4.878  11.688  17.643  0.00  0.00    +0.000 A 
ATOM     18  C   UNL     1      -3.945  11.887  18.677  0.00  0.00    +0.000 A 
ENDROOT
BRANCH   1  20
ATOM     19  C   UNL     1      -3.473  14.823  24.409  0.00  0.00    +0.000 C 
ATOM     20  C   UNL     1      -3.440  13.323  24.156  0.00  0.00    +0.000 C 
ENDBRANCH   1  20
BRANCH  15  21
ATOM     21  O   UNL     1      -2.578  10.563  14.954  0.00  0.00    +0.000 OA
ATOM     22  C   UNL     1      -3.497  10.034  14.005  0.00  0.00    +0.000 C 
ENDBRANCH  15  21
TORSDOF 2
ENDMDL
MODEL 9
REMARK VINA RESULT:      -6.2      7.003      9.906
REMARK  Name = 
REMARK  4 active torsions:
REMARK  status: ('A' for Active; 'I' for Inactive)
REMARK    1  A    between atoms: C_1  and  C_2
REMARK    2  A    between atoms: C_2  and  N_3
REMARK    3  A    between atoms: C_17  and  O_18
REMARK    4  A    between atoms: O_18  and  C_19
REMARK                            x       y       z     vdW  Elec       q    Type
REMARK                         _______ _______ _______ _____ _____    ______ ____
ROOT
ATOM      1  N   UNL     1      -5.742  12.669  17.953  0.00  0.00    +0.000 N 
ATOM      2  C   UNL     1      -5.796  13.289  19.228  0.00  0.00    +0.000 A 
ATOM      3  C   UNL     1      -4.833  13.199  20.169  0.00  0.00    +0.000 A 
ATOM      4  C   UNL     1      -3.670  12.430  19.876  0.00  0.00    +0.000 A 
ATOM      5  C   UNL     1      -3.606  11.815  18.653  0.00  0.00    +0.000 A 
ATOM      6  N   UNL     1      -2.431  11.118  18.548  0.00  0.00    +0.000 N 
ATOM      7  C   UNL     1      -2.067  10.377  17.429  0.00  0.00    +0.000 A 
ATOM      8  O   UNL     1      -1.012   9.768  17.365  0.00  0.00    +0.000 OA
ATOM      9  C   UNL     1      -3.115  10.419  16.328  0.00  0.00    +0.000 A 
ATOM     10  O   UNL     1      -2.936   9.800  15.282  0.00  0.00    +0.000 OA
ATOM     11  C   UNL     1      -4.356  11.204  16.505  0.00  0.00    +0.000 A 
ATOM     12  C   UNL     1      -4.600  11.882  17.634  0.00  0.00    +0.000 A 
ATOM     13  C   UNL     1      -1.718  11.310  19.744  0.00  0.00    +0.000 A 
ATOM     14  C   UNL     1      -0.459  10.833  20.168  0.00  0.00    +0.000 A 
ATOM     15  C   UNL     1       0.018  11.196  21.438  0.00  0.00    +0.000 A 
ATOM     16  C   UNL     1      -0.744  12.016  22.265  0.00  0.00    +0.000 A 
ATOM     17  C   UNL     1      -1.993  12.489  21.849  0.00  0.00    +0.000 A 
ATOM     18  C   UNL     1      -2.491  12.136  20.581  0.00  0.00    +0.000 A 
ENDROOT
BRANCH   1  20
ATOM     19  C   UNL     1      -6.941  14.443  16.731  0.00  0.00    +0.000 C 
ATOM     20  C   UNL     1      -6.823  12.948  16.989  0.00  0.00    +0.000 C 
ENDBRANCH   1  20
BRANCH  15  21
ATOM     21  O   UNL     1       1.250  10.682  21.756  0.00  0.00    +0.000 OA
ATOM     22  C   UNL     1       1.309   9.293  22.062  0.00  0.00    +0.000 C 
ENDBRANCH  15  21
TORSDOF 2
ENDMDL
