MODEL 1
REMARK VINA RESULT:      -7.8      0.000      0.000
REMARK  Name = 
REMARK  4 active torsions:
REMARK  status: ('A' for Active; 'I' for Inactive)
REMARK    1  A    between atoms: O_1  and  C_2
REMARK    2  A    between atoms: C_2  and  C_3
REMARK    3  A    between atoms: C_2  and  C_10
REMARK    4  A    between atoms: C_12  and  C_13
REMARK                            x       y       z     vdW  Elec       q    Type
REMARK                         _______ _______ _______ _____ _____    ______ ____
ROOT
ATOM      1  C   UNL     1       1.171   9.459  19.489  0.00  0.00    +0.000 A 
ATOM      2  N   UNL     1       1.807   8.559  18.764  0.00  0.00    +0.000 NA
ATOM      3  C   UNL     1       2.037   7.416  19.505  0.00  0.00    +0.000 A 
ATOM      4  C   UNL     1       1.641   7.486  20.824  0.00  0.00    +0.000 A 
ATOM      5  S   UNL     1       0.912   9.006  21.136  0.00  0.00    +0.000 S 
ENDROOT
BRANCH   3   6
ATOM      6  C   UNL     1       2.655   6.255  18.838  0.00  0.00    +0.000 A 
ATOM      7  C   UNL     1       3.730   6.326  17.984  0.00  0.00    +0.000 A 
ATOM      8  S   UNL     1       4.178   4.798  17.375  0.00  0.00    +0.000 S 
ATOM      9  C   UNL     1       2.941   3.997  18.267  0.00  0.00    +0.000 A 
ATOM     10  C   UNL     1       2.666   2.614  18.274  0.00  0.00    +0.000 A 
ATOM     11  C   UNL     1       1.628   2.128  19.072  0.00  0.00    +0.000 A 
ATOM     12  C   UNL     1       0.883   2.992  19.857  0.00  0.00    +0.000 A 
ATOM     13  C   UNL     1       1.158   4.360  19.846  0.00  0.00    +0.000 A 
ATOM     14  C   UNL     1       2.192   4.899  19.033  0.00  0.00    +0.000 A 
ENDBRANCH   3   6
BRANCH   1  15
ATOM     15  C   UNL     1       0.658  10.772  18.939  0.00  0.00    +0.000 C 
BRANCH  15  16
ATOM     16  C   UNL     1      -0.807  10.761  18.529  0.00  0.00    +0.000 A 
ATOM     17  C   UNL     1      -1.275   9.944  17.484  0.00  0.00    +0.000 A 
ATOM     18  C   UNL     1      -2.625   9.939  17.128  0.00  0.00    +0.000 A 
ATOM     19  C   UNL     1      -3.531  10.744  17.814  0.00  0.00    +0.000 A 
ATOM     20  C   UNL     1      -3.082  11.557  18.852  0.00  0.00    +0.000 A 
ATOM     21 CL   UNL     1      -4.201  12.560  19.692  0.00  0.00    +0.000 Cl
ATOM     22  C   UNL     1      -1.732  11.569  19.213  0.00  0.00    +0.000 A 
ENDBRANCH  15  16
BRANCH  15  23
ATOM     23  O   UNL     1       1.516  11.166  17.861  0.00  0.00    +0.000 OA
ATOM     24  H   UNL     1       1.645  10.389  17.295  0.00  0.00    +0.000 HD
ENDBRANCH  15  23
ENDBRANCH   1  15
TORSDOF 4
ENDMDL
MODEL 2
REMARK VINA RESULT:      -7.8      1.419      2.563
REMARK  Name = 
REMARK  4 active torsions:
REMARK  status: ('A' for Active; 'I' for Inactive)
REMARK    1  A    between atoms: O_1  and  C_2
REMARK    2  A    between atoms: C_2  and  C_3
REMARK    3  A    between atoms: C_2  and  C_10
REMARK    4  A    between atoms: C_12  and  C_13
REMARK                            x       y       z     vdW  Elec       q    Type
REMARK                         _______ _______ _______ _____ _____    ______ ____
ROOT
ATOM      1  C   UNL     1       1.575   8.967  19.145  0.00  0.00    +0.000 A 
ATOM      2  N   UNL     1       2.059   8.021  18.364  0.00  0.00    +0.000 NA
ATOM      3  C   UNL     1       2.186   6.835  19.062  0.00  0.00    +0.000 A 
ATOM      4  C   UNL     1       1.869   6.911  20.402  0.00  0.00    +0.000 A 
ATOM      5  S   UNL     1       1.347   8.497  20.791  0.00  0.00    +0.000 S 
ENDROOT
BRANCH   3   6
ATOM      6  C   UNL     1       2.624   5.631  18.334  0.00  0.00    +0.000 A 
ATOM      7  C   UNL     1       1.936   4.441  18.307  0.00  0.00    +0.000 A 
ATOM      8  S   UNL     1       2.734   3.250  17.384  0.00  0.00    +0.000 S 
ATOM      9  C   UNL     1       4.022   4.320  16.980  0.00  0.00    +0.000 A 
ATOM     10  C   UNL     1       5.147   4.024  16.183  0.00  0.00    +0.000 A 
ATOM     11  C   UNL     1       6.095   5.020  15.942  0.00  0.00    +0.000 A 
ATOM     12  C   UNL     1       5.929   6.289  16.471  0.00  0.00    +0.000 A 
ATOM     13  C   UNL     1       4.814   6.577  17.261  0.00  0.00    +0.000 A 
ATOM     14  C   UNL     1       3.836   5.587  17.546  0.00  0.00    +0.000 A 
ENDBRANCH   3   6
BRANCH   1  15
ATOM     15  C   UNL     1       1.197  10.349  18.657  0.00  0.00    +0.000 C 
BRANCH  15  16
ATOM     16  C   UNL     1      -0.296  10.572  18.471  0.00  0.00    +0.000 A 
ATOM     17  C   UNL     1      -1.034   9.865  17.505  0.00  0.00    +0.000 A 
ATOM     18  C   UNL     1      -2.406  10.076  17.355  0.00  0.00    +0.000 A 
ATOM     19  C   UNL     1      -3.065  10.990  18.174  0.00  0.00    +0.000 A 
ATOM     20  C   UNL     1      -2.348  11.695  19.137  0.00  0.00    +0.000 A 
ATOM     21 CL   UNL     1      -3.162  12.832  20.141  0.00  0.00    +0.000 Cl
ATOM     22  C   UNL     1      -0.974  11.491  19.291  0.00  0.00    +0.000 A 
ENDBRANCH  15  16
BRANCH  15  23
ATOM     23  O   UNL     1       1.934  10.610  17.456  0.00  0.00    +0.000 OA
ATOM     24  H   UNL     1       2.542   9.866  17.322  0.00  0.00    +0.000 HD
ENDBRANCH  15  23
ENDBRANCH   1  15
TORSDOF 4
ENDMDL
MODEL 3
REMARK VINA RESULT:      -7.8      1.154      1.528
REMARK  Name = 
REMARK  4 active torsions:
REMARK  status: ('A' for Active; 'I' for Inactive)
REMARK    1  A    between atoms: O_1  and  C_2
REMARK    2  A    between atoms: C_2  and  C_3
REMARK    3  A    between atoms: C_2  and  C_10
REMARK    4  A    between atoms: C_12  and  C_13
REMARK                            x       y       z     vdW  Elec       q    Type
REMARK                         _______ _______ _______ _____ _____    ______ ____
ROOT
ATOM      1  C   UNL     1       1.538   9.139  19.367  0.00  0.00    +0.000 A 
ATOM      2  N   UNL     1       2.270   8.200  18.798  0.00  0.00    +0.000 NA
ATOM      3  C   UNL     1       2.302   7.067  19.588  0.00  0.00    +0.000 A 
ATOM      4  C   UNL     1       1.653   7.182  20.800  0.00  0.00    +0.000 A 
ATOM      5  S   UNL     1       0.938   8.734  20.935  0.00  0.00    +0.000 S 
ENDROOT
BRANCH   3   6
ATOM      6  C   UNL     1       2.994   5.870  19.077  0.00  0.00    +0.000 A 
ATOM      7  C   UNL     1       4.258   5.870  18.537  0.00  0.00    +0.000 A 
ATOM      8  S   UNL     1       4.747   4.317  18.028  0.00  0.00    +0.000 S 
ATOM      9  C   UNL     1       3.267   3.601  18.543  0.00  0.00    +0.000 A 
ATOM     10  C   UNL     1       2.907   2.241  18.442  0.00  0.00    +0.000 A 
ATOM     11  C   UNL     1       1.666   1.825  18.926  0.00  0.00    +0.000 A 
ATOM     12  C   UNL     1       0.800   2.735  19.510  0.00  0.00    +0.000 A 
ATOM     13  C   UNL     1       1.160   4.080  19.607  0.00  0.00    +0.000 A 
ATOM     14  C   UNL     1       2.406   4.549  19.108  0.00  0.00    +0.000 A 
ENDBRANCH   3   6
BRANCH   1  15
ATOM     15  C   UNL     1       1.198  10.456  18.705  0.00  0.00    +0.000 C 
BRANCH  15  16
ATOM     16  C   UNL     1      -0.291  10.723  18.547  0.00  0.00    +0.000 A 
ATOM     17  C   UNL     1      -0.983  11.586  19.416  0.00  0.00    +0.000 A 
ATOM     18  C   UNL     1      -2.348  11.828  19.249  0.00  0.00    +0.000 A 
ATOM     19  C   UNL     1      -3.042  11.219  18.206  0.00  0.00    +0.000 A 
ATOM     20  C   UNL     1      -2.370  10.364  17.337  0.00  0.00    +0.000 A 
ATOM     21 CL   UNL     1      -3.231   9.603  16.055  0.00  0.00    +0.000 Cl
ATOM     22  C   UNL     1      -1.005  10.116  17.499  0.00  0.00    +0.000 A 
ENDBRANCH  15  16
BRANCH  15  23
ATOM     23  O   UNL     1       1.891  10.513  17.452  0.00  0.00    +0.000 OA
ATOM     24  H   UNL     1       1.560   9.784  16.904  0.00  0.00    +0.000 HD
ENDBRANCH  15  23
ENDBRANCH   1  15
TORSDOF 4
ENDMDL
MODEL 4
REMARK VINA RESULT:      -7.8      1.691      2.895
REMARK  Name = 
REMARK  4 active torsions:
REMARK  status: ('A' for Active; 'I' for Inactive)
REMARK    1  A    between atoms: O_1  and  C_2
REMARK    2  A    between atoms: C_2  and  C_3
REMARK    3  A    between atoms: C_2  and  C_10
REMARK    4  A    between atoms: C_12  and  C_13
REMARK                            x       y       z     vdW  Elec       q    Type
REMARK                         _______ _______ _______ _____ _____    ______ ____
ROOT
ATOM      1  C   UNL     1       1.634   8.961  19.198  0.00  0.00    +0.000 A 
ATOM      2  N   UNL     1       2.122   8.006  18.430  0.00  0.00    +0.000 NA
ATOM      3  C   UNL     1       2.184   6.812  19.123  0.00  0.00    +0.000 A 
ATOM      4  C   UNL     1       1.814   6.888  20.449  0.00  0.00    +0.000 A 
ATOM      5  S   UNL     1       1.324   8.486  20.829  0.00  0.00    +0.000 S 
ENDROOT
BRANCH   3   6
ATOM      6  C   UNL     1       2.616   5.600  18.402  0.00  0.00    +0.000 A 
ATOM      7  C   UNL     1       1.935   4.406  18.406  0.00  0.00    +0.000 A 
ATOM      8  S   UNL     1       2.723   3.207  17.484  0.00  0.00    +0.000 S 
ATOM      9  C   UNL     1       3.996   4.279  17.040  0.00  0.00    +0.000 A 
ATOM     10  C   UNL     1       5.107   3.979  16.225  0.00  0.00    +0.000 A 
ATOM     11  C   UNL     1       6.043   4.978  15.951  0.00  0.00    +0.000 A 
ATOM     12  C   UNL     1       5.878   6.253  16.465  0.00  0.00    +0.000 A 
ATOM     13  C   UNL     1       4.778   6.546  17.273  0.00  0.00    +0.000 A 
ATOM     14  C   UNL     1       3.813   5.553  17.592  0.00  0.00    +0.000 A 
ENDBRANCH   3   6
BRANCH   1  15
ATOM     15  C   UNL     1       1.318  10.357  18.706  0.00  0.00    +0.000 C 
BRANCH  15  16
ATOM     16  C   UNL     1      -0.165  10.682  18.621  0.00  0.00    +0.000 A 
ATOM     17  C   UNL     1      -0.781  11.563  19.529  0.00  0.00    +0.000 A 
ATOM     18  C   UNL     1      -2.142  11.858  19.429  0.00  0.00    +0.000 A 
ATOM     19  C   UNL     1      -2.908  11.286  18.417  0.00  0.00    +0.000 A 
ATOM     20  C   UNL     1      -2.311  10.414  17.510  0.00  0.00    +0.000 A 
ATOM     21 CL   UNL     1      -3.261   9.699  16.265  0.00  0.00    +0.000 Cl
ATOM     22  C   UNL     1      -0.950  10.112  17.604  0.00  0.00    +0.000 A 
ENDBRANCH  15  16
BRANCH  15  23
ATOM     23  O   UNL     1       1.983  10.544  17.450  0.00  0.00    +0.000 OA
ATOM     24  H   UNL     1       2.203  11.486  17.377  0.00  0.00    +0.000 HD
ENDBRANCH  15  23
ENDBRANCH   1  15
TORSDOF 4
ENDMDL
MODEL 5
REMARK VINA RESULT:      -7.7      4.392      7.921
REMARK  Name = 
REMARK  4 active torsions:
REMARK  status: ('A' for Active; 'I' for Inactive)
REMARK    1  A    between atoms: O_1  and  C_2
REMARK    2  A    between atoms: C_2  and  C_3
REMARK    3  A    between atoms: C_2  and  C_10
REMARK    4  A    between atoms: C_12  and  C_13
REMARK                            x       y       z     vdW  Elec       q    Type
REMARK                         _______ _______ _______ _____ _____    ______ ____
ROOT
ATOM      1  C   UNL     1       3.600   4.557  19.559  0.00  0.00    +0.000 A 
ATOM      2  N   UNL     1       3.346   5.765  19.093  0.00  0.00    +0.000 NA
ATOM      3  C   UNL     1       2.287   6.333  19.775  0.00  0.00    +0.000 A 
ATOM      4  C   UNL     1       1.688   5.514  20.709  0.00  0.00    +0.000 A 
ATOM      5  S   UNL     1       2.503   4.008  20.774  0.00  0.00    +0.000 S 
ENDROOT
BRANCH   3   6
ATOM      6  C   UNL     1       1.911   7.724  19.462  0.00  0.00    +0.000 A 
ATOM      7  C   UNL     1       2.143   8.344  18.258  0.00  0.00    +0.000 A 
ATOM      8  S   UNL     1       1.598   9.960  18.242  0.00  0.00    +0.000 S 
ATOM      9  C   UNL     1       1.015   9.856  19.859  0.00  0.00    +0.000 A 
ATOM     10  C   UNL     1       0.385  10.881  20.597  0.00  0.00    +0.000 A 
ATOM     11  C   UNL     1      -0.042  10.620  21.901  0.00  0.00    +0.000 A 
ATOM     12  C   UNL     1       0.141   9.367  22.461  0.00  0.00    +0.000 A 
ATOM     13  C   UNL     1       0.765   8.357  21.728  0.00  0.00    +0.000 A 
ATOM     14  C   UNL     1       1.233   8.586  20.406  0.00  0.00    +0.000 A 
ENDBRANCH   3   6
BRANCH   1  15
ATOM     15  C   UNL     1       4.776   3.716  19.115  0.00  0.00    +0.000 C 
BRANCH  15  16
ATOM     16  C   UNL     1       5.563   4.286  17.945  0.00  0.00    +0.000 A 
ATOM     17  C   UNL     1       6.669   5.132  18.142  0.00  0.00    +0.000 A 
ATOM     18  C   UNL     1       7.386   5.638  17.056  0.00  0.00    +0.000 A 
ATOM     19  C   UNL     1       7.015   5.301  15.756  0.00  0.00    +0.000 A 
ATOM     20  C   UNL     1       5.923   4.463  15.547  0.00  0.00    +0.000 A 
ATOM     21 CL   UNL     1       5.459   4.054  13.940  0.00  0.00    +0.000 Cl
ATOM     22  C   UNL     1       5.200   3.954  16.628  0.00  0.00    +0.000 A 
ENDBRANCH  15  16
BRANCH  15  23
ATOM     23  O   UNL     1       4.297   2.391  18.847  0.00  0.00    +0.000 OA
ATOM     24  H   UNL     1       3.331   2.442  18.777  0.00  0.00    +0.000 HD
ENDBRANCH  15  23
ENDBRANCH   1  15
TORSDOF 4
ENDMDL
MODEL 6
REMARK VINA RESULT:      -7.6      3.384      7.689
REMARK  Name = 
REMARK  4 active torsions:
REMARK  status: ('A' for Active; 'I' for Inactive)
REMARK    1  A    between atoms: O_1  and  C_2
REMARK    2  A    between atoms: C_2  and  C_3
REMARK    3  A    between atoms: C_2  and  C_10
REMARK    4  A    between atoms: C_12  and  C_13
REMARK                            x       y       z     vdW  Elec       q    Type
REMARK                         _______ _______ _______ _____ _____    ______ ____
ROOT
ATOM      1  C   UNL     1       2.178   7.754  19.270  0.00  0.00    +0.000 A 
ATOM      2  N   UNL     1       1.248   8.537  19.781  0.00  0.00    +0.000 NA
ATOM      3  C   UNL     1       0.956   9.572  18.913  0.00  0.00    +0.000 A 
ATOM      4  C   UNL     1       1.731   9.612  17.773  0.00  0.00    +0.000 A 
ATOM      5  S   UNL     1       2.820   8.288  17.759  0.00  0.00    +0.000 S 
ENDROOT
BRANCH   3   6
ATOM      6  C   UNL     1      -0.130  10.504  19.266  0.00  0.00    +0.000 A 
ATOM      7  C   UNL     1      -0.076  11.410  20.299  0.00  0.00    +0.000 A 
ATOM      8  S   UNL     1      -1.512  12.320  20.440  0.00  0.00    +0.000 S 
ATOM      9  C   UNL     1      -2.235  11.525  19.093  0.00  0.00    +0.000 A 
ATOM     10  C   UNL     1      -3.522  11.761  18.566  0.00  0.00    +0.000 A 
ATOM     11  C   UNL     1      -3.948  11.032  17.453  0.00  0.00    +0.000 A 
ATOM     12  C   UNL     1      -3.113  10.097  16.866  0.00  0.00    +0.000 A 
ATOM     13  C   UNL     1      -1.841   9.866  17.392  0.00  0.00    +0.000 A 
ATOM     14  C   UNL     1      -1.376  10.571  18.536  0.00  0.00    +0.000 A 
ENDBRANCH   3   6
BRANCH   1  15
ATOM     15  C   UNL     1       2.632   6.460  19.910  0.00  0.00    +0.000 C 
BRANCH  15  16
ATOM     16  C   UNL     1       2.667   5.263  18.972  0.00  0.00    +0.000 A 
ATOM     17  C   UNL     1       1.601   4.349  18.903  0.00  0.00    +0.000 A 
ATOM     18  C   UNL     1       1.645   3.261  18.028  0.00  0.00    +0.000 A 
ATOM     19  C   UNL     1       2.752   3.074  17.203  0.00  0.00    +0.000 A 
ATOM     20  C   UNL     1       3.814   3.972  17.260  0.00  0.00    +0.000 A 
ATOM     21 CL   UNL     1       5.185   3.734  16.247  0.00  0.00    +0.000 Cl
ATOM     22  C   UNL     1       3.777   5.062  18.134  0.00  0.00    +0.000 A 
ENDBRANCH  15  16
BRANCH  15  23
ATOM     23  O   UNL     1       1.808   6.221  21.058  0.00  0.00    +0.000 OA
ATOM     24  H   UNL     1       0.884   6.293  20.771  0.00  0.00    +0.000 HD
ENDBRANCH  15  23
ENDBRANCH   1  15
TORSDOF 4
ENDMDL
MODEL 7
REMARK VINA RESULT:      -7.5      3.094      7.540
REMARK  Name = 
REMARK  4 active torsions:
REMARK  status: ('A' for Active; 'I' for Inactive)
REMARK    1  A    between atoms: O_1  and  C_2
REMARK    2  A    between atoms: C_2  and  C_3
REMARK    3  A    between atoms: C_2  and  C_10
REMARK    4  A    between atoms: C_12  and  C_13
REMARK                            x       y       z     vdW  Elec       q    Type
REMARK                         _______ _______ _______ _____ _____    ______ ____
ROOT
ATOM      1  C   UNL     1       2.179   7.842  19.262  0.00  0.00    +0.000 A 
ATOM      2  N   UNL     1       1.223   8.606  19.754  0.00  0.00    +0.000 NA
ATOM      3  C   UNL     1       0.908   9.618  18.867  0.00  0.00    +0.000 A 
ATOM      4  C   UNL     1       1.690   9.664  17.732  0.00  0.00    +0.000 A 
ATOM      5  S   UNL     1       2.818   8.372  17.748  0.00  0.00    +0.000 S 
ENDROOT
BRANCH   3   6
ATOM      6  C   UNL     1      -0.207  10.524  19.197  0.00  0.00    +0.000 A 
ATOM      7  C   UNL     1      -0.201  11.424  20.236  0.00  0.00    +0.000 A 
ATOM      8  S   UNL     1      -1.660  12.301  20.345  0.00  0.00    +0.000 S 
ATOM      9  C   UNL     1      -2.330  11.499  18.976  0.00  0.00    +0.000 A 
ATOM     10  C   UNL     1      -3.608  11.709  18.416  0.00  0.00    +0.000 A 
ATOM     11  C   UNL     1      -3.988  10.978  17.289  0.00  0.00    +0.000 A 
ATOM     12  C   UNL     1      -3.117  10.065  16.718  0.00  0.00    +0.000 A 
ATOM     13  C   UNL     1      -1.855   9.859  17.276  0.00  0.00    +0.000 A 
ATOM     14  C   UNL     1      -1.436  10.567  18.435  0.00  0.00    +0.000 A 
ENDBRANCH   3   6
BRANCH   1  15
ATOM     15  C   UNL     1       2.667   6.573  19.926  0.00  0.00    +0.000 C 
BRANCH  15  16
ATOM     16  C   UNL     1       2.654   5.342  19.033  0.00  0.00    +0.000 A 
ATOM     17  C   UNL     1       3.612   5.154  18.021  0.00  0.00    +0.000 A 
ATOM     18  C   UNL     1       3.592   4.012  17.218  0.00  0.00    +0.000 A 
ATOM     19  C   UNL     1       2.620   3.035  17.418  0.00  0.00    +0.000 A 
ATOM     20  C   UNL     1       1.666   3.207  18.418  0.00  0.00    +0.000 A 
ATOM     21 CL   UNL     1       0.458   2.004  18.658  0.00  0.00    +0.000 Cl
ATOM     22  C   UNL     1       1.679   4.348  19.224  0.00  0.00    +0.000 A 
ENDBRANCH  15  16
BRANCH  15  23
ATOM     23  O   UNL     1       1.901   6.378  21.122  0.00  0.00    +0.000 OA
ATOM     24  H   UNL     1       1.918   5.430  21.325  0.00  0.00    +0.000 HD
ENDBRANCH  15  23
ENDBRANCH   1  15
TORSDOF 4
ENDMDL
MODEL 8
REMARK VINA RESULT:      -7.5      5.718      8.655
REMARK  Name = 
REMARK  4 active torsions:
REMARK  status: ('A' for Active; 'I' for Inactive)
REMARK    1  A    between atoms: O_1  and  C_2
REMARK    2  A    between atoms: C_2  and  C_3
REMARK    3  A    between atoms: C_2  and  C_10
REMARK    4  A    between atoms: C_12  and  C_13
REMARK                            x       y       z     vdW  Elec       q    Type
REMARK                         _______ _______ _______ _____ _____    ______ ____
ROOT
ATOM      1  C   UNL     1       6.213   4.653  15.464  0.00  0.00    +0.000 A 
ATOM      2  N   UNL     1       5.070   4.138  15.874  0.00  0.00    +0.000 NA
ATOM      3  C   UNL     1       5.075   3.982  17.247  0.00  0.00    +0.000 A 
ATOM      4  C   UNL     1       6.262   4.308  17.867  0.00  0.00    +0.000 A 
ATOM      5  S   UNL     1       7.390   4.877  16.707  0.00  0.00    +0.000 S 
ENDROOT
BRANCH   3   6
ATOM      6  C   UNL     1       3.845   3.506  17.907  0.00  0.00    +0.000 A 
ATOM      7  C   UNL     1       3.294   2.260  17.726  0.00  0.00    +0.000 A 
ATOM      8  S   UNL     1       1.862   2.046  18.628  0.00  0.00    +0.000 S 
ATOM      9  C   UNL     1       1.963   3.628  19.302  0.00  0.00    +0.000 A 
ATOM     10  C   UNL     1       1.058   4.218  20.210  0.00  0.00    +0.000 A 
ATOM     11  C   UNL     1       1.301   5.514  20.671  0.00  0.00    +0.000 A 
ATOM     12  C   UNL     1       2.421   6.209  20.250  0.00  0.00    +0.000 A 
ATOM     13  C   UNL     1       3.313   5.623  19.351  0.00  0.00    +0.000 A 
ATOM     14  C   UNL     1       3.093   4.314  18.842  0.00  0.00    +0.000 A 
ENDBRANCH   3   6
BRANCH   1  15
ATOM     15  C   UNL     1       6.484   5.067  14.034  0.00  0.00    +0.000 C 
BRANCH  15  16
ATOM     16  C   UNL     1       6.164   4.005  12.992  0.00  0.00    +0.000 A 
ATOM     17  C   UNL     1       7.116   3.050  12.595  0.00  0.00    +0.000 A 
ATOM     18  C   UNL     1       6.802   2.076  11.645  0.00  0.00    +0.000 A 
ATOM     19  C   UNL     1       5.528   2.036  11.083  0.00  0.00    +0.000 A 
ATOM     20  C   UNL     1       4.574   2.974  11.468  0.00  0.00    +0.000 A 
ATOM     21 CL   UNL     1       3.003   2.929  10.765  0.00  0.00    +0.000 Cl
ATOM     22  C   UNL     1       4.882   3.952  12.417  0.00  0.00    +0.000 A 
ENDBRANCH  15  16
BRANCH  15  23
ATOM     23  O   UNL     1       7.845   5.509  13.951  0.00  0.00    +0.000 OA
ATOM     24  H   UNL     1       8.027   6.034  14.746  0.00  0.00    +0.000 HD
ENDBRANCH  15  23
ENDBRANCH   1  15
TORSDOF 4
ENDMDL
MODEL 9
REMARK VINA RESULT:      -7.4      4.183      7.868
REMARK  Name = 
REMARK  4 active torsions:
REMARK  status: ('A' for Active; 'I' for Inactive)
REMARK    1  A    between atoms: O_1  and  C_2
REMARK    2  A    between atoms: C_2  and  C_3
REMARK    3  A    between atoms: C_2  and  C_10
REMARK    4  A    between atoms: C_12  and  C_13
REMARK                            x       y       z     vdW  Elec       q    Type
REMARK                         _______ _______ _______ _____ _____    ______ ____
ROOT
ATOM      1  C   UNL     1       2.677   4.721  18.968  0.00  0.00    +0.000 A 
ATOM      2  N   UNL     1       2.392   5.951  18.585  0.00  0.00    +0.000 NA
ATOM      3  C   UNL     1       1.942   6.700  19.655  0.00  0.00    +0.000 A 
ATOM      4  C   UNL     1       1.812   6.005  20.839  0.00  0.00    +0.000 A 
ATOM      5  S   UNL     1       2.316   4.381  20.622  0.00  0.00    +0.000 S 
ENDROOT
BRANCH   3   6
ATOM      6  C   UNL     1       1.662   8.132  19.446  0.00  0.00    +0.000 A 
ATOM      7  C   UNL     1       1.990   8.835  18.311  0.00  0.00    +0.000 A 
ATOM      8  S   UNL     1       1.537  10.476  18.409  0.00  0.00    +0.000 S 
ATOM      9  C   UNL     1       0.866  10.273  19.983  0.00  0.00    +0.000 A 
ATOM     10  C   UNL     1       0.257  11.269  20.775  0.00  0.00    +0.000 A 
ATOM     11  C   UNL     1      -0.251  10.927  22.030  0.00  0.00    +0.000 A 
ATOM     12  C   UNL     1      -0.168   9.623  22.489  0.00  0.00    +0.000 A 
ATOM     13  C   UNL     1       0.437   8.641  21.702  0.00  0.00    +0.000 A 
ATOM     14  C   UNL     1       0.984   8.951  20.427  0.00  0.00    +0.000 A 
ENDBRANCH   3   6
BRANCH   1  15
ATOM     15  C   UNL     1       3.311   3.685  18.067  0.00  0.00    +0.000 C 
BRANCH  15  16
ATOM     16  C   UNL     1       4.708   4.036  17.578  0.00  0.00    +0.000 A 
ATOM     17  C   UNL     1       5.097   3.828  16.243  0.00  0.00    +0.000 A 
ATOM     18  C   UNL     1       6.381   4.165  15.809  0.00  0.00    +0.000 A 
ATOM     19  C   UNL     1       7.294   4.724  16.700  0.00  0.00    +0.000 A 
ATOM     20  C   UNL     1       6.922   4.937  18.025  0.00  0.00    +0.000 A 
ATOM     21 CL   UNL     1       8.055   5.618  19.128  0.00  0.00    +0.000 Cl
ATOM     22  C   UNL     1       5.640   4.600  18.467  0.00  0.00    +0.000 A 
ENDBRANCH  15  16
BRANCH  15  23
ATOM     23  O   UNL     1       2.410   3.431  16.982  0.00  0.00    +0.000 OA
ATOM     24  H   UNL     1       2.680   3.997  16.242  0.00  0.00    +0.000 HD
ENDBRANCH  15  23
ENDBRANCH   1  15
TORSDOF 4
ENDMDL
