MODEL 1
REMARK VINA RESULT:      -5.4      0.000      0.000
REMARK  Name = 
REMARK  18 active torsions:
REMARK  status: ('A' for Active; 'I' for Inactive)
REMARK    1  A    between atoms: C_1  and  C_2
REMARK    2  A    between atoms: C_2  and  C_3
REMARK    3  A    between atoms: C_3  and  C_4
REMARK    4  A    between atoms: C_4  and  C_5
REMARK    5  A    between atoms: C_5  and  C_6
REMARK    6  A    between atoms: C_6  and  C_7
REMARK    7  A    between atoms: C_7  and  C_8
REMARK    8  A    between atoms: C_8  and  C_9
REMARK    9  A    between atoms: C_9  and  S_10
REMARK   10  A    between atoms: S_10  and  C_12
REMARK   11  A    between atoms: C_12  and  C_13
REMARK   12  A    between atoms: C_13  and  C_14
REMARK   13  A    between atoms: C_14  and  C_15
REMARK   14  A    between atoms: C_15  and  C_16
REMARK   15  A    between atoms: C_16  and  C_17
REMARK   16  A    between atoms: C_17  and  C_18
REMARK   17  A    between atoms: C_18  and  C_19
REMARK   18  A    between atoms: C_19  and  O_21
REMARK                            x       y       z     vdW  Elec       q    Type
REMARK                         _______ _______ _______ _____ _____    ______ ____
ROOT
ATOM      1  S   UNL     1       5.252   4.240  18.776  0.00  0.00    +0.000 S 
ATOM      2  O   UNL     1       5.194   3.012  19.752  0.00  0.00    +0.000 OA
ENDROOT
BRANCH   1   3
ATOM      3  C   UNL     1       4.316   5.596  19.548  0.00  0.00    +0.000 C 
BRANCH   3   4
ATOM      4  C   UNL     1       3.185   6.058  18.650  0.00  0.00    +0.000 C 
BRANCH   4   5
ATOM      5  C   UNL     1       2.939   5.093  17.499  0.00  0.00    +0.000 C 
BRANCH   5   6
ATOM      6  C   UNL     1       1.571   4.434  17.655  0.00  0.00    +0.000 C 
BRANCH   6   7
ATOM      7  C   UNL     1       1.720   2.933  17.850  0.00  0.00    +0.000 C 
BRANCH   7   8
ATOM      8  C   UNL     1       0.927   2.471  19.065  0.00  0.00    +0.000 C 
BRANCH   8   9
ATOM      9  C   UNL     1       1.817   2.250  20.284  0.00  0.00    +0.000 C 
BRANCH   9  10
ATOM     10  C   UNL     1       1.730   3.448  21.213  0.00  0.00    +0.000 C 
ATOM     11  O   UNL     1       1.165   4.491  20.930  0.00  0.00    +0.000 OA
BRANCH  10  12
ATOM     12  O   UNL     1       2.337   3.266  22.399  0.00  0.00    +0.000 OA
ATOM     13  H   UNL     1       1.757   3.244  23.179  0.00  0.00    +0.000 HD
ENDBRANCH  10  12
ENDBRANCH   9  10
ENDBRANCH   8   9
ENDBRANCH   7   8
ENDBRANCH   6   7
ENDBRANCH   5   6
ENDBRANCH   4   5
ENDBRANCH   3   4
ENDBRANCH   1   3
BRANCH   1  14
ATOM     14  C   UNL     1       6.939   4.942  18.875  0.00  0.00    +0.000 C 
BRANCH  14  15
ATOM     15  C   UNL     1       6.992   6.184  17.992  0.00  0.00    +0.000 C 
BRANCH  15  16
ATOM     16  C   UNL     1       7.036   5.832  16.512  0.00  0.00    +0.000 C 
BRANCH  16  17
ATOM     17  C   UNL     1       5.752   6.285  15.829  0.00  0.00    +0.000 C 
BRANCH  17  18
ATOM     18  C   UNL     1       5.235   5.201  14.898  0.00  0.00    +0.000 C 
BRANCH  18  19
ATOM     19  C   UNL     1       6.374   4.295  14.456  0.00  0.00    +0.000 C 
BRANCH  19  20
ATOM     20  C   UNL     1       6.061   3.682  13.100  0.00  0.00    +0.000 C 
BRANCH  20  22
ATOM     21  C   UNL     1       7.856   5.306  12.498  0.00  0.00    +0.000 C 
ATOM     22  C   UNL     1       7.147   4.029  12.092  0.00  0.00    +0.000 C 
ENDBRANCH  20  22
ENDBRANCH  19  20
ENDBRANCH  18  19
ENDBRANCH  17  18
ENDBRANCH  16  17
ENDBRANCH  15  16
ENDBRANCH  14  15
ENDBRANCH   1  14
TORSDOF 17
ENDMDL
MODEL 2
REMARK VINA RESULT:      -5.3      4.294      5.753
REMARK  Name = 
REMARK  18 active torsions:
REMARK  status: ('A' for Active; 'I' for Inactive)
REMARK    1  A    between atoms: C_1  and  C_2
REMARK    2  A    between atoms: C_2  and  C_3
REMARK    3  A    between atoms: C_3  and  C_4
REMARK    4  A    between atoms: C_4  and  C_5
REMARK    5  A    between atoms: C_5  and  C_6
REMARK    6  A    between atoms: C_6  and  C_7
REMARK    7  A    between atoms: C_7  and  C_8
REMARK    8  A    between atoms: C_8  and  C_9
REMARK    9  A    between atoms: C_9  and  S_10
REMARK   10  A    between atoms: S_10  and  C_12
REMARK   11  A    between atoms: C_12  and  C_13
REMARK   12  A    between atoms: C_13  and  C_14
REMARK   13  A    between atoms: C_14  and  C_15
REMARK   14  A    between atoms: C_15  and  C_16
REMARK   15  A    between atoms: C_16  and  C_17
REMARK   16  A    between atoms: C_17  and  C_18
REMARK   17  A    between atoms: C_18  and  C_19
REMARK   18  A    between atoms: C_19  and  O_21
REMARK                            x       y       z     vdW  Elec       q    Type
REMARK                         _______ _______ _______ _____ _____    ______ ____
ROOT
ATOM      1  S   UNL     1       6.855   5.213  18.701  0.00  0.00    +0.000 S 
ATOM      2  O   UNL     1       7.582   5.434  20.075  0.00  0.00    +0.000 OA
ENDROOT
BRANCH   1   3
ATOM      3  C   UNL     1       5.066   5.176  19.031  0.00  0.00    +0.000 C 
BRANCH   3   4
ATOM      4  C   UNL     1       4.288   5.805  17.891  0.00  0.00    +0.000 C 
BRANCH   4   5
ATOM      5  C   UNL     1       2.999   6.458  18.371  0.00  0.00    +0.000 C 
BRANCH   5   6
ATOM      6  C   UNL     1       2.849   6.267  19.878  0.00  0.00    +0.000 C 
BRANCH   6   7
ATOM      7  C   UNL     1       1.537   5.568  20.200  0.00  0.00    +0.000 C 
BRANCH   7   8
ATOM      8  C   UNL     1       1.787   4.121  20.601  0.00  0.00    +0.000 C 
BRANCH   8   9
ATOM      9  C   UNL     1       0.836   3.157  19.899  0.00  0.00    +0.000 C 
BRANCH   9  10
ATOM     10  C   UNL     1       1.381   2.798  18.528  0.00  0.00    +0.000 C 
ATOM     11  O   UNL     1       1.360   3.550  17.568  0.00  0.00    +0.000 OA
BRANCH  10  12
ATOM     12  O   UNL     1       1.899   1.560  18.452  0.00  0.00    +0.000 OA
ATOM     13  H   UNL     1       1.936   1.164  17.564  0.00  0.00    +0.000 HD
ENDBRANCH  10  12
ENDBRANCH   9  10
ENDBRANCH   8   9
ENDBRANCH   7   8
ENDBRANCH   6   7
ENDBRANCH   5   6
ENDBRANCH   4   5
ENDBRANCH   3   4
ENDBRANCH   1   3
BRANCH   1  14
ATOM     14  C   UNL     1       6.959   6.780  17.764  0.00  0.00    +0.000 C 
BRANCH  14  15
ATOM     15  C   UNL     1       8.126   7.590  18.317  0.00  0.00    +0.000 C 
BRANCH  15  16
ATOM     16  C   UNL     1       8.028   9.063  17.943  0.00  0.00    +0.000 C 
BRANCH  16  17
ATOM     17  C   UNL     1       9.009   9.879  18.775  0.00  0.00    +0.000 C 
BRANCH  17  18
ATOM     18  C   UNL     1       9.346  11.182  18.069  0.00  0.00    +0.000 C 
BRANCH  18  19
ATOM     19  C   UNL     1      10.842  11.448  18.136  0.00  0.00    +0.000 C 
BRANCH  19  20
ATOM     20  C   UNL     1      11.187  12.708  17.356  0.00  0.00    +0.000 C 
BRANCH  20  22
ATOM     21  C   UNL     1      10.356  15.050  17.561  0.00  0.00    +0.000 C 
ATOM     22  C   UNL     1      11.107  13.933  18.256  0.00  0.00    +0.000 C 
ENDBRANCH  20  22
ENDBRANCH  19  20
ENDBRANCH  18  19
ENDBRANCH  17  18
ENDBRANCH  16  17
ENDBRANCH  15  16
ENDBRANCH  14  15
ENDBRANCH   1  14
TORSDOF 17
ENDMDL
MODEL 3
REMARK VINA RESULT:      -5.3      2.543      6.839
REMARK  Name = 
REMARK  18 active torsions:
REMARK  status: ('A' for Active; 'I' for Inactive)
REMARK    1  A    between atoms: C_1  and  C_2
REMARK    2  A    between atoms: C_2  and  C_3
REMARK    3  A    between atoms: C_3  and  C_4
REMARK    4  A    between atoms: C_4  and  C_5
REMARK    5  A    between atoms: C_5  and  C_6
REMARK    6  A    between atoms: C_6  and  C_7
REMARK    7  A    between atoms: C_7  and  C_8
REMARK    8  A    between atoms: C_8  and  C_9
REMARK    9  A    between atoms: C_9  and  S_10
REMARK   10  A    between atoms: S_10  and  C_12
REMARK   11  A    between atoms: C_12  and  C_13
REMARK   12  A    between atoms: C_13  and  C_14
REMARK   13  A    between atoms: C_14  and  C_15
REMARK   14  A    between atoms: C_15  and  C_16
REMARK   15  A    between atoms: C_16  and  C_17
REMARK   16  A    between atoms: C_17  and  C_18
REMARK   17  A    between atoms: C_18  and  C_19
REMARK   18  A    between atoms: C_19  and  O_21
REMARK                            x       y       z     vdW  Elec       q    Type
REMARK                         _______ _______ _______ _____ _____    ______ ____
ROOT
ATOM      1  S   UNL     1       3.979   2.763  19.916  0.00  0.00    +0.000 S 
ATOM      2  O   UNL     1       5.043   1.779  20.520  0.00  0.00    +0.000 OA
ENDROOT
BRANCH   1   3
ATOM      3  C   UNL     1       3.796   2.353  18.153  0.00  0.00    +0.000 C 
BRANCH   3   4
ATOM      4  C   UNL     1       3.302   3.550  17.363  0.00  0.00    +0.000 C 
BRANCH   4   5
ATOM      5  C   UNL     1       4.419   4.206  16.562  0.00  0.00    +0.000 C 
BRANCH   5   6
ATOM      6  C   UNL     1       4.432   5.710  16.822  0.00  0.00    +0.000 C 
BRANCH   6   7
ATOM      7  C   UNL     1       5.529   6.382  16.012  0.00  0.00    +0.000 C 
BRANCH   7   8
ATOM      8  C   UNL     1       6.901   5.994  16.547  0.00  0.00    +0.000 C 
BRANCH   8   9
ATOM      9  C   UNL     1       7.123   6.485  17.974  0.00  0.00    +0.000 C 
BRANCH   9  10
ATOM     10  C   UNL     1       7.701   5.366  18.822  0.00  0.00    +0.000 C 
ATOM     11  O   UNL     1       8.089   4.301  18.374  0.00  0.00    +0.000 OA
BRANCH  10  12
ATOM     12  O   UNL     1       7.754   5.647  20.136  0.00  0.00    +0.000 OA
ATOM     13  H   UNL     1       8.267   6.435  20.386  0.00  0.00    +0.000 HD
ENDBRANCH  10  12
ENDBRANCH   9  10
ENDBRANCH   8   9
ENDBRANCH   7   8
ENDBRANCH   6   7
ENDBRANCH   5   6
ENDBRANCH   4   5
ENDBRANCH   3   4
ENDBRANCH   1   3
BRANCH   1  14
ATOM     14  C   UNL     1       2.336   2.238  20.522  0.00  0.00    +0.000 C 
BRANCH  14  15
ATOM     15  C   UNL     1       1.698   3.414  21.252  0.00  0.00    +0.000 C 
BRANCH  15  16
ATOM     16  C   UNL     1       1.101   4.430  20.288  0.00  0.00    +0.000 C 
BRANCH  16  17
ATOM     17  C   UNL     1       1.502   5.840  20.701  0.00  0.00    +0.000 C 
BRANCH  17  18
ATOM     18  C   UNL     1       2.419   6.457  19.658  0.00  0.00    +0.000 C 
BRANCH  18  19
ATOM     19  C   UNL     1       2.021   7.899  19.389  0.00  0.00    +0.000 C 
BRANCH  19  20
ATOM     20  C   UNL     1       1.345   8.495  20.615  0.00  0.00    +0.000 C 
BRANCH  20  22
ATOM     21  C   UNL     1       0.526  10.751  21.294  0.00  0.00    +0.000 C 
ATOM     22  C   UNL     1       0.474   9.680  20.223  0.00  0.00    +0.000 C 
ENDBRANCH  20  22
ENDBRANCH  19  20
ENDBRANCH  18  19
ENDBRANCH  17  18
ENDBRANCH  16  17
ENDBRANCH  15  16
ENDBRANCH  14  15
ENDBRANCH   1  14
TORSDOF 17
ENDMDL
MODEL 4
REMARK VINA RESULT:      -5.3      3.418      5.867
REMARK  Name = 
REMARK  18 active torsions:
REMARK  status: ('A' for Active; 'I' for Inactive)
REMARK    1  A    between atoms: C_1  and  C_2
REMARK    2  A    between atoms: C_2  and  C_3
REMARK    3  A    between atoms: C_3  and  C_4
REMARK    4  A    between atoms: C_4  and  C_5
REMARK    5  A    between atoms: C_5  and  C_6
REMARK    6  A    between atoms: C_6  and  C_7
REMARK    7  A    between atoms: C_7  and  C_8
REMARK    8  A    between atoms: C_8  and  C_9
REMARK    9  A    between atoms: C_9  and  S_10
REMARK   10  A    between atoms: S_10  and  C_12
REMARK   11  A    between atoms: C_12  and  C_13
REMARK   12  A    between atoms: C_13  and  C_14
REMARK   13  A    between atoms: C_14  and  C_15
REMARK   14  A    between atoms: C_15  and  C_16
REMARK   15  A    between atoms: C_16  and  C_17
REMARK   16  A    between atoms: C_17  and  C_18
REMARK   17  A    between atoms: C_18  and  C_19
REMARK   18  A    between atoms: C_19  and  O_21
REMARK                            x       y       z     vdW  Elec       q    Type
REMARK                         _______ _______ _______ _____ _____    ______ ____
ROOT
ATOM      1  S   UNL     1       5.740   5.317  16.925  0.00  0.00    +0.000 S 
ATOM      2  O   UNL     1       7.120   5.059  17.627  0.00  0.00    +0.000 OA
ENDROOT
BRANCH   1   3
ATOM      3  C   UNL     1       4.936   3.702  16.693  0.00  0.00    +0.000 C 
BRANCH   3   4
ATOM      4  C   UNL     1       4.007   3.383  17.848  0.00  0.00    +0.000 C 
BRANCH   4   5
ATOM      5  C   UNL     1       2.622   2.968  17.370  0.00  0.00    +0.000 C 
BRANCH   5   6
ATOM      6  C   UNL     1       1.571   3.925  17.926  0.00  0.00    +0.000 C 
BRANCH   6   7
ATOM      7  C   UNL     1       0.909   3.332  19.160  0.00  0.00    +0.000 C 
BRANCH   7   8
ATOM      8  C   UNL     1       0.904   4.340  20.301  0.00  0.00    +0.000 C 
BRANCH   8   9
ATOM      9  C   UNL     1       2.203   4.312  21.099  0.00  0.00    +0.000 C 
BRANCH   9  10
ATOM     10  C   UNL     1       2.454   2.913  21.632  0.00  0.00    +0.000 C 
ATOM     11  O   UNL     1       3.480   2.283  21.439  0.00  0.00    +0.000 OA
BRANCH  10  12
ATOM     12  O   UNL     1       1.434   2.410  22.350  0.00  0.00    +0.000 OA
ATOM     13  H   UNL     1       1.220   2.878  23.176  0.00  0.00    +0.000 HD
ENDBRANCH  10  12
ENDBRANCH   9  10
ENDBRANCH   8   9
ENDBRANCH   7   8
ENDBRANCH   6   7
ENDBRANCH   5   6
ENDBRANCH   4   5
ENDBRANCH   3   4
ENDBRANCH   1   3
BRANCH   1  14
ATOM     14  C   UNL     1       4.615   6.039  18.173  0.00  0.00    +0.000 C 
BRANCH  14  15
ATOM     15  C   UNL     1       3.782   7.121  17.495  0.00  0.00    +0.000 C 
BRANCH  15  16
ATOM     16  C   UNL     1       2.519   7.447  18.281  0.00  0.00    +0.000 C 
BRANCH  16  17
ATOM     17  C   UNL     1       2.156   8.915  18.099  0.00  0.00    +0.000 C 
BRANCH  17  18
ATOM     18  C   UNL     1       0.969   9.279  18.976  0.00  0.00    +0.000 C 
BRANCH  18  19
ATOM     19  C   UNL     1       0.238  10.484  18.404  0.00  0.00    +0.000 C 
BRANCH  19  20
ATOM     20  C   UNL     1      -1.257  10.360  18.654  0.00  0.00    +0.000 C 
BRANCH  20  22
ATOM     21  C   UNL     1      -2.775  11.156  16.843  0.00  0.00    +0.000 C 
ATOM     22  C   UNL     1      -1.984   9.977  17.373  0.00  0.00    +0.000 C 
ENDBRANCH  20  22
ENDBRANCH  19  20
ENDBRANCH  18  19
ENDBRANCH  17  18
ENDBRANCH  16  17
ENDBRANCH  15  16
ENDBRANCH  14  15
ENDBRANCH   1  14
TORSDOF 17
ENDMDL
MODEL 5
REMARK VINA RESULT:      -5.2      2.925      3.966
REMARK  Name = 
REMARK  18 active torsions:
REMARK  status: ('A' for Active; 'I' for Inactive)
REMARK    1  A    between atoms: C_1  and  C_2
REMARK    2  A    between atoms: C_2  and  C_3
REMARK    3  A    between atoms: C_3  and  C_4
REMARK    4  A    between atoms: C_4  and  C_5
REMARK    5  A    between atoms: C_5  and  C_6
REMARK    6  A    between atoms: C_6  and  C_7
REMARK    7  A    between atoms: C_7  and  C_8
REMARK    8  A    between atoms: C_8  and  C_9
REMARK    9  A    between atoms: C_9  and  S_10
REMARK   10  A    between atoms: S_10  and  C_12
REMARK   11  A    between atoms: C_12  and  C_13
REMARK   12  A    between atoms: C_13  and  C_14
REMARK   13  A    between atoms: C_14  and  C_15
REMARK   14  A    between atoms: C_15  and  C_16
REMARK   15  A    between atoms: C_16  and  C_17
REMARK   16  A    between atoms: C_17  and  C_18
REMARK   17  A    between atoms: C_18  and  C_19
REMARK   18  A    between atoms: C_19  and  O_21
REMARK                            x       y       z     vdW  Elec       q    Type
REMARK                         _______ _______ _______ _____ _____    ______ ____
ROOT
ATOM      1  S   UNL     1       3.100   2.553  18.356  0.00  0.00    +0.000 S 
ATOM      2  O   UNL     1       3.739   1.119  18.333  0.00  0.00    +0.000 OA
ENDROOT
BRANCH   1   3
ATOM      3  C   UNL     1       2.907   3.036  20.099  0.00  0.00    +0.000 C 
BRANCH   3   4
ATOM      4  C   UNL     1       1.442   3.171  20.469  0.00  0.00    +0.000 C 
BRANCH   4   5
ATOM      5  C   UNL     1       0.976   4.620  20.439  0.00  0.00    +0.000 C 
BRANCH   5   6
ATOM      6  C   UNL     1       2.159   5.552  20.683  0.00  0.00    +0.000 C 
BRANCH   6   7
ATOM      7  C   UNL     1       1.856   6.948  20.160  0.00  0.00    +0.000 C 
BRANCH   7   8
ATOM      8  C   UNL     1       1.635   7.915  21.315  0.00  0.00    +0.000 C 
BRANCH   8   9
ATOM      9  C   UNL     1       0.423   8.813  21.091  0.00  0.00    +0.000 C 
BRANCH   9  10
ATOM     10  C   UNL     1      -0.076   9.352  22.420  0.00  0.00    +0.000 C 
ATOM     11  O   UNL     1       0.344  10.370  22.944  0.00  0.00    +0.000 OA
BRANCH  10  12
ATOM     12  O   UNL     1      -1.037   8.603  22.987  0.00  0.00    +0.000 OA
ATOM     13  H   UNL     1      -0.828   8.224  23.859  0.00  0.00    +0.000 HD
ENDBRANCH  10  12
ENDBRANCH   9  10
ENDBRANCH   8   9
ENDBRANCH   7   8
ENDBRANCH   6   7
ENDBRANCH   5   6
ENDBRANCH   4   5
ENDBRANCH   3   4
ENDBRANCH   1   3
BRANCH   1  14
ATOM     14  C   UNL     1       4.397   3.741  17.854  0.00  0.00    +0.000 C 
BRANCH  14  15
ATOM     15  C   UNL     1       3.717   5.032  17.411  0.00  0.00    +0.000 C 
BRANCH  15  16
ATOM     16  C   UNL     1       4.617   6.245  17.594  0.00  0.00    +0.000 C 
BRANCH  16  17
ATOM     17  C   UNL     1       5.890   6.079  16.775  0.00  0.00    +0.000 C 
BRANCH  17  18
ATOM     18  C   UNL     1       5.552   5.855  15.310  0.00  0.00    +0.000 C 
BRANCH  18  19
ATOM     19  C   UNL     1       6.518   4.857  14.691  0.00  0.00    +0.000 C 
BRANCH  19  20
ATOM     20  C   UNL     1       5.750   3.736  14.008  0.00  0.00    +0.000 C 
BRANCH  20  22
ATOM     21  C   UNL     1       4.988   3.126  11.713  0.00  0.00    +0.000 C 
ATOM     22  C   UNL     1       6.152   3.625  12.544  0.00  0.00    +0.000 C 
ENDBRANCH  20  22
ENDBRANCH  19  20
ENDBRANCH  18  19
ENDBRANCH  17  18
ENDBRANCH  16  17
ENDBRANCH  15  16
ENDBRANCH  14  15
ENDBRANCH   1  14
TORSDOF 17
ENDMDL
MODEL 6
REMARK VINA RESULT:      -5.1      2.279      3.279
REMARK  Name = 
REMARK  18 active torsions:
REMARK  status: ('A' for Active; 'I' for Inactive)
REMARK    1  A    between atoms: C_1  and  C_2
REMARK    2  A    between atoms: C_2  and  C_3
REMARK    3  A    between atoms: C_3  and  C_4
REMARK    4  A    between atoms: C_4  and  C_5
REMARK    5  A    between atoms: C_5  and  C_6
REMARK    6  A    between atoms: C_6  and  C_7
REMARK    7  A    between atoms: C_7  and  C_8
REMARK    8  A    between atoms: C_8  and  C_9
REMARK    9  A    between atoms: C_9  and  S_10
REMARK   10  A    between atoms: S_10  and  C_12
REMARK   11  A    between atoms: C_12  and  C_13
REMARK   12  A    between atoms: C_13  and  C_14
REMARK   13  A    between atoms: C_14  and  C_15
REMARK   14  A    between atoms: C_15  and  C_16
REMARK   15  A    between atoms: C_16  and  C_17
REMARK   16  A    between atoms: C_17  and  C_18
REMARK   17  A    between atoms: C_18  and  C_19
REMARK   18  A    between atoms: C_19  and  O_21
REMARK                            x       y       z     vdW  Elec       q    Type
REMARK                         _______ _______ _______ _____ _____    ______ ____
ROOT
ATOM      1  S   UNL     1       4.929   4.461  17.803  0.00  0.00    +0.000 S 
ATOM      2  O   UNL     1       4.144   5.756  17.391  0.00  0.00    +0.000 OA
ENDROOT
BRANCH   1   3
ATOM      3  C   UNL     1       3.877   3.033  17.397  0.00  0.00    +0.000 C 
BRANCH   3   4
ATOM      4  C   UNL     1       3.877   2.017  18.523  0.00  0.00    +0.000 C 
BRANCH   4   5
ATOM      5  C   UNL     1       2.478   1.777  19.075  0.00  0.00    +0.000 C 
BRANCH   5   6
ATOM      6  C   UNL     1       1.471   2.660  18.343  0.00  0.00    +0.000 C 
BRANCH   6   7
ATOM      7  C   UNL     1       0.860   3.675  19.297  0.00  0.00    +0.000 C 
BRANCH   7   8
ATOM      8  C   UNL     1       1.433   3.505  20.697  0.00  0.00    +0.000 C 
BRANCH   8   9
ATOM      9  C   UNL     1       2.327   4.673  21.099  0.00  0.00    +0.000 C 
BRANCH   9  10
ATOM     10  C   UNL     1       1.790   5.964  20.507  0.00  0.00    +0.000 C 
ATOM     11  O   UNL     1       0.968   6.677  21.057  0.00  0.00    +0.000 OA
BRANCH  10  12
ATOM     12  O   UNL     1       2.302   6.267  19.301  0.00  0.00    +0.000 OA
ATOM     13  H   UNL     1       1.885   7.011  18.833  0.00  0.00    +0.000 HD
ENDBRANCH  10  12
ENDBRANCH   9  10
ENDBRANCH   8   9
ENDBRANCH   7   8
ENDBRANCH   6   7
ENDBRANCH   5   6
ENDBRANCH   4   5
ENDBRANCH   3   4
ENDBRANCH   1   3
BRANCH   1  14
ATOM     14  C   UNL     1       6.263   4.213  16.577  0.00  0.00    +0.000 C 
BRANCH  14  15
ATOM     15  C   UNL     1       6.135   5.291  15.507  0.00  0.00    +0.000 C 
BRANCH  15  16
ATOM     16  C   UNL     1       6.719   4.845  14.173  0.00  0.00    +0.000 C 
BRANCH  16  17
ATOM     17  C   UNL     1       6.008   3.590  13.686  0.00  0.00    +0.000 C 
BRANCH  17  18
ATOM     18  C   UNL     1       6.381   3.296  12.242  0.00  0.00    +0.000 C 
BRANCH  18  19
ATOM     19  C   UNL     1       5.213   2.650  11.515  0.00  0.00    +0.000 C 
BRANCH  19  20
ATOM     20  C   UNL     1       4.060   3.635  11.393  0.00  0.00    +0.000 C 
BRANCH  20  22
ATOM     21  C   UNL     1       2.804   4.367   9.367  0.00  0.00    +0.000 C 
ATOM     22  C   UNL     1       3.101   3.205  10.292  0.00  0.00    +0.000 C 
ENDBRANCH  20  22
ENDBRANCH  19  20
ENDBRANCH  18  19
ENDBRANCH  17  18
ENDBRANCH  16  17
ENDBRANCH  15  16
ENDBRANCH  14  15
ENDBRANCH   1  14
TORSDOF 17
ENDMDL
MODEL 7
REMARK VINA RESULT:      -5.1      1.901      2.691
REMARK  Name = 
REMARK  18 active torsions:
REMARK  status: ('A' for Active; 'I' for Inactive)
REMARK    1  A    between atoms: C_1  and  C_2
REMARK    2  A    between atoms: C_2  and  C_3
REMARK    3  A    between atoms: C_3  and  C_4
REMARK    4  A    between atoms: C_4  and  C_5
REMARK    5  A    between atoms: C_5  and  C_6
REMARK    6  A    between atoms: C_6  and  C_7
REMARK    7  A    between atoms: C_7  and  C_8
REMARK    8  A    between atoms: C_8  and  C_9
REMARK    9  A    between atoms: C_9  and  S_10
REMARK   10  A    between atoms: S_10  and  C_12
REMARK   11  A    between atoms: C_12  and  C_13
REMARK   12  A    between atoms: C_13  and  C_14
REMARK   13  A    between atoms: C_14  and  C_15
REMARK   14  A    between atoms: C_15  and  C_16
REMARK   15  A    between atoms: C_16  and  C_17
REMARK   16  A    between atoms: C_17  and  C_18
REMARK   17  A    between atoms: C_18  and  C_19
REMARK   18  A    between atoms: C_19  and  O_21
REMARK                            x       y       z     vdW  Elec       q    Type
REMARK                         _______ _______ _______ _____ _____    ______ ____
ROOT
ATOM      1  S   UNL     1       5.164   5.443  18.253  0.00  0.00    +0.000 S 
ATOM      2  O   UNL     1       5.701   5.319  19.723  0.00  0.00    +0.000 OA
ENDROOT
BRANCH   1   3
ATOM      3  C   UNL     1       3.745   6.581  18.285  0.00  0.00    +0.000 C 
BRANCH   3   4
ATOM      4  C   UNL     1       2.456   5.839  18.579  0.00  0.00    +0.000 C 
BRANCH   4   5
ATOM      5  C   UNL     1       2.107   5.864  20.061  0.00  0.00    +0.000 C 
BRANCH   5   6
ATOM      6  C   UNL     1       2.446   4.519  20.698  0.00  0.00    +0.000 C 
BRANCH   6   7
ATOM      7  C   UNL     1       1.201   3.654  20.814  0.00  0.00    +0.000 C 
BRANCH   7   8
ATOM      8  C   UNL     1       0.633   3.348  19.434  0.00  0.00    +0.000 C 
BRANCH   8   9
ATOM      9  C   UNL     1       1.091   1.990  18.912  0.00  0.00    +0.000 C 
BRANCH   9  10
ATOM     10  C   UNL     1       2.243   2.170  17.939  0.00  0.00    +0.000 C 
ATOM     11  O   UNL     1       2.251   2.988  17.036  0.00  0.00    +0.000 OA
BRANCH  10  12
ATOM     12  O   UNL     1       3.277   1.339  18.157  0.00  0.00    +0.000 OA
ATOM     13  H   UNL     1       3.251   0.489  17.685  0.00  0.00    +0.000 HD
ENDBRANCH  10  12
ENDBRANCH   9  10
ENDBRANCH   8   9
ENDBRANCH   7   8
ENDBRANCH   6   7
ENDBRANCH   5   6
ENDBRANCH   4   5
ENDBRANCH   3   4
ENDBRANCH   1   3
BRANCH   1  14
ATOM     14  C   UNL     1       6.354   6.468  17.317  0.00  0.00    +0.000 C 
BRANCH  14  15
ATOM     15  C   UNL     1       7.098   5.564  16.340  0.00  0.00    +0.000 C 
BRANCH  15  16
ATOM     16  C   UNL     1       6.284   4.333  15.967  0.00  0.00    +0.000 C 
BRANCH  16  17
ATOM     17  C   UNL     1       5.804   4.442  14.526  0.00  0.00    +0.000 C 
BRANCH  17  18
ATOM     18  C   UNL     1       6.989   4.507  13.576  0.00  0.00    +0.000 C 
BRANCH  18  19
ATOM     19  C   UNL     1       6.578   4.051  12.185  0.00  0.00    +0.000 C 
BRANCH  19  20
ATOM     20  C   UNL     1       6.394   2.541  12.159  0.00  0.00    +0.000 C 
BRANCH  20  22
ATOM     21  C   UNL     1       4.144   3.242  11.342  0.00  0.00    +0.000 C 
ATOM     22  C   UNL     1       5.205   2.161  11.288  0.00  0.00    +0.000 C 
ENDBRANCH  20  22
ENDBRANCH  19  20
ENDBRANCH  18  19
ENDBRANCH  17  18
ENDBRANCH  16  17
ENDBRANCH  15  16
ENDBRANCH  14  15
ENDBRANCH   1  14
TORSDOF 17
ENDMDL
MODEL 8
REMARK VINA RESULT:      -5.1      3.154      4.823
REMARK  Name = 
REMARK  18 active torsions:
REMARK  status: ('A' for Active; 'I' for Inactive)
REMARK    1  A    between atoms: C_1  and  C_2
REMARK    2  A    between atoms: C_2  and  C_3
REMARK    3  A    between atoms: C_3  and  C_4
REMARK    4  A    between atoms: C_4  and  C_5
REMARK    5  A    between atoms: C_5  and  C_6
REMARK    6  A    between atoms: C_6  and  C_7
REMARK    7  A    between atoms: C_7  and  C_8
REMARK    8  A    between atoms: C_8  and  C_9
REMARK    9  A    between atoms: C_9  and  S_10
REMARK   10  A    between atoms: S_10  and  C_12
REMARK   11  A    between atoms: C_12  and  C_13
REMARK   12  A    between atoms: C_13  and  C_14
REMARK   13  A    between atoms: C_14  and  C_15
REMARK   14  A    between atoms: C_15  and  C_16
REMARK   15  A    between atoms: C_16  and  C_17
REMARK   16  A    between atoms: C_17  and  C_18
REMARK   17  A    between atoms: C_18  and  C_19
REMARK   18  A    between atoms: C_19  and  O_21
REMARK                            x       y       z     vdW  Elec       q    Type
REMARK                         _______ _______ _______ _____ _____    ______ ____
ROOT
ATOM      1  S   UNL     1       5.249   4.965  16.193  0.00  0.00    +0.000 S 
ATOM      2  O   UNL     1       4.961   4.335  14.784  0.00  0.00    +0.000 OA
ENDROOT
BRANCH   1   3
ATOM      3  C   UNL     1       4.759   3.742  17.447  0.00  0.00    +0.000 C 
BRANCH   3   4
ATOM      4  C   UNL     1       3.299   3.360  17.297  0.00  0.00    +0.000 C 
BRANCH   4   5
ATOM      5  C   UNL     1       3.012   1.973  17.855  0.00  0.00    +0.000 C 
BRANCH   5   6
ATOM      6  C   UNL     1       1.831   2.034  18.821  0.00  0.00    +0.000 C 
BRANCH   6   7
ATOM      7  C   UNL     1       2.143   2.960  19.986  0.00  0.00    +0.000 C 
BRANCH   7   8
ATOM      8  C   UNL     1       1.098   4.063  20.086  0.00  0.00    +0.000 C 
BRANCH   8   9
ATOM      9  C   UNL     1       1.677   5.356  20.650  0.00  0.00    +0.000 C 
BRANCH   9  10
ATOM     10  C   UNL     1       2.638   5.974  19.650  0.00  0.00    +0.000 C 
ATOM     11  O   UNL     1       2.289   6.525  18.620  0.00  0.00    +0.000 OA
BRANCH  10  12
ATOM     12  O   UNL     1       3.933   5.863  19.995  0.00  0.00    +0.000 OA
ATOM     13  H   UNL     1       4.330   4.981  19.896  0.00  0.00    +0.000 HD
ENDBRANCH  10  12
ENDBRANCH   9  10
ENDBRANCH   8   9
ENDBRANCH   7   8
ENDBRANCH   6   7
ENDBRANCH   5   6
ENDBRANCH   4   5
ENDBRANCH   3   4
ENDBRANCH   1   3
BRANCH   1  14
ATOM     14  C   UNL     1       7.060   4.949  16.443  0.00  0.00    +0.000 C 
BRANCH  14  15
ATOM     15  C   UNL     1       7.338   4.608  17.903  0.00  0.00    +0.000 C 
BRANCH  15  16
ATOM     16  C   UNL     1       7.431   5.853  18.774  0.00  0.00    +0.000 C 
BRANCH  16  17
ATOM     17  C   UNL     1       7.639   7.084  17.902  0.00  0.00    +0.000 C 
BRANCH  17  18
ATOM     18  C   UNL     1       8.479   8.117  18.636  0.00  0.00    +0.000 C 
BRANCH  18  19
ATOM     19  C   UNL     1       8.335   9.480  17.978  0.00  0.00    +0.000 C 
BRANCH  19  20
ATOM     20  C   UNL     1       9.262  10.486  18.645  0.00  0.00    +0.000 C 
BRANCH  20  22
ATOM     21  C   UNL     1      10.696  12.267  17.650  0.00  0.00    +0.000 C 
ATOM     22  C   UNL     1       9.273  11.798  17.872  0.00  0.00    +0.000 C 
ENDBRANCH  20  22
ENDBRANCH  19  20
ENDBRANCH  18  19
ENDBRANCH  17  18
ENDBRANCH  16  17
ENDBRANCH  15  16
ENDBRANCH  14  15
ENDBRANCH   1  14
TORSDOF 17
ENDMDL
MODEL 9
REMARK VINA RESULT:      -5.1      3.868      5.652
REMARK  Name = 
REMARK  18 active torsions:
REMARK  status: ('A' for Active; 'I' for Inactive)
REMARK    1  A    between atoms: C_1  and  C_2
REMARK    2  A    between atoms: C_2  and  C_3
REMARK    3  A    between atoms: C_3  and  C_4
REMARK    4  A    between atoms: C_4  and  C_5
REMARK    5  A    between atoms: C_5  and  C_6
REMARK    6  A    between atoms: C_6  and  C_7
REMARK    7  A    between atoms: C_7  and  C_8
REMARK    8  A    between atoms: C_8  and  C_9
REMARK    9  A    between atoms: C_9  and  S_10
REMARK   10  A    between atoms: S_10  and  C_12
REMARK   11  A    between atoms: C_12  and  C_13
REMARK   12  A    between atoms: C_13  and  C_14
REMARK   13  A    between atoms: C_14  and  C_15
REMARK   14  A    between atoms: C_15  and  C_16
REMARK   15  A    between atoms: C_16  and  C_17
REMARK   16  A    between atoms: C_17  and  C_18
REMARK   17  A    between atoms: C_18  and  C_19
REMARK   18  A    between atoms: C_19  and  O_21
REMARK                            x       y       z     vdW  Elec       q    Type
REMARK                         _______ _______ _______ _____ _____    ______ ____
ROOT
ATOM      1  S   UNL     1       6.454   5.613  15.764  0.00  0.00    +0.000 S 
ATOM      2  O   UNL     1       7.568   5.088  14.791  0.00  0.00    +0.000 OA
ENDROOT
BRANCH   1   3
ATOM      3  C   UNL     1       5.619   4.160  16.472  0.00  0.00    +0.000 C 
BRANCH   3   4
ATOM      4  C   UNL     1       4.903   4.515  17.761  0.00  0.00    +0.000 C 
BRANCH   4   5
ATOM      5  C   UNL     1       3.429   4.139  17.718  0.00  0.00    +0.000 C 
BRANCH   5   6
ATOM      6  C   UNL     1       3.262   2.649  18.001  0.00  0.00    +0.000 C 
BRANCH   6   7
ATOM      7  C   UNL     1       1.790   2.290  18.125  0.00  0.00    +0.000 C 
BRANCH   7   8
ATOM      8  C   UNL     1       1.407   2.104  19.587  0.00  0.00    +0.000 C 
BRANCH   8   9
ATOM      9  C   UNL     1       1.112   3.431  20.279  0.00  0.00    +0.000 C 
BRANCH   9  10
ATOM     10  C   UNL     1       2.144   3.690  21.363  0.00  0.00    +0.000 C 
ATOM     11  O   UNL     1       2.567   2.833  22.121  0.00  0.00    +0.000 OA
BRANCH  10  12
ATOM     12  O   UNL     1       2.565   4.965  21.424  0.00  0.00    +0.000 OA
ATOM     13  H   UNL     1       2.053   5.611  20.907  0.00  0.00    +0.000 HD
ENDBRANCH  10  12
ENDBRANCH   9  10
ENDBRANCH   8   9
ENDBRANCH   7   8
ENDBRANCH   6   7
ENDBRANCH   5   6
ENDBRANCH   4   5
ENDBRANCH   3   4
ENDBRANCH   1   3
BRANCH   1  14
ATOM     14  C   UNL     1       7.286   6.245  17.265  0.00  0.00    +0.000 C 
BRANCH  14  15
ATOM     15  C   UNL     1       7.085   7.755  17.322  0.00  0.00    +0.000 C 
BRANCH  15  16
ATOM     16  C   UNL     1       8.229   8.458  18.040  0.00  0.00    +0.000 C 
BRANCH  16  17
ATOM     17  C   UNL     1       8.020   9.966  18.003  0.00  0.00    +0.000 C 
BRANCH  17  18
ATOM     18  C   UNL     1       9.356  10.688  18.075  0.00  0.00    +0.000 C 
BRANCH  18  19
ATOM     19  C   UNL     1       9.961  10.544  19.462  0.00  0.00    +0.000 C 
BRANCH  19  20
ATOM     20  C   UNL     1       9.527  11.702  20.348  0.00  0.00    +0.000 C 
BRANCH  20  22
ATOM     21  C   UNL     1      11.985  12.054  20.121  0.00  0.00    +0.000 C 
ATOM     22  C   UNL     1      10.674  12.682  20.548  0.00  0.00    +0.000 C 
ENDBRANCH  20  22
ENDBRANCH  19  20
ENDBRANCH  18  19
ENDBRANCH  17  18
ENDBRANCH  16  17
ENDBRANCH  15  16
ENDBRANCH  14  15
ENDBRANCH   1  14
TORSDOF 17
ENDMDL
