MODEL 1
REMARK VINA RESULT:      -8.4      0.000      0.000
REMARK  Name = 
REMARK  9 active torsions:
REMARK  status: ('A' for Active; 'I' for Inactive)
REMARK    1  A    between atoms: C_1  and  C_2
REMARK    2  A    between atoms: C_2  and  C_3
REMARK    3  A    between atoms: C_2  and  C_4
REMARK    4  A    between atoms: C_2  and  N_5
REMARK    5  A    between atoms: N_5  and  S_6
REMARK    6  A    between atoms: S_6  and  C_9
REMARK    7  A    between atoms: C_14  and  C_15
REMARK    8  A    between atoms: C_18  and  C_19
REMARK    9  A    between atoms: C_22  and  N_23
REMARK                            x       y       z     vdW  Elec       q    Type
REMARK                         _______ _______ _______ _____ _____    ______ ____
ROOT
ATOM      1  C   UNL     1       2.054   6.415  19.531  0.00  0.00    +0.000 A 
ATOM      2  C   UNL     1       2.170   7.058  18.281  0.00  0.00    +0.000 A 
ATOM      3  C   UNL     1       1.875   8.420  18.121  0.00  0.00    +0.000 A 
ATOM      4  C   UNL     1       1.390   9.184  19.192  0.00  0.00    +0.000 A 
ATOM      5  C   UNL     1       1.386   8.565  20.445  0.00  0.00    +0.000 A 
ATOM      6  F   UNL     1       0.946   9.231  21.523  0.00  0.00    +0.000 F 
ATOM      7  C   UNL     1       1.798   7.244  20.623  0.00  0.00    +0.000 A 
ENDROOT
BRANCH   4   8
ATOM      8  C   UNL     1       0.916  10.553  18.999  0.00  0.00    +0.000 A 
ATOM      9  C   UNL     1      -0.437  10.910  18.985  0.00  0.00    +0.000 A 
ATOM     10  N   UNL     1      -0.882  12.174  18.779  0.00  0.00    +0.000 NA
ATOM     11  C   UNL     1       0.066  13.108  18.590  0.00  0.00    +0.000 A 
ATOM     12  C   UNL     1       1.427  12.763  18.587  0.00  0.00    +0.000 A 
ATOM     13 BR   UNL     1       2.768  14.091  18.342  0.00  0.00    +0.000 Br
ATOM     14  N   UNL     1       1.870  11.496  18.782  0.00  0.00    +0.000 NA
BRANCH  11  15
ATOM     15  N   UNL     1      -0.420  14.393  18.352  0.00  0.00    +0.000 N 
ATOM     16  H   UNL     1      -1.371  14.300  18.025  0.00  0.00    +0.000 HD
ATOM     17  H   UNL     1      -0.340  14.986  19.176  0.00  0.00    +0.000 HD
ENDBRANCH  11  15
ENDBRANCH   4   8
BRANCH   1  23
ATOM     18  C   UNL     1       3.349   4.158  19.438  0.00  0.00    +0.000 A 
ATOM     19  C   UNL     1       3.297   2.749  19.597  0.00  0.00    +0.000 A 
ATOM     20  C   UNL     1       2.148   2.104  20.045  0.00  0.00    +0.000 A 
ATOM     21  C   UNL     1       1.023   2.853  20.336  0.00  0.00    +0.000 A 
ATOM     22  C   UNL     1       1.040   4.236  20.134  0.00  0.00    +0.000 A 
ATOM     23  C   UNL     1       2.186   4.940  19.665  0.00  0.00    +0.000 A 
BRANCH  18  24
ATOM     24  S   UNL     1       4.992   4.729  18.917  0.00  0.00    +0.000 S 
ATOM     25  O   UNL     1       5.986   3.698  18.957  0.00  0.00    +0.000 OA
ATOM     26  O   UNL     1       5.208   5.970  19.634  0.00  0.00    +0.000 OA
BRANCH  24  27
ATOM     27  N   UNL     1       4.775   5.181  17.300  0.00  0.00    +0.000 NA
ATOM     28  H   UNL     1       4.026   4.641  16.867  0.00  0.00    +0.000 HD
BRANCH  27  30
ATOM     29  C   UNL     1       6.373   4.420  15.577  0.00  0.00    +0.000 C 
ATOM     30  C   UNL     1       5.867   5.607  16.389  0.00  0.00    +0.000 C 
ATOM     31  C   UNL     1       7.016   6.307  17.125  0.00  0.00    +0.000 C 
ATOM     32  C   UNL     1       5.262   6.638  15.417  0.00  0.00    +0.000 C 
ENDBRANCH  27  30
ENDBRANCH  24  27
ENDBRANCH  18  24
ENDBRANCH   1  23
TORSDOF 6
ENDMDL
MODEL 2
REMARK VINA RESULT:      -8.3      2.489      4.507
REMARK  Name = 
REMARK  9 active torsions:
REMARK  status: ('A' for Active; 'I' for Inactive)
REMARK    1  A    between atoms: C_1  and  C_2
REMARK    2  A    between atoms: C_2  and  C_3
REMARK    3  A    between atoms: C_2  and  C_4
REMARK    4  A    between atoms: C_2  and  N_5
REMARK    5  A    between atoms: N_5  and  S_6
REMARK    6  A    between atoms: S_6  and  C_9
REMARK    7  A    between atoms: C_14  and  C_15
REMARK    8  A    between atoms: C_18  and  C_19
REMARK    9  A    between atoms: C_22  and  N_23
REMARK                            x       y       z     vdW  Elec       q    Type
REMARK                         _______ _______ _______ _____ _____    ______ ____
ROOT
ATOM      1  C   UNL     1       3.149   6.901  18.257  0.00  0.00    +0.000 A 
ATOM      2  C   UNL     1       2.762   6.588  19.576  0.00  0.00    +0.000 A 
ATOM      3  C   UNL     1       1.914   7.427  20.315  0.00  0.00    +0.000 A 
ATOM      4  C   UNL     1       1.469   8.647  19.790  0.00  0.00    +0.000 A 
ATOM      5  C   UNL     1       1.769   8.892  18.447  0.00  0.00    +0.000 A 
ATOM      6  F   UNL     1       1.370  10.033  17.865  0.00  0.00    +0.000 F 
ATOM      7  C   UNL     1       2.510   7.996  17.675  0.00  0.00    +0.000 A 
ENDROOT
BRANCH   4   8
ATOM      8  C   UNL     1       0.732   9.607  20.609  0.00  0.00    +0.000 A 
ATOM      9  C   UNL     1       0.886   9.722  21.995  0.00  0.00    +0.000 A 
ATOM     10  N   UNL     1       0.184  10.592  22.763  0.00  0.00    +0.000 NA
ATOM     11  C   UNL     1      -0.693  11.376  22.112  0.00  0.00    +0.000 A 
ATOM     12  C   UNL     1      -0.869  11.262  20.723  0.00  0.00    +0.000 A 
ATOM     13 BR   UNL     1      -2.095  12.389  19.801  0.00  0.00    +0.000 Br
ATOM     14  N   UNL     1      -0.174  10.384  19.959  0.00  0.00    +0.000 NA
BRANCH  11  15
ATOM     15  N   UNL     1      -1.421  12.240  22.928  0.00  0.00    +0.000 N 
ATOM     16  H   UNL     1      -1.952  11.671  23.573  0.00  0.00    +0.000 HD
ATOM     17  H   UNL     1      -0.819  12.914  23.399  0.00  0.00    +0.000 HD
ENDBRANCH  11  15
ENDBRANCH   4   8
BRANCH   1  23
ATOM     18  C   UNL     1       4.165   4.724  17.251  0.00  0.00    +0.000 A 
ATOM     19  C   UNL     1       5.256   4.125  16.569  0.00  0.00    +0.000 A 
ATOM     20  C   UNL     1       6.329   4.876  16.102  0.00  0.00    +0.000 A 
ATOM     21  C   UNL     1       6.342   6.242  16.315  0.00  0.00    +0.000 A 
ATOM     22  C   UNL     1       5.303   6.841  17.032  0.00  0.00    +0.000 A 
ATOM     23  C   UNL     1       4.189   6.114  17.541  0.00  0.00    +0.000 A 
BRANCH  18  24
ATOM     24  S   UNL     1       2.874   3.520  17.674  0.00  0.00    +0.000 S 
ATOM     25  O   UNL     1       3.192   2.185  17.261  0.00  0.00    +0.000 OA
ATOM     26  O   UNL     1       1.630   4.131  17.250  0.00  0.00    +0.000 OA
BRANCH  24  27
ATOM     27  N   UNL     1       2.829   3.545  19.367  0.00  0.00    +0.000 NA
ATOM     28  H   UNL     1       3.769   3.491  19.758  0.00  0.00    +0.000 HD
BRANCH  27  30
ATOM     29  C   UNL     1       2.303   2.518  21.552  0.00  0.00    +0.000 C 
ATOM     30  C   UNL     1       1.756   2.932  20.190  0.00  0.00    +0.000 C 
ATOM     31  C   UNL     1       1.064   1.757  19.487  0.00  0.00    +0.000 C 
ATOM     32  C   UNL     1       0.684   4.019  20.406  0.00  0.00    +0.000 C 
ENDBRANCH  27  30
ENDBRANCH  24  27
ENDBRANCH  18  24
ENDBRANCH   1  23
TORSDOF 6
ENDMDL
MODEL 3
REMARK VINA RESULT:      -8.3      1.257      1.449
REMARK  Name = 
REMARK  9 active torsions:
REMARK  status: ('A' for Active; 'I' for Inactive)
REMARK    1  A    between atoms: C_1  and  C_2
REMARK    2  A    between atoms: C_2  and  C_3
REMARK    3  A    between atoms: C_2  and  C_4
REMARK    4  A    between atoms: C_2  and  N_5
REMARK    5  A    between atoms: N_5  and  S_6
REMARK    6  A    between atoms: S_6  and  C_9
REMARK    7  A    between atoms: C_14  and  C_15
REMARK    8  A    between atoms: C_18  and  C_19
REMARK    9  A    between atoms: C_22  and  N_23
REMARK                            x       y       z     vdW  Elec       q    Type
REMARK                         _______ _______ _______ _____ _____    ______ ____
ROOT
ATOM      1  C   UNL     1       2.108   6.391  19.565  0.00  0.00    +0.000 A 
ATOM      2  C   UNL     1       2.149   6.994  18.291  0.00  0.00    +0.000 A 
ATOM      3  C   UNL     1       1.829   8.347  18.105  0.00  0.00    +0.000 A 
ATOM      4  C   UNL     1       1.391   9.140  19.175  0.00  0.00    +0.000 A 
ATOM      5  C   UNL     1       1.460   8.561  20.445  0.00  0.00    +0.000 A 
ATOM      6  F   UNL     1       1.070   9.256  21.524  0.00  0.00    +0.000 F 
ATOM      7  C   UNL     1       1.898   7.251  20.642  0.00  0.00    +0.000 A 
ENDROOT
BRANCH   4   8
ATOM      8  C   UNL     1       0.890  10.496  18.965  0.00  0.00    +0.000 A 
ATOM      9  C   UNL     1       1.710  11.586  18.653  0.00  0.00    +0.000 A 
ATOM     10  N   UNL     1       1.253  12.851  18.484  0.00  0.00    +0.000 NA
ATOM     11  C   UNL     1      -0.074  13.021  18.626  0.00  0.00    +0.000 A 
ATOM     12  C   UNL     1      -0.908  11.940  18.953  0.00  0.00    +0.000 A 
ATOM     13 BR   UNL     1      -2.787  12.179  19.129  0.00  0.00    +0.000 Br
ATOM     14  N   UNL     1      -0.447  10.677  19.131  0.00  0.00    +0.000 NA
BRANCH  11  15
ATOM     15  N   UNL     1      -0.512  14.336  18.475  0.00  0.00    +0.000 N 
ATOM     16  H   UNL     1      -1.486  14.362  18.744  0.00  0.00    +0.000 HD
ATOM     17  H   UNL     1       0.062  14.989  19.005  0.00  0.00    +0.000 HD
ENDBRANCH  11  15
ENDBRANCH   4   8
BRANCH   1  23
ATOM     18  C   UNL     1       3.408   4.139  19.427  0.00  0.00    +0.000 A 
ATOM     19  C   UNL     1       3.384   2.736  19.640  0.00  0.00    +0.000 A 
ATOM     20  C   UNL     1       2.290   2.102  20.220  0.00  0.00    +0.000 A 
ATOM     21  C   UNL     1       1.192   2.854  20.592  0.00  0.00    +0.000 A 
ATOM     22  C   UNL     1       1.176   4.229  20.340  0.00  0.00    +0.000 A 
ATOM     23  C   UNL     1       2.265   4.922  19.738  0.00  0.00    +0.000 A 
BRANCH  18  24
ATOM     24  S   UNL     1       4.987   4.700  18.731  0.00  0.00    +0.000 S 
ATOM     25  O   UNL     1       6.058   3.771  18.940  0.00  0.00    +0.000 OA
ATOM     26  O   UNL     1       5.129   6.075  19.167  0.00  0.00    +0.000 OA
BRANCH  24  27
ATOM     27  N   UNL     1       4.693   4.790  17.066  0.00  0.00    +0.000 NA
ATOM     28  H   UNL     1       4.190   3.965  16.739  0.00  0.00    +0.000 HD
BRANCH  27  30
ATOM     29  C   UNL     1       5.652   4.588  14.798  0.00  0.00    +0.000 C 
ATOM     30  C   UNL     1       5.610   5.413  16.079  0.00  0.00    +0.000 C 
ATOM     31  C   UNL     1       7.019   5.642  16.640  0.00  0.00    +0.000 C 
ATOM     32  C   UNL     1       5.029   6.801  15.745  0.00  0.00    +0.000 C 
ENDBRANCH  27  30
ENDBRANCH  24  27
ENDBRANCH  18  24
ENDBRANCH   1  23
TORSDOF 6
ENDMDL
MODEL 4
REMARK VINA RESULT:      -8.1      1.077      1.265
REMARK  Name = 
REMARK  9 active torsions:
REMARK  status: ('A' for Active; 'I' for Inactive)
REMARK    1  A    between atoms: C_1  and  C_2
REMARK    2  A    between atoms: C_2  and  C_3
REMARK    3  A    between atoms: C_2  and  C_4
REMARK    4  A    between atoms: C_2  and  N_5
REMARK    5  A    between atoms: N_5  and  S_6
REMARK    6  A    between atoms: S_6  and  C_9
REMARK    7  A    between atoms: C_14  and  C_15
REMARK    8  A    between atoms: C_18  and  C_19
REMARK    9  A    between atoms: C_22  and  N_23
REMARK                            x       y       z     vdW  Elec       q    Type
REMARK                         _______ _______ _______ _____ _____    ______ ____
ROOT
ATOM      1  C   UNL     1       2.409   6.389  18.745  0.00  0.00    +0.000 A 
ATOM      2  C   UNL     1       2.377   7.246  17.626  0.00  0.00    +0.000 A 
ATOM      3  C   UNL     1       1.954   8.579  17.729  0.00  0.00    +0.000 A 
ATOM      4  C   UNL     1       1.482   9.095  18.944  0.00  0.00    +0.000 A 
ATOM      5  C   UNL     1       1.623   8.272  20.064  0.00  0.00    +0.000 A 
ATOM      6  F   UNL     1       1.206   8.695  21.267  0.00  0.00    +0.000 F 
ATOM      7  C   UNL     1       2.160   6.987  19.980  0.00  0.00    +0.000 A 
ENDROOT
BRANCH   4   8
ATOM      8  C   UNL     1       0.877  10.423  19.025  0.00  0.00    +0.000 A 
ATOM      9  C   UNL     1      -0.479  10.643  19.291  0.00  0.00    +0.000 A 
ATOM     10  N   UNL     1      -1.049  11.871  19.341  0.00  0.00    +0.000 NA
ATOM     11  C   UNL     1      -0.226  12.912  19.123  0.00  0.00    +0.000 A 
ATOM     12  C   UNL     1       1.135  12.707  18.841  0.00  0.00    +0.000 A 
ATOM     13 BR   UNL     1       2.303  14.182  18.557  0.00  0.00    +0.000 Br
ATOM     14  N   UNL     1       1.701  11.476  18.781  0.00  0.00    +0.000 NA
BRANCH  11  15
ATOM     15  N   UNL     1      -0.843  14.161  19.151  0.00  0.00    +0.000 N 
ATOM     16  H   UNL     1      -0.174  14.836  18.811  0.00  0.00    +0.000 HD
ATOM     17  H   UNL     1      -1.714  14.165  18.622  0.00  0.00    +0.000 HD
ENDBRANCH  11  15
ENDBRANCH   4   8
BRANCH   1  23
ATOM     18  C   UNL     1       3.946   4.296  18.553  0.00  0.00    +0.000 A 
ATOM     19  C   UNL     1       4.025   2.888  18.400  0.00  0.00    +0.000 A 
ATOM     20  C   UNL     1       2.886   2.089  18.374  0.00  0.00    +0.000 A 
ATOM     21  C   UNL     1       1.643   2.681  18.491  0.00  0.00    +0.000 A 
ATOM     22  C   UNL     1       1.544   4.072  18.588  0.00  0.00    +0.000 A 
ATOM     23  C   UNL     1       2.678   4.933  18.606  0.00  0.00    +0.000 A 
BRANCH  18  24
ATOM     24  S   UNL     1       5.586   5.070  18.632  0.00  0.00    +0.000 S 
ATOM     25  O   UNL     1       6.295   4.767  19.839  0.00  0.00    +0.000 OA
ATOM     26  O   UNL     1       5.374   6.451  18.246  0.00  0.00    +0.000 OA
BRANCH  24  27
ATOM     27  N   UNL     1       6.432   4.372  17.342  0.00  0.00    +0.000 NA
ATOM     28  H   UNL     1       7.392   4.158  17.608  0.00  0.00    +0.000 HD
BRANCH  27  30
ATOM     29  C   UNL     1       7.558   5.044  15.247  0.00  0.00    +0.000 C 
ATOM     30  C   UNL     1       6.225   4.717  15.913  0.00  0.00    +0.000 C 
ATOM     31  C   UNL     1       5.212   5.851  15.715  0.00  0.00    +0.000 C 
ATOM     32  C   UNL     1       5.637   3.466  15.232  0.00  0.00    +0.000 C 
ENDBRANCH  27  30
ENDBRANCH  24  27
ENDBRANCH  18  24
ENDBRANCH   1  23
TORSDOF 6
ENDMDL
MODEL 5
REMARK VINA RESULT:      -8.1      1.204      1.657
REMARK  Name = 
REMARK  9 active torsions:
REMARK  status: ('A' for Active; 'I' for Inactive)
REMARK    1  A    between atoms: C_1  and  C_2
REMARK    2  A    between atoms: C_2  and  C_3
REMARK    3  A    between atoms: C_2  and  C_4
REMARK    4  A    between atoms: C_2  and  N_5
REMARK    5  A    between atoms: N_5  and  S_6
REMARK    6  A    between atoms: S_6  and  C_9
REMARK    7  A    between atoms: C_14  and  C_15
REMARK    8  A    between atoms: C_18  and  C_19
REMARK    9  A    between atoms: C_22  and  N_23
REMARK                            x       y       z     vdW  Elec       q    Type
REMARK                         _______ _______ _______ _____ _____    ______ ____
ROOT
ATOM      1  C   UNL     1       2.034   6.679  19.272  0.00  0.00    +0.000 A 
ATOM      2  C   UNL     1       2.088   7.360  18.039  0.00  0.00    +0.000 A 
ATOM      3  C   UNL     1       1.794   8.729  17.938  0.00  0.00    +0.000 A 
ATOM      4  C   UNL     1       1.370   9.460  19.055  0.00  0.00    +0.000 A 
ATOM      5  C   UNL     1       1.426   8.801  20.287  0.00  0.00    +0.000 A 
ATOM      6  F   UNL     1       1.046   9.435  21.407  0.00  0.00    +0.000 F 
ATOM      7  C   UNL     1       1.838   7.473  20.401  0.00  0.00    +0.000 A 
ENDROOT
BRANCH   4   8
ATOM      8  C   UNL     1       0.894  10.836  18.931  0.00  0.00    +0.000 A 
ATOM      9  C   UNL     1      -0.455  11.199  18.994  0.00  0.00    +0.000 A 
ATOM     10  N   UNL     1      -0.903  12.471  18.851  0.00  0.00    +0.000 NA
ATOM     11  C   UNL     1       0.040  13.407  18.647  0.00  0.00    +0.000 A 
ATOM     12  C   UNL     1       1.398  13.057  18.567  0.00  0.00    +0.000 A 
ATOM     13 BR   UNL     1       2.733  14.386  18.301  0.00  0.00    +0.000 Br
ATOM     14  N   UNL     1       1.842  11.782  18.699  0.00  0.00    +0.000 NA
BRANCH  11  15
ATOM     15  N   UNL     1      -0.449  14.701  18.475  0.00  0.00    +0.000 N 
ATOM     16  H   UNL     1      -0.160  15.014  17.560  0.00  0.00    +0.000 HD
ATOM     17  H   UNL     1      -1.458  14.745  18.608  0.00  0.00    +0.000 HD
ENDBRANCH  11  15
ENDBRANCH   4   8
BRANCH   1  23
ATOM     18  C   UNL     1       3.139   4.388  18.717  0.00  0.00    +0.000 A 
ATOM     19  C   UNL     1       3.108   2.979  18.887  0.00  0.00    +0.000 A 
ATOM     20  C   UNL     1       2.186   2.363  19.727  0.00  0.00    +0.000 A 
ATOM     21  C   UNL     1       1.268   3.140  20.408  0.00  0.00    +0.000 A 
ATOM     22  C   UNL     1       1.249   4.524  20.210  0.00  0.00    +0.000 A 
ATOM     23  C   UNL     1       2.163   5.199  19.352  0.00  0.00    +0.000 A 
BRANCH  18  24
ATOM     24  S   UNL     1       4.492   4.918  17.629  0.00  0.00    +0.000 S 
ATOM     25  O   UNL     1       4.155   6.053  16.822  0.00  0.00    +0.000 OA
ATOM     26  O   UNL     1       4.973   3.703  17.001  0.00  0.00    +0.000 OA
BRANCH  24  27
ATOM     27  N   UNL     1       5.720   5.383  18.698  0.00  0.00    +0.000 NA
ATOM     28  H   UNL     1       5.350   5.971  19.444  0.00  0.00    +0.000 HD
BRANCH  27  30
ATOM     29  C   UNL     1       7.218   7.001  17.583  0.00  0.00    +0.000 C 
ATOM     30  C   UNL     1       7.123   5.659  18.301  0.00  0.00    +0.000 C 
ATOM     31  C   UNL     1       7.736   4.533  17.459  0.00  0.00    +0.000 C 
ATOM     32  C   UNL     1       7.946   5.745  19.602  0.00  0.00    +0.000 C 
ENDBRANCH  27  30
ENDBRANCH  24  27
ENDBRANCH  18  24
ENDBRANCH   1  23
TORSDOF 6
ENDMDL
MODEL 6
REMARK VINA RESULT:      -8.0      1.654      1.922
REMARK  Name = 
REMARK  9 active torsions:
REMARK  status: ('A' for Active; 'I' for Inactive)
REMARK    1  A    between atoms: C_1  and  C_2
REMARK    2  A    between atoms: C_2  and  C_3
REMARK    3  A    between atoms: C_2  and  C_4
REMARK    4  A    between atoms: C_2  and  N_5
REMARK    5  A    between atoms: N_5  and  S_6
REMARK    6  A    between atoms: S_6  and  C_9
REMARK    7  A    between atoms: C_14  and  C_15
REMARK    8  A    between atoms: C_18  and  C_19
REMARK    9  A    between atoms: C_22  and  N_23
REMARK                            x       y       z     vdW  Elec       q    Type
REMARK                         _______ _______ _______ _____ _____    ______ ____
ROOT
ATOM      1  C   UNL     1       2.425   6.386  18.830  0.00  0.00    +0.000 A 
ATOM      2  C   UNL     1       2.386   7.207  17.684  0.00  0.00    +0.000 A 
ATOM      3  C   UNL     1       1.928   8.532  17.740  0.00  0.00    +0.000 A 
ATOM      4  C   UNL     1       1.429   9.073  18.933  0.00  0.00    +0.000 A 
ATOM      5  C   UNL     1       1.576   8.289  20.080  0.00  0.00    +0.000 A 
ATOM      6  F   UNL     1       1.133   8.738  21.264  0.00  0.00    +0.000 F 
ATOM      7  C   UNL     1       2.146   7.016  20.042  0.00  0.00    +0.000 A 
ENDROOT
BRANCH   4   8
ATOM      8  C   UNL     1       0.790  10.387  18.965  0.00  0.00    +0.000 A 
ATOM      9  C   UNL     1       1.478  11.577  19.228  0.00  0.00    +0.000 A 
ATOM     10  N   UNL     1       0.885  12.795  19.287  0.00  0.00    +0.000 NA
ATOM     11  C   UNL     1      -0.441  12.815  19.065  0.00  0.00    +0.000 A 
ATOM     12  C   UNL     1      -1.148  11.627  18.814  0.00  0.00    +0.000 A 
ATOM     13 BR   UNL     1      -3.020  11.661  18.477  0.00  0.00    +0.000 Br
ATOM     14  N   UNL     1      -0.554  10.409  18.767  0.00  0.00    +0.000 NA
BRANCH  11  15
ATOM     15  N   UNL     1      -1.030  14.075  19.160  0.00  0.00    +0.000 N 
ATOM     16  H   UNL     1      -0.662  14.637  18.406  0.00  0.00    +0.000 HD
ATOM     17  H   UNL     1      -2.047  14.019  19.152  0.00  0.00    +0.000 HD
ENDBRANCH  11  15
ENDBRANCH   4   8
BRANCH   1  23
ATOM     18  C   UNL     1       4.016   4.332  18.659  0.00  0.00    +0.000 A 
ATOM     19  C   UNL     1       4.131   2.921  18.561  0.00  0.00    +0.000 A 
ATOM     20  C   UNL     1       3.017   2.090  18.616  0.00  0.00    +0.000 A 
ATOM     21  C   UNL     1       1.762   2.650  18.760  0.00  0.00    +0.000 A 
ATOM     22  C   UNL     1       1.625   4.041  18.804  0.00  0.00    +0.000 A 
ATOM     23  C   UNL     1       2.732   4.934  18.739  0.00  0.00    +0.000 A 
BRANCH  18  24
ATOM     24  S   UNL     1       5.634   5.155  18.637  0.00  0.00    +0.000 S 
ATOM     25  O   UNL     1       6.388   4.948  19.838  0.00  0.00    +0.000 OA
ATOM     26  O   UNL     1       5.369   6.503  18.174  0.00  0.00    +0.000 OA
BRANCH  24  27
ATOM     27  N   UNL     1       6.460   4.402  17.366  0.00  0.00    +0.000 NA
ATOM     28  H   UNL     1       7.425   4.200  17.627  0.00  0.00    +0.000 HD
BRANCH  27  30
ATOM     29  C   UNL     1       7.548   5.015  15.234  0.00  0.00    +0.000 C 
ATOM     30  C   UNL     1       6.231   4.684  15.927  0.00  0.00    +0.000 C 
ATOM     31  C   UNL     1       5.188   5.784  15.695  0.00  0.00    +0.000 C 
ATOM     32  C   UNL     1       5.666   3.392  15.304  0.00  0.00    +0.000 C 
ENDBRANCH  27  30
ENDBRANCH  24  27
ENDBRANCH  18  24
ENDBRANCH   1  23
TORSDOF 6
ENDMDL
MODEL 7
REMARK VINA RESULT:      -8.0      2.644      4.387
REMARK  Name = 
REMARK  9 active torsions:
REMARK  status: ('A' for Active; 'I' for Inactive)
REMARK    1  A    between atoms: C_1  and  C_2
REMARK    2  A    between atoms: C_2  and  C_3
REMARK    3  A    between atoms: C_2  and  C_4
REMARK    4  A    between atoms: C_2  and  N_5
REMARK    5  A    between atoms: N_5  and  S_6
REMARK    6  A    between atoms: S_6  and  C_9
REMARK    7  A    between atoms: C_14  and  C_15
REMARK    8  A    between atoms: C_18  and  C_19
REMARK    9  A    between atoms: C_22  and  N_23
REMARK                            x       y       z     vdW  Elec       q    Type
REMARK                         _______ _______ _______ _____ _____    ______ ____
ROOT
ATOM      1  C   UNL     1       2.690   7.154  18.483  0.00  0.00    +0.000 A 
ATOM      2  C   UNL     1       2.310   6.844  19.805  0.00  0.00    +0.000 A 
ATOM      3  C   UNL     1       1.502   7.706  20.561  0.00  0.00    +0.000 A 
ATOM      4  C   UNL     1       1.094   8.946  20.052  0.00  0.00    +0.000 A 
ATOM      5  C   UNL     1       1.385   9.191  18.707  0.00  0.00    +0.000 A 
ATOM      6  F   UNL     1       1.019  10.350  18.139  0.00  0.00    +0.000 F 
ATOM      7  C   UNL     1       2.083   8.275  17.918  0.00  0.00    +0.000 A 
ENDROOT
BRANCH   4   8
ATOM      8  C   UNL     1       0.403   9.925  20.888  0.00  0.00    +0.000 A 
ATOM      9  C   UNL     1       0.486   9.947  22.285  0.00  0.00    +0.000 A 
ATOM     10  N   UNL     1      -0.176  10.836  23.066  0.00  0.00    +0.000 NA
ATOM     11  C   UNL     1      -0.938  11.735  22.420  0.00  0.00    +0.000 A 
ATOM     12  C   UNL     1      -1.043  11.716  21.019  0.00  0.00    +0.000 A 
ATOM     13 BR   UNL     1      -2.103  13.005  20.104  0.00  0.00    +0.000 Br
ATOM     14  N   UNL     1      -0.388  10.819  20.240  0.00  0.00    +0.000 NA
BRANCH  11  15
ATOM     15  N   UNL     1      -1.628  12.618  23.248  0.00  0.00    +0.000 N 
ATOM     16  H   UNL     1      -2.451  12.137  23.583  0.00  0.00    +0.000 HD
ATOM     17  H   UNL     1      -1.040  12.968  24.002  0.00  0.00    +0.000 HD
ENDBRANCH  11  15
ENDBRANCH   4   8
BRANCH   1  23
ATOM     18  C   UNL     1       3.569   4.977  17.356  0.00  0.00    +0.000 A 
ATOM     19  C   UNL     1       4.634   4.339  16.669  0.00  0.00    +0.000 A 
ATOM     20  C   UNL     1       5.782   5.030  16.295  0.00  0.00    +0.000 A 
ATOM     21  C   UNL     1       5.896   6.372  16.607  0.00  0.00    +0.000 A 
ATOM     22  C   UNL     1       4.879   7.003  17.331  0.00  0.00    +0.000 A 
ATOM     23  C   UNL     1       3.692   6.336  17.747  0.00  0.00    +0.000 A 
BRANCH  18  24
ATOM     24  S   UNL     1       2.171   3.856  17.645  0.00  0.00    +0.000 S 
ATOM     25  O   UNL     1       2.430   2.511  17.223  0.00  0.00    +0.000 OA
ATOM     26  O   UNL     1       1.008   4.560  17.141  0.00  0.00    +0.000 OA
BRANCH  24  27
ATOM     27  N   UNL     1       1.991   3.849  19.329  0.00  0.00    +0.000 NA
ATOM     28  H   UNL     1       2.148   4.779  19.716  0.00  0.00    +0.000 HD
BRANCH  27  30
ATOM     29  C   UNL     1       1.715   1.426  19.723  0.00  0.00    +0.000 C 
ATOM     30  C   UNL     1       2.364   2.716  20.212  0.00  0.00    +0.000 C 
ATOM     31  C   UNL     1       2.039   2.979  21.687  0.00  0.00    +0.000 C 
ATOM     32  C   UNL     1       3.894   2.557  20.111  0.00  0.00    +0.000 C 
ENDBRANCH  27  30
ENDBRANCH  24  27
ENDBRANCH  18  24
ENDBRANCH   1  23
TORSDOF 6
ENDMDL
MODEL 8
REMARK VINA RESULT:      -7.9      4.270      8.823
REMARK  Name = 
REMARK  9 active torsions:
REMARK  status: ('A' for Active; 'I' for Inactive)
REMARK    1  A    between atoms: C_1  and  C_2
REMARK    2  A    between atoms: C_2  and  C_3
REMARK    3  A    between atoms: C_2  and  C_4
REMARK    4  A    between atoms: C_2  and  N_5
REMARK    5  A    between atoms: N_5  and  S_6
REMARK    6  A    between atoms: S_6  and  C_9
REMARK    7  A    between atoms: C_14  and  C_15
REMARK    8  A    between atoms: C_18  and  C_19
REMARK    9  A    between atoms: C_22  and  N_23
REMARK                            x       y       z     vdW  Elec       q    Type
REMARK                         _______ _______ _______ _____ _____    ______ ____
ROOT
ATOM      1  C   UNL     1       1.356  10.227  18.915  0.00  0.00    +0.000 A 
ATOM      2  C   UNL     1       1.876   9.522  17.810  0.00  0.00    +0.000 A 
ATOM      3  C   UNL     1       2.310   8.192  17.921  0.00  0.00    +0.000 A 
ATOM      4  C   UNL     1       2.304   7.531  19.157  0.00  0.00    +0.000 A 
ATOM      5  C   UNL     1       1.686   8.201  20.216  0.00  0.00    +0.000 A 
ATOM      6  F   UNL     1       1.628   7.633  21.430  0.00  0.00    +0.000 F 
ATOM      7  C   UNL     1       1.142   9.479  20.072  0.00  0.00    +0.000 A 
ENDROOT
BRANCH   4   8
ATOM      8  C   UNL     1       2.913   6.213  19.320  0.00  0.00    +0.000 A 
ATOM      9  C   UNL     1       4.155   5.861  18.781  0.00  0.00    +0.000 A 
ATOM     10  N   UNL     1       4.711   4.631  18.907  0.00  0.00    +0.000 NA
ATOM     11  C   UNL     1       3.997   3.730  19.605  0.00  0.00    +0.000 A 
ATOM     12  C   UNL     1       2.741   4.064  20.139  0.00  0.00    +0.000 A 
ATOM     13 BR   UNL     1       1.743   2.796  21.146  0.00  0.00    +0.000 Br
ATOM     14  N   UNL     1       2.183   5.293  20.003  0.00  0.00    +0.000 NA
BRANCH  11  15
ATOM     15  N   UNL     1       4.578   2.467  19.694  0.00  0.00    +0.000 N 
ATOM     16  H   UNL     1       4.307   1.951  18.869  0.00  0.00    +0.000 HD
ATOM     17  H   UNL     1       5.588   2.522  19.812  0.00  0.00    +0.000 HD
ENDBRANCH  11  15
ENDBRANCH   4   8
BRANCH   1  23
ATOM     18  C   UNL     1      -0.206  12.307  18.792  0.00  0.00    +0.000 A 
ATOM     19  C   UNL     1      -0.300  13.720  18.712  0.00  0.00    +0.000 A 
ATOM     20  C   UNL     1       0.827  14.534  18.759  0.00  0.00    +0.000 A 
ATOM     21  C   UNL     1       2.075  13.953  18.879  0.00  0.00    +0.000 A 
ATOM     22  C   UNL     1       2.191  12.560  18.904  0.00  0.00    +0.000 A 
ATOM     23  C   UNL     1       1.070  11.685  18.846  0.00  0.00    +0.000 A 
BRANCH  18  24
ATOM     24  S   UNL     1      -1.836  11.508  18.785  0.00  0.00    +0.000 S 
ATOM     25  O   UNL     1      -2.761  12.108  19.700  0.00  0.00    +0.000 OA
ATOM     26  O   UNL     1      -1.563  10.087  18.861  0.00  0.00    +0.000 OA
BRANCH  24  27
ATOM     27  N   UNL     1      -2.413  11.768  17.214  0.00  0.00    +0.000 NA
ATOM     28  H   UNL     1      -2.304  12.745  16.943  0.00  0.00    +0.000 HD
BRANCH  27  30
ATOM     29  C   UNL     1      -3.314  10.774  15.140  0.00  0.00    +0.000 C 
ATOM     30  C   UNL     1      -3.572  11.061  16.615  0.00  0.00    +0.000 C 
ATOM     31  C   UNL     1      -4.894  11.813  16.812  0.00  0.00    +0.000 C 
ATOM     32  C   UNL     1      -3.707   9.716  17.356  0.00  0.00    +0.000 C 
ENDBRANCH  27  30
ENDBRANCH  24  27
ENDBRANCH  18  24
ENDBRANCH   1  23
TORSDOF 6
ENDMDL
MODEL 9
REMARK VINA RESULT:      -7.9      1.731      2.191
REMARK  Name = 
REMARK  9 active torsions:
REMARK  status: ('A' for Active; 'I' for Inactive)
REMARK    1  A    between atoms: C_1  and  C_2
REMARK    2  A    between atoms: C_2  and  C_3
REMARK    3  A    between atoms: C_2  and  C_4
REMARK    4  A    between atoms: C_2  and  N_5
REMARK    5  A    between atoms: N_5  and  S_6
REMARK    6  A    between atoms: S_6  and  C_9
REMARK    7  A    between atoms: C_14  and  C_15
REMARK    8  A    between atoms: C_18  and  C_19
REMARK    9  A    between atoms: C_22  and  N_23
REMARK                            x       y       z     vdW  Elec       q    Type
REMARK                         _______ _______ _______ _____ _____    ______ ____
ROOT
ATOM      1  C   UNL     1       2.086   6.582  19.204  0.00  0.00    +0.000 A 
ATOM      2  C   UNL     1       2.053   7.279  17.979  0.00  0.00    +0.000 A 
ATOM      3  C   UNL     1       1.732   8.643  17.914  0.00  0.00    +0.000 A 
ATOM      4  C   UNL     1       1.366   9.354  19.066  0.00  0.00    +0.000 A 
ATOM      5  C   UNL     1       1.510   8.682  20.283  0.00  0.00    +0.000 A 
ATOM      6  F   UNL     1       1.192   9.296  21.432  0.00  0.00    +0.000 F 
ATOM      7  C   UNL     1       1.950   7.359  20.354  0.00  0.00    +0.000 A 
ENDROOT
BRANCH   4   8
ATOM      8  C   UNL     1       0.863  10.724  18.989  0.00  0.00    +0.000 A 
ATOM      9  C   UNL     1       1.647  11.818  18.605  0.00  0.00    +0.000 A 
ATOM     10  N   UNL     1       1.191  13.094  18.559  0.00  0.00    +0.000 NA
ATOM     11  C   UNL     1      -0.097  13.272  18.901  0.00  0.00    +0.000 A 
ATOM     12  C   UNL     1      -0.892  12.186  19.302  0.00  0.00    +0.000 A 
ATOM     13 BR   UNL     1      -2.721  12.436  19.763  0.00  0.00    +0.000 Br
ATOM     14  N   UNL     1      -0.431  10.912  19.358  0.00  0.00    +0.000 NA
BRANCH  11  15
ATOM     15  N   UNL     1      -0.531  14.596  18.873  0.00  0.00    +0.000 N 
ATOM     16  H   UNL     1      -1.129  14.735  19.675  0.00  0.00    +0.000 HD
ATOM     17  H   UNL     1       0.250  15.249  18.843  0.00  0.00    +0.000 HD
ENDBRANCH  11  15
ENDBRANCH   4   8
BRANCH   1  23
ATOM     18  C   UNL     1       3.247   4.325  18.624  0.00  0.00    +0.000 A 
ATOM     19  C   UNL     1       3.241   2.913  18.765  0.00  0.00    +0.000 A 
ATOM     20  C   UNL     1       2.316   2.262  19.575  0.00  0.00    +0.000 A 
ATOM     21  C   UNL     1       1.371   3.006  20.255  0.00  0.00    +0.000 A 
ATOM     22  C   UNL     1       1.328   4.393  20.085  0.00  0.00    +0.000 A 
ATOM     23  C   UNL     1       2.243   5.104  19.257  0.00  0.00    +0.000 A 
BRANCH  18  24
ATOM     24  S   UNL     1       4.609   4.903  17.572  0.00  0.00    +0.000 S 
ATOM     25  O   UNL     1       4.245   6.009  16.737  0.00  0.00    +0.000 OA
ATOM     26  O   UNL     1       5.168   3.704  16.980  0.00  0.00    +0.000 OA
BRANCH  24  27
ATOM     27  N   UNL     1       5.777   5.443  18.673  0.00  0.00    +0.000 NA
ATOM     28  H   UNL     1       5.372   6.097  19.342  0.00  0.00    +0.000 HD
BRANCH  27  30
ATOM     29  C   UNL     1       7.386   7.001  17.630  0.00  0.00    +0.000 C 
ATOM     30  C   UNL     1       7.207   5.665  18.343  0.00  0.00    +0.000 C 
ATOM     31  C   UNL     1       7.816   4.515  17.532  0.00  0.00    +0.000 C 
ATOM     32  C   UNL     1       7.969   5.723  19.681  0.00  0.00    +0.000 C 
ENDBRANCH  27  30
ENDBRANCH  24  27
ENDBRANCH  18  24
ENDBRANCH   1  23
TORSDOF 6
ENDMDL
