MODEL 1
REMARK VINA RESULT:      -7.2      0.000      0.000
REMARK  Name = 
REMARK  12 active torsions:
REMARK  status: ('A' for Active; 'I' for Inactive)
REMARK    1  A    between atoms: C_1  and  C_2
REMARK    2  A    between atoms: N_4  and  C_5
REMARK    3  A    between atoms: C_5  and  C_6
REMARK    4  A    between atoms: C_5  and  C_10
REMARK    5  A    between atoms: C_6  and  C_7
REMARK    6  A    between atoms: C_7  and  C_8
REMARK    7  A    between atoms: C_7  and  C_9
REMARK    8  A    between atoms: N_12  and  C_13
REMARK    9  A    between atoms: C_13  and  C_14
REMARK   10  A    between atoms: C_13  and  C_21
REMARK   11  A    between atoms: C_14  and  C_15
REMARK   12  A    between atoms: C_21  and  C_23
REMARK                            x       y       z     vdW  Elec       q    Type
REMARK                         _______ _______ _______ _____ _____    ______ ____
ROOT
ATOM      1  C   UNL     1       3.518   4.683  17.796  0.00  0.00    +0.000 C 
ATOM      2  O   UNL     1       3.186   3.812  16.990  0.00  0.00    +0.000 OA
ATOM      3  N   UNL     1       4.753   5.286  17.760  0.00  0.00    +0.000 N 
ATOM      4  H   UNL     1       4.976   6.054  18.387  0.00  0.00    +0.000 HD
ENDROOT
BRANCH   1   5
ATOM      5  C   UNL     1       2.588   5.134  18.950  0.00  0.00    +0.000 C 
BRANCH   5   9
ATOM      6  C   UNL     1       2.375   2.519  21.733  0.00  0.00    +0.000 C 
ATOM      7  C   UNL     1       1.897   3.349  20.575  0.00  0.00    +0.000 C 
ATOM      8  O   UNL     1       0.754   3.245  20.137  0.00  0.00    +0.000 OA
ATOM      9  N   UNL     1       2.833   4.219  20.073  0.00  0.00    +0.000 N 
ATOM     10  H   UNL     1       3.810   4.069  20.309  0.00  0.00    +0.000 HD
ENDBRANCH   5   9
BRANCH   5  11
ATOM     11  C   UNL     1       2.959   6.585  19.303  0.00  0.00    +0.000 C 
BRANCH  11  12
ATOM     12  C   UNL     1       1.971   7.679  18.874  0.00  0.00    +0.000 C 
ATOM     13  C   UNL     1       1.589   8.526  20.095  0.00  0.00    +0.000 C 
ATOM     14  C   UNL     1       2.553   8.589  17.793  0.00  0.00    +0.000 C 
ENDBRANCH  11  12
ENDBRANCH   5  11
ENDBRANCH   1   5
BRANCH   3  15
ATOM     15  C   UNL     1       5.803   4.885  16.830  0.00  0.00    +0.000 C 
BRANCH  15  16
ATOM     16  C   UNL     1       7.139   4.879  17.589  0.00  0.00    +0.000 C 
ATOM     17  O   UNL     1       8.093   4.193  17.208  0.00  0.00    +0.000 OA
BRANCH  16  18
ATOM     18  C   UNL     1       7.255   5.787  18.789  0.00  0.00    +0.000 C 
ATOM     19 CL   UNL     1       7.993   7.310  18.267  0.00  0.00    +0.000 Cl
ENDBRANCH  16  18
ENDBRANCH  15  16
BRANCH  15  20
ATOM     20  C   UNL     1       5.876   5.738  15.552  0.00  0.00    +0.000 C 
BRANCH  20  21
ATOM     21  C   UNL     1       6.174   4.972  14.287  0.00  0.00    +0.000 A 
ATOM     22  C   UNL     1       7.376   5.190  13.595  0.00  0.00    +0.000 A 
ATOM     23  C   UNL     1       7.665   4.465  12.440  0.00  0.00    +0.000 A 
ATOM     24  C   UNL     1       6.762   3.516  11.961  0.00  0.00    +0.000 A 
ATOM     25  C   UNL     1       5.561   3.303  12.634  0.00  0.00    +0.000 A 
ATOM     26  C   UNL     1       5.266   4.027  13.788  0.00  0.00    +0.000 A 
ENDBRANCH  20  21
ENDBRANCH  15  20
ENDBRANCH   3  15
TORSDOF 9
ENDMDL
MODEL 2
REMARK VINA RESULT:      -7.1      2.464      6.926
REMARK  Name = 
REMARK  12 active torsions:
REMARK  status: ('A' for Active; 'I' for Inactive)
REMARK    1  A    between atoms: C_1  and  C_2
REMARK    2  A    between atoms: N_4  and  C_5
REMARK    3  A    between atoms: C_5  and  C_6
REMARK    4  A    between atoms: C_5  and  C_10
REMARK    5  A    between atoms: C_6  and  C_7
REMARK    6  A    between atoms: C_7  and  C_8
REMARK    7  A    between atoms: C_7  and  C_9
REMARK    8  A    between atoms: N_12  and  C_13
REMARK    9  A    between atoms: C_13  and  C_14
REMARK   10  A    between atoms: C_13  and  C_21
REMARK   11  A    between atoms: C_14  and  C_15
REMARK   12  A    between atoms: C_21  and  C_23
REMARK                            x       y       z     vdW  Elec       q    Type
REMARK                         _______ _______ _______ _____ _____    ______ ____
ROOT
ATOM      1  C   UNL     1       4.066   5.528  17.454  0.00  0.00    +0.000 C 
ATOM      2  O   UNL     1       3.243   4.655  17.176  0.00  0.00    +0.000 OA
ATOM      3  N   UNL     1       3.737   6.640  18.193  0.00  0.00    +0.000 N 
ATOM      4  H   UNL     1       4.450   7.307  18.475  0.00  0.00    +0.000 HD
ENDROOT
BRANCH   1   5
ATOM      5  C   UNL     1       5.530   5.469  16.952  0.00  0.00    +0.000 C 
BRANCH   5   9
ATOM      6  C   UNL     1       6.314   3.946  13.533  0.00  0.00    +0.000 C 
ATOM      7  C   UNL     1       6.603   4.491  14.904  0.00  0.00    +0.000 C 
ATOM      8  O   UNL     1       7.749   4.565  15.339  0.00  0.00    +0.000 OA
ATOM      9  N   UNL     1       5.491   4.897  15.601  0.00  0.00    +0.000 N 
ATOM     10  H   UNL     1       4.580   4.573  15.290  0.00  0.00    +0.000 HD
ENDBRANCH   5   9
BRANCH   5  11
ATOM     11  C   UNL     1       6.078   6.908  16.950  0.00  0.00    +0.000 C 
BRANCH  11  12
ATOM     12  C   UNL     1       7.054   7.283  18.073  0.00  0.00    +0.000 C 
ATOM     13  C   UNL     1       7.840   6.035  18.499  0.00  0.00    +0.000 C 
ATOM     14  C   UNL     1       8.035   8.372  17.644  0.00  0.00    +0.000 C 
ENDBRANCH  11  12
ENDBRANCH   5  11
ENDBRANCH   1   5
BRANCH   3  15
ATOM     15  C   UNL     1       2.374   6.927  18.627  0.00  0.00    +0.000 C 
BRANCH  15  16
ATOM     16  C   UNL     1       2.072   8.401  18.315  0.00  0.00    +0.000 C 
ATOM     17  O   UNL     1       2.375   8.905  17.228  0.00  0.00    +0.000 OA
BRANCH  16  18
ATOM     18  C   UNL     1       1.345   9.194  19.373  0.00  0.00    +0.000 C 
ATOM     19 CL   UNL     1      -0.093   9.920  18.636  0.00  0.00    +0.000 Cl
ENDBRANCH  16  18
ENDBRANCH  15  16
BRANCH  15  20
ATOM     20  C   UNL     1       2.095   6.587  20.101  0.00  0.00    +0.000 C 
BRANCH  20  21
ATOM     21  C   UNL     1       1.872   5.123  20.388  0.00  0.00    +0.000 A 
ATOM     22  C   UNL     1       0.973   4.378  19.607  0.00  0.00    +0.000 A 
ATOM     23  C   UNL     1       0.784   3.019  19.854  0.00  0.00    +0.000 A 
ATOM     24  C   UNL     1       1.486   2.387  20.880  0.00  0.00    +0.000 A 
ATOM     25  C   UNL     1       2.370   3.121  21.668  0.00  0.00    +0.000 A 
ATOM     26  C   UNL     1       2.561   4.481  21.426  0.00  0.00    +0.000 A 
ENDBRANCH  20  21
ENDBRANCH  15  20
ENDBRANCH   3  15
TORSDOF 9
ENDMDL
MODEL 3
REMARK VINA RESULT:      -7.0      2.312      6.808
REMARK  Name = 
REMARK  12 active torsions:
REMARK  status: ('A' for Active; 'I' for Inactive)
REMARK    1  A    between atoms: C_1  and  C_2
REMARK    2  A    between atoms: N_4  and  C_5
REMARK    3  A    between atoms: C_5  and  C_6
REMARK    4  A    between atoms: C_5  and  C_10
REMARK    5  A    between atoms: C_6  and  C_7
REMARK    6  A    between atoms: C_7  and  C_8
REMARK    7  A    between atoms: C_7  and  C_9
REMARK    8  A    between atoms: N_12  and  C_13
REMARK    9  A    between atoms: C_13  and  C_14
REMARK   10  A    between atoms: C_13  and  C_21
REMARK   11  A    between atoms: C_14  and  C_15
REMARK   12  A    between atoms: C_21  and  C_23
REMARK                            x       y       z     vdW  Elec       q    Type
REMARK                         _______ _______ _______ _____ _____    ______ ____
ROOT
ATOM      1  C   UNL     1       3.957   5.624  17.757  0.00  0.00    +0.000 C 
ATOM      2  O   UNL     1       3.138   4.808  17.331  0.00  0.00    +0.000 OA
ATOM      3  N   UNL     1       3.608   6.631  18.624  0.00  0.00    +0.000 N 
ATOM      4  H   UNL     1       4.315   7.245  19.022  0.00  0.00    +0.000 HD
ENDROOT
BRANCH   1   5
ATOM      5  C   UNL     1       5.441   5.611  17.310  0.00  0.00    +0.000 C 
BRANCH   5   9
ATOM      6  C   UNL     1       6.360   3.972  13.979  0.00  0.00    +0.000 C 
ATOM      7  C   UNL     1       6.569   4.460  15.385  0.00  0.00    +0.000 C 
ATOM      8  O   UNL     1       7.649   4.332  15.957  0.00  0.00    +0.000 OA
ATOM      9  N   UNL     1       5.468   5.053  15.952  0.00  0.00    +0.000 N 
ATOM     10  H   UNL     1       4.559   4.894  15.527  0.00  0.00    +0.000 HD
ENDBRANCH   5   9
BRANCH   5  11
ATOM     11  C   UNL     1       5.947   7.064  17.342  0.00  0.00    +0.000 C 
BRANCH  11  12
ATOM     12  C   UNL     1       7.454   7.272  17.549  0.00  0.00    +0.000 C 
ATOM     13  C   UNL     1       7.734   8.763  17.779  0.00  0.00    +0.000 C 
ATOM     14  C   UNL     1       7.989   6.471  18.735  0.00  0.00    +0.000 C 
ENDBRANCH  11  12
ENDBRANCH   5  11
ENDBRANCH   1   5
BRANCH   3  15
ATOM     15  C   UNL     1       2.232   6.878  19.039  0.00  0.00    +0.000 C 
BRANCH  15  16
ATOM     16  C   UNL     1       1.956   8.385  18.917  0.00  0.00    +0.000 C 
ATOM     17  O   UNL     1       1.368   9.006  19.808  0.00  0.00    +0.000 OA
BRANCH  16  18
ATOM     18  C   UNL     1       2.480   9.083  17.686  0.00  0.00    +0.000 C 
ATOM     19 CL   UNL     1       2.268  10.829  17.902  0.00  0.00    +0.000 Cl
ENDBRANCH  16  18
ENDBRANCH  15  16
BRANCH  15  20
ATOM     20  C   UNL     1       1.889   6.347  20.441  0.00  0.00    +0.000 C 
BRANCH  20  21
ATOM     21  C   UNL     1       1.800   4.845  20.553  0.00  0.00    +0.000 A 
ATOM     22  C   UNL     1       2.554   4.163  21.522  0.00  0.00    +0.000 A 
ATOM     23  C   UNL     1       2.455   2.778  21.645  0.00  0.00    +0.000 A 
ATOM     24  C   UNL     1       1.605   2.057  20.807  0.00  0.00    +0.000 A 
ATOM     25  C   UNL     1       0.863   2.724  19.835  0.00  0.00    +0.000 A 
ATOM     26  C   UNL     1       0.960   4.109  19.707  0.00  0.00    +0.000 A 
ENDBRANCH  20  21
ENDBRANCH  15  20
ENDBRANCH   3  15
TORSDOF 9
ENDMDL
MODEL 4
REMARK VINA RESULT:      -6.9      0.603      1.153
REMARK  Name = 
REMARK  12 active torsions:
REMARK  status: ('A' for Active; 'I' for Inactive)
REMARK    1  A    between atoms: C_1  and  C_2
REMARK    2  A    between atoms: N_4  and  C_5
REMARK    3  A    between atoms: C_5  and  C_6
REMARK    4  A    between atoms: C_5  and  C_10
REMARK    5  A    between atoms: C_6  and  C_7
REMARK    6  A    between atoms: C_7  and  C_8
REMARK    7  A    between atoms: C_7  and  C_9
REMARK    8  A    between atoms: N_12  and  C_13
REMARK    9  A    between atoms: C_13  and  C_14
REMARK   10  A    between atoms: C_13  and  C_21
REMARK   11  A    between atoms: C_14  and  C_15
REMARK   12  A    between atoms: C_21  and  C_23
REMARK                            x       y       z     vdW  Elec       q    Type
REMARK                         _______ _______ _______ _____ _____    ______ ____
ROOT
ATOM      1  C   UNL     1       3.442   4.704  17.613  0.00  0.00    +0.000 C 
ATOM      2  O   UNL     1       3.224   3.607  17.098  0.00  0.00    +0.000 OA
ATOM      3  N   UNL     1       4.612   5.394  17.406  0.00  0.00    +0.000 N 
ATOM      4  H   UNL     1       4.738   6.332  17.780  0.00  0.00    +0.000 HD
ENDROOT
BRANCH   1   5
ATOM      5  C   UNL     1       2.433   5.375  18.579  0.00  0.00    +0.000 C 
BRANCH   5   9
ATOM      6  C   UNL     1       1.852   3.052  21.561  0.00  0.00    +0.000 C 
ATOM      7  C   UNL     1       1.585   3.674  20.219  0.00  0.00    +0.000 C 
ATOM      8  O   UNL     1       0.619   3.343  19.537  0.00  0.00    +0.000 OA
ATOM      9  N   UNL     1       2.496   4.629  19.842  0.00  0.00    +0.000 N 
ATOM     10  H   UNL     1       3.389   4.664  20.325  0.00  0.00    +0.000 HD
ENDBRANCH   5   9
BRANCH   5  11
ATOM     11  C   UNL     1       2.866   6.841  18.757  0.00  0.00    +0.000 C 
BRANCH  11  12
ATOM     12  C   UNL     1       1.758   7.904  18.722  0.00  0.00    +0.000 C 
ATOM     13  C   UNL     1       1.512   8.426  20.144  0.00  0.00    +0.000 C 
ATOM     14  C   UNL     1       2.113   9.076  17.810  0.00  0.00    +0.000 C 
ENDBRANCH  11  12
ENDBRANCH   5  11
ENDBRANCH   1   5
BRANCH   3  15
ATOM     15  C   UNL     1       5.728   4.849  16.641  0.00  0.00    +0.000 C 
BRANCH  15  16
ATOM     16  C   UNL     1       6.927   4.688  17.588  0.00  0.00    +0.000 C 
ATOM     17  O   UNL     1       8.018   4.275  17.182  0.00  0.00    +0.000 OA
BRANCH  16  18
ATOM     18  C   UNL     1       6.731   5.105  19.025  0.00  0.00    +0.000 C 
ATOM     19 CL   UNL     1       8.253   5.785  19.622  0.00  0.00    +0.000 Cl
ENDBRANCH  16  18
ENDBRANCH  15  16
BRANCH  15  20
ATOM     20  C   UNL     1       6.095   5.665  15.390  0.00  0.00    +0.000 C 
BRANCH  20  21
ATOM     21  C   UNL     1       6.270   4.858  14.127  0.00  0.00    +0.000 A 
ATOM     22  C   UNL     1       5.304   3.909  13.756  0.00  0.00    +0.000 A 
ATOM     23  C   UNL     1       5.450   3.180  12.577  0.00  0.00    +0.000 A 
ATOM     24  C   UNL     1       6.558   3.386  11.755  0.00  0.00    +0.000 A 
ATOM     25  C   UNL     1       7.528   4.316  12.123  0.00  0.00    +0.000 A 
ATOM     26  C   UNL     1       7.387   5.046  13.302  0.00  0.00    +0.000 A 
ENDBRANCH  20  21
ENDBRANCH  15  20
ENDBRANCH   3  15
TORSDOF 9
ENDMDL
MODEL 5
REMARK VINA RESULT:      -6.9      1.345      3.110
REMARK  Name = 
REMARK  12 active torsions:
REMARK  status: ('A' for Active; 'I' for Inactive)
REMARK    1  A    between atoms: C_1  and  C_2
REMARK    2  A    between atoms: N_4  and  C_5
REMARK    3  A    between atoms: C_5  and  C_6
REMARK    4  A    between atoms: C_5  and  C_10
REMARK    5  A    between atoms: C_6  and  C_7
REMARK    6  A    between atoms: C_7  and  C_8
REMARK    7  A    between atoms: C_7  and  C_9
REMARK    8  A    between atoms: N_12  and  C_13
REMARK    9  A    between atoms: C_13  and  C_14
REMARK   10  A    between atoms: C_13  and  C_21
REMARK   11  A    between atoms: C_14  and  C_15
REMARK   12  A    between atoms: C_21  and  C_23
REMARK                            x       y       z     vdW  Elec       q    Type
REMARK                         _______ _______ _______ _____ _____    ______ ____
ROOT
ATOM      1  C   UNL     1       3.745   5.321  18.262  0.00  0.00    +0.000 C 
ATOM      2  O   UNL     1       3.173   4.706  17.361  0.00  0.00    +0.000 OA
ATOM      3  N   UNL     1       5.097   5.571  18.238  0.00  0.00    +0.000 N 
ATOM      4  H   UNL     1       5.533   6.146  18.955  0.00  0.00    +0.000 HD
ENDROOT
BRANCH   1   5
ATOM      5  C   UNL     1       2.996   5.820  19.523  0.00  0.00    +0.000 C 
BRANCH   5   9
ATOM      6  C   UNL     1       1.154   9.171  19.447  0.00  0.00    +0.000 C 
ATOM      7  C   UNL     1       1.754   7.935  20.058  0.00  0.00    +0.000 C 
ATOM      8  O   UNL     1       1.695   7.721  21.265  0.00  0.00    +0.000 OA
ATOM      9  N   UNL     1       2.352   7.088  19.157  0.00  0.00    +0.000 N 
ATOM     10  H   UNL     1       2.585   7.447  18.236  0.00  0.00    +0.000 HD
ENDBRANCH   5   9
BRANCH   5  11
ATOM     11  C   UNL     1       1.964   4.743  19.905  0.00  0.00    +0.000 C 
BRANCH  11  12
ATOM     12  C   UNL     1       2.410   3.683  20.921  0.00  0.00    +0.000 C 
ATOM     13  C   UNL     1       1.185   2.891  21.399  0.00  0.00    +0.000 C 
ATOM     14  C   UNL     1       3.436   2.716  20.332  0.00  0.00    +0.000 C 
ENDBRANCH  11  12
ENDBRANCH   5  11
ENDBRANCH   1   5
BRANCH   3  15
ATOM     15  C   UNL     1       5.980   5.053  17.199  0.00  0.00    +0.000 C 
BRANCH  15  16
ATOM     16  C   UNL     1       7.386   4.896  17.799  0.00  0.00    +0.000 C 
ATOM     17  O   UNL     1       8.222   4.142  17.290  0.00  0.00    +0.000 OA
BRANCH  16  18
ATOM     18  C   UNL     1       7.719   5.738  19.006  0.00  0.00    +0.000 C 
ATOM     19 CL   UNL     1       8.171   7.358  18.448  0.00  0.00    +0.000 Cl
ENDBRANCH  16  18
ENDBRANCH  15  16
BRANCH  15  20
ATOM     20  C   UNL     1       6.001   5.892  15.910  0.00  0.00    +0.000 C 
BRANCH  20  21
ATOM     21  C   UNL     1       6.244   5.112  14.642  0.00  0.00    +0.000 A 
ATOM     22  C   UNL     1       5.313   4.152  14.213  0.00  0.00    +0.000 A 
ATOM     23  C   UNL     1       5.522   3.448  13.029  0.00  0.00    +0.000 A 
ATOM     24  C   UNL     1       6.659   3.690  12.258  0.00  0.00    +0.000 A 
ATOM     25  C   UNL     1       7.594   4.632  12.683  0.00  0.00    +0.000 A 
ATOM     26  C   UNL     1       7.390   5.337  13.868  0.00  0.00    +0.000 A 
ENDBRANCH  20  21
ENDBRANCH  15  20
ENDBRANCH   3  15
TORSDOF 9
ENDMDL
MODEL 6
REMARK VINA RESULT:      -6.9      1.231      3.129
REMARK  Name = 
REMARK  12 active torsions:
REMARK  status: ('A' for Active; 'I' for Inactive)
REMARK    1  A    between atoms: C_1  and  C_2
REMARK    2  A    between atoms: N_4  and  C_5
REMARK    3  A    between atoms: C_5  and  C_6
REMARK    4  A    between atoms: C_5  and  C_10
REMARK    5  A    between atoms: C_6  and  C_7
REMARK    6  A    between atoms: C_7  and  C_8
REMARK    7  A    between atoms: C_7  and  C_9
REMARK    8  A    between atoms: N_12  and  C_13
REMARK    9  A    between atoms: C_13  and  C_14
REMARK   10  A    between atoms: C_13  and  C_21
REMARK   11  A    between atoms: C_14  and  C_15
REMARK   12  A    between atoms: C_21  and  C_23
REMARK                            x       y       z     vdW  Elec       q    Type
REMARK                         _______ _______ _______ _____ _____    ______ ____
ROOT
ATOM      1  C   UNL     1       3.691   5.004  18.006  0.00  0.00    +0.000 C 
ATOM      2  O   UNL     1       3.224   4.242  17.158  0.00  0.00    +0.000 OA
ATOM      3  N   UNL     1       4.996   5.433  17.969  0.00  0.00    +0.000 N 
ATOM      4  H   UNL     1       5.337   6.121  18.636  0.00  0.00    +0.000 HD
ENDROOT
BRANCH   1   5
ATOM      5  C   UNL     1       2.858   5.500  19.214  0.00  0.00    +0.000 C 
BRANCH   5   9
ATOM      6  C   UNL     1       1.524   8.780  17.768  0.00  0.00    +0.000 C 
ATOM      7  C   UNL     1       2.556   7.768  18.180  0.00  0.00    +0.000 C 
ATOM      8  O   UNL     1       3.757   7.976  18.031  0.00  0.00    +0.000 OA
ATOM      9  N   UNL     1       2.041   6.621  18.732  0.00  0.00    +0.000 N 
ATOM     10  H   UNL     1       1.057   6.414  18.588  0.00  0.00    +0.000 HD
ENDBRANCH   5   9
BRANCH   5  11
ATOM     11  C   UNL     1       1.990   4.323  19.693  0.00  0.00    +0.000 C 
BRANCH  11  12
ATOM     12  C   UNL     1       2.504   3.526  20.901  0.00  0.00    +0.000 C 
ATOM     13  C   UNL     1       1.338   2.750  21.530  0.00  0.00    +0.000 C 
ATOM     14  C   UNL     1       3.611   2.547  20.515  0.00  0.00    +0.000 C 
ENDBRANCH  11  12
ENDBRANCH   5  11
ENDBRANCH   1   5
BRANCH   3  15
ATOM     15  C   UNL     1       5.960   4.955  16.984  0.00  0.00    +0.000 C 
BRANCH  15  16
ATOM     16  C   UNL     1       7.332   4.850  17.667  0.00  0.00    +0.000 C 
ATOM     17  O   UNL     1       8.217   4.110  17.225  0.00  0.00    +0.000 OA
BRANCH  16  18
ATOM     18  C   UNL     1       7.572   5.728  18.872  0.00  0.00    +0.000 C 
ATOM     19 CL   UNL     1       8.053   7.335  18.304  0.00  0.00    +0.000 Cl
ENDBRANCH  16  18
ENDBRANCH  15  16
BRANCH  15  20
ATOM     20  C   UNL     1       6.025   5.800  15.701  0.00  0.00    +0.000 C 
BRANCH  20  21
ATOM     21  C   UNL     1       6.229   5.016  14.428  0.00  0.00    +0.000 A 
ATOM     22  C   UNL     1       7.388   5.207  13.658  0.00  0.00    +0.000 A 
ATOM     23  C   UNL     1       7.592   4.466  12.496  0.00  0.00    +0.000 A 
ATOM     24  C   UNL     1       6.645   3.528  12.085  0.00  0.00    +0.000 A 
ATOM     25  C   UNL     1       5.485   3.342  12.835  0.00  0.00    +0.000 A 
ATOM     26  C   UNL     1       5.277   4.082  13.998  0.00  0.00    +0.000 A 
ENDBRANCH  20  21
ENDBRANCH  15  20
ENDBRANCH   3  15
TORSDOF 9
ENDMDL
MODEL 7
REMARK VINA RESULT:      -6.9      1.584      2.980
REMARK  Name = 
REMARK  12 active torsions:
REMARK  status: ('A' for Active; 'I' for Inactive)
REMARK    1  A    between atoms: C_1  and  C_2
REMARK    2  A    between atoms: N_4  and  C_5
REMARK    3  A    between atoms: C_5  and  C_6
REMARK    4  A    between atoms: C_5  and  C_10
REMARK    5  A    between atoms: C_6  and  C_7
REMARK    6  A    between atoms: C_7  and  C_8
REMARK    7  A    between atoms: C_7  and  C_9
REMARK    8  A    between atoms: N_12  and  C_13
REMARK    9  A    between atoms: C_13  and  C_14
REMARK   10  A    between atoms: C_13  and  C_21
REMARK   11  A    between atoms: C_14  and  C_15
REMARK   12  A    between atoms: C_21  and  C_23
REMARK                            x       y       z     vdW  Elec       q    Type
REMARK                         _______ _______ _______ _____ _____    ______ ____
ROOT
ATOM      1  C   UNL     1       4.862   4.458  18.831  0.00  0.00    +0.000 C 
ATOM      2  O   UNL     1       5.428   3.449  19.252  0.00  0.00    +0.000 OA
ATOM      3  N   UNL     1       5.297   5.133  17.715  0.00  0.00    +0.000 N 
ATOM      4  H   UNL     1       4.768   5.918  17.342  0.00  0.00    +0.000 HD
ENDROOT
BRANCH   1   5
ATOM      5  C   UNL     1       3.640   5.079  19.553  0.00  0.00    +0.000 C 
BRANCH   5   9
ATOM      6  C   UNL     1       1.944   8.134  17.999  0.00  0.00    +0.000 C 
ATOM      7  C   UNL     1       2.398   7.212  19.096  0.00  0.00    +0.000 C 
ATOM      8  O   UNL     1       2.138   7.438  20.275  0.00  0.00    +0.000 OA
ATOM      9  N   UNL     1       3.105   6.118  18.664  0.00  0.00    +0.000 N 
ATOM     10  H   UNL     1       3.495   6.132  17.726  0.00  0.00    +0.000 HD
ENDBRANCH   5   9
BRANCH   5  11
ATOM     11  C   UNL     1       2.622   3.951  19.795  0.00  0.00    +0.000 C 
BRANCH  11  12
ATOM     12  C   UNL     1       1.758   3.526  18.599  0.00  0.00    +0.000 C 
ATOM     13  C   UNL     1       2.486   2.428  17.811  0.00  0.00    +0.000 C 
ATOM     14  C   UNL     1       0.387   3.008  19.033  0.00  0.00    +0.000 C 
ENDBRANCH  11  12
ENDBRANCH   5  11
ENDBRANCH   1   5
BRANCH   3  15
ATOM     15  C   UNL     1       6.512   4.772  16.994  0.00  0.00    +0.000 C 
BRANCH  15  16
ATOM     16  C   UNL     1       7.695   4.866  17.970  0.00  0.00    +0.000 C 
ATOM     17  O   UNL     1       8.627   4.055  17.932  0.00  0.00    +0.000 OA
BRANCH  16  18
ATOM     18  C   UNL     1       7.697   6.019  18.942  0.00  0.00    +0.000 C 
ATOM     19 CL   UNL     1       7.964   7.516  18.033  0.00  0.00    +0.000 Cl
ENDBRANCH  16  18
ENDBRANCH  15  16
BRANCH  15  20
ATOM     20  C   UNL     1       6.758   5.594  15.717  0.00  0.00    +0.000 C 
BRANCH  20  21
ATOM     21  C   UNL     1       6.515   4.856  14.424  0.00  0.00    +0.000 A 
ATOM     22  C   UNL     1       7.495   4.854  13.417  0.00  0.00    +0.000 A 
ATOM     23  C   UNL     1       7.284   4.152  12.232  0.00  0.00    +0.000 A 
ATOM     24  C   UNL     1       6.098   3.446  12.034  0.00  0.00    +0.000 A 
ATOM     25  C   UNL     1       5.116   3.454  13.022  0.00  0.00    +0.000 A 
ATOM     26  C   UNL     1       5.321   4.156  14.209  0.00  0.00    +0.000 A 
ENDBRANCH  20  21
ENDBRANCH  15  20
ENDBRANCH   3  15
TORSDOF 9
ENDMDL
MODEL 8
REMARK VINA RESULT:      -6.8      2.203      6.830
REMARK  Name = 
REMARK  12 active torsions:
REMARK  status: ('A' for Active; 'I' for Inactive)
REMARK    1  A    between atoms: C_1  and  C_2
REMARK    2  A    between atoms: N_4  and  C_5
REMARK    3  A    between atoms: C_5  and  C_6
REMARK    4  A    between atoms: C_5  and  C_10
REMARK    5  A    between atoms: C_6  and  C_7
REMARK    6  A    between atoms: C_7  and  C_8
REMARK    7  A    between atoms: C_7  and  C_9
REMARK    8  A    between atoms: N_12  and  C_13
REMARK    9  A    between atoms: C_13  and  C_14
REMARK   10  A    between atoms: C_13  and  C_21
REMARK   11  A    between atoms: C_14  and  C_15
REMARK   12  A    between atoms: C_21  and  C_23
REMARK                            x       y       z     vdW  Elec       q    Type
REMARK                         _______ _______ _______ _____ _____    ______ ____
ROOT
ATOM      1  C   UNL     1       4.197   5.182  17.189  0.00  0.00    +0.000 C 
ATOM      2  O   UNL     1       3.334   4.330  16.976  0.00  0.00    +0.000 OA
ATOM      3  N   UNL     1       3.941   6.323  17.913  0.00  0.00    +0.000 N 
ATOM      4  H   UNL     1       4.688   6.974  18.140  0.00  0.00    +0.000 HD
ENDROOT
BRANCH   1   5
ATOM      5  C   UNL     1       5.631   5.063  16.615  0.00  0.00    +0.000 C 
BRANCH   5   9
ATOM      6  C   UNL     1       8.142   5.778  19.410  0.00  0.00    +0.000 C 
ATOM      7  C   UNL     1       7.268   6.079  18.225  0.00  0.00    +0.000 C 
ATOM      8  O   UNL     1       7.229   7.199  17.722  0.00  0.00    +0.000 OA
ATOM      9  N   UNL     1       6.543   5.008  17.764  0.00  0.00    +0.000 N 
ATOM     10  H   UNL     1       6.431   4.202  18.373  0.00  0.00    +0.000 HD
ENDBRANCH   5   9
BRANCH   5  11
ATOM     11  C   UNL     1       5.689   3.775  15.775  0.00  0.00    +0.000 C 
BRANCH  11  12
ATOM     12  C   UNL     1       6.361   3.871  14.398  0.00  0.00    +0.000 C 
ATOM     13  C   UNL     1       5.285   3.844  13.305  0.00  0.00    +0.000 C 
ATOM     14  C   UNL     1       7.195   5.143  14.252  0.00  0.00    +0.000 C 
ENDBRANCH  11  12
ENDBRANCH   5  11
ENDBRANCH   1   5
BRANCH   3  15
ATOM     15  C   UNL     1       2.612   6.665  18.407  0.00  0.00    +0.000 C 
BRANCH  15  16
ATOM     16  C   UNL     1       2.331   8.133  18.050  0.00  0.00    +0.000 C 
ATOM     17  O   UNL     1       2.730   8.625  16.989  0.00  0.00    +0.000 OA
BRANCH  16  18
ATOM     18  C   UNL     1       1.503   8.934  19.025  0.00  0.00    +0.000 C 
ATOM     19 CL   UNL     1       1.503  10.625  18.499  0.00  0.00    +0.000 Cl
ENDBRANCH  16  18
ENDBRANCH  15  16
BRANCH  15  20
ATOM     20  C   UNL     1       2.406   6.394  19.907  0.00  0.00    +0.000 C 
BRANCH  20  21
ATOM     21  C   UNL     1       2.024   4.977  20.255  0.00  0.00    +0.000 A 
ATOM     22  C   UNL     1       2.490   4.391  21.443  0.00  0.00    +0.000 A 
ATOM     23  C   UNL     1       2.117   3.090  21.780  0.00  0.00    +0.000 A 
ATOM     24  C   UNL     1       1.279   2.359  20.939  0.00  0.00    +0.000 A 
ATOM     25  C   UNL     1       0.823   2.928  19.752  0.00  0.00    +0.000 A 
ATOM     26  C   UNL     1       1.194   4.228  19.410  0.00  0.00    +0.000 A 
ENDBRANCH  20  21
ENDBRANCH  15  20
ENDBRANCH   3  15
TORSDOF 9
ENDMDL
MODEL 9
REMARK VINA RESULT:      -6.8      2.396      6.711
REMARK  Name = 
REMARK  12 active torsions:
REMARK  status: ('A' for Active; 'I' for Inactive)
REMARK    1  A    between atoms: C_1  and  C_2
REMARK    2  A    between atoms: N_4  and  C_5
REMARK    3  A    between atoms: C_5  and  C_6
REMARK    4  A    between atoms: C_5  and  C_10
REMARK    5  A    between atoms: C_6  and  C_7
REMARK    6  A    between atoms: C_7  and  C_8
REMARK    7  A    between atoms: C_7  and  C_9
REMARK    8  A    between atoms: N_12  and  C_13
REMARK    9  A    between atoms: C_13  and  C_14
REMARK   10  A    between atoms: C_13  and  C_21
REMARK   11  A    between atoms: C_14  and  C_15
REMARK   12  A    between atoms: C_21  and  C_23
REMARK                            x       y       z     vdW  Elec       q    Type
REMARK                         _______ _______ _______ _____ _____    ______ ____
ROOT
ATOM      1  C   UNL     1       5.487   4.566  18.361  0.00  0.00    +0.000 C 
ATOM      2  O   UNL     1       5.925   4.023  19.377  0.00  0.00    +0.000 OA
ATOM      3  N   UNL     1       4.145   4.791  18.169  0.00  0.00    +0.000 N 
ATOM      4  H   UNL     1       3.815   5.309  17.358  0.00  0.00    +0.000 HD
ENDROOT
BRANCH   1   5
ATOM      5  C   UNL     1       6.411   4.996  17.194  0.00  0.00    +0.000 C 
BRANCH   5   9
ATOM      6  C   UNL     1       5.608   3.917  13.615  0.00  0.00    +0.000 C 
ATOM      7  C   UNL     1       6.403   4.545  14.725  0.00  0.00    +0.000 C 
ATOM      8  O   UNL     1       7.478   5.099  14.513  0.00  0.00    +0.000 OA
ATOM      9  N   UNL     1       5.822   4.449  15.965  0.00  0.00    +0.000 N 
ATOM     10  H   UNL     1       5.080   3.768  16.102  0.00  0.00    +0.000 HD
ENDBRANCH   5   9
BRANCH   5  11
ATOM     11  C   UNL     1       6.449   6.535  17.176  0.00  0.00    +0.000 C 
BRANCH  11  12
ATOM     12  C   UNL     1       7.766   7.203  17.595  0.00  0.00    +0.000 C 
ATOM     13  C   UNL     1       7.568   8.724  17.647  0.00  0.00    +0.000 C 
ATOM     14  C   UNL     1       8.253   6.712  18.958  0.00  0.00    +0.000 C 
ENDBRANCH  11  12
ENDBRANCH   5  11
ENDBRANCH   1   5
BRANCH   3  15
ATOM     15  C   UNL     1       3.122   4.325  19.098  0.00  0.00    +0.000 C 
BRANCH  15  16
ATOM     16  C   UNL     1       1.938   3.788  18.280  0.00  0.00    +0.000 C 
ATOM     17  O   UNL     1       1.892   3.918  17.052  0.00  0.00    +0.000 OA
BRANCH  16  18
ATOM     18  C   UNL     1       0.858   3.050  19.032  0.00  0.00    +0.000 C 
ATOM     19 CL   UNL     1       1.594   2.266  20.439  0.00  0.00    +0.000 Cl
ENDBRANCH  16  18
ENDBRANCH  15  16
BRANCH  15  20
ATOM     20  C   UNL     1       2.674   5.378  20.126  0.00  0.00    +0.000 C 
BRANCH  20  21
ATOM     21  C   UNL     1       2.332   6.730  19.550  0.00  0.00    +0.000 A 
ATOM     22  C   UNL     1       1.609   7.661  20.313  0.00  0.00    +0.000 A 
ATOM     23  C   UNL     1       1.314   8.920  19.794  0.00  0.00    +0.000 A 
ATOM     24  C   UNL     1       1.733   9.267  18.509  0.00  0.00    +0.000 A 
ATOM     25  C   UNL     1       2.439   8.344  17.740  0.00  0.00    +0.000 A 
ATOM     26  C   UNL     1       2.736   7.083  18.255  0.00  0.00    +0.000 A 
ENDBRANCH  20  21
ENDBRANCH  15  20
ENDBRANCH   3  15
TORSDOF 9
ENDMDL
