MODEL 1
REMARK VINA RESULT:      -6.3      0.000      0.000
REMARK  Name = 
REMARK  4 active torsions:
REMARK  status: ('A' for Active; 'I' for Inactive)
REMARK    1  A    between atoms: C_1  and  C_2
REMARK    2  A    between atoms: N_10  and  C_11
REMARK    3  A    between atoms: C_11  and  C_12
REMARK    4  A    between atoms: C_15  and  C_16
REMARK                            x       y       z     vdW  Elec       q    Type
REMARK                         _______ _______ _______ _____ _____    ______ ____
ROOT
ATOM      1  C   UNL     1       3.149  16.228  21.010  0.00  0.00    +0.000 C 
ATOM      2  C   UNL     1       2.616  14.953  20.457  0.00  0.00    +0.000 A 
ATOM      3  C   UNL     1       3.026  14.425  19.259  0.00  0.00    +0.000 A 
ATOM      4  N   UNL     1       2.556  13.267  18.747  0.00  0.00    +0.000 NA
ATOM      5  C   UNL     1       1.622  12.609  19.456  0.00  0.00    +0.000 A 
ATOM      6  N   UNL     1       1.111  11.443  18.929  0.00  0.00    +0.000 N 
ATOM      7  C   UNL     1       1.945  10.693  18.004  0.00  0.00    +0.000 C 
ATOM      8  C   UNL     1       1.231   9.345  17.885  0.00  0.00    +0.000 C 
ATOM      9  C   UNL     1       2.160   8.147  17.786  0.00  0.00    +0.000 C 
ATOM     10  N   UNL     1       2.427   7.792  19.160  0.00  0.00    +0.000 N 
ATOM     11  C   UNL     1       1.552   8.398  20.052  0.00  0.00    +0.000 C 
ATOM     12  O   UNL     1       1.531   8.240  21.262  0.00  0.00    +0.000 OA
ATOM     13  C   UNL     1       0.547   9.181  19.242  0.00  0.00    +0.000 C 
ATOM     14  C   UNL     1       0.291  10.579  19.770  0.00  0.00    +0.000 C 
ATOM     15  N   UNL     1       1.164  13.049  20.637  0.00  0.00    +0.000 NA
ATOM     16  C   UNL     1       1.678  14.196  21.120  0.00  0.00    +0.000 A 
ENDROOT
BRANCH  10  17
ATOM     17  C   UNL     1       3.207   6.622  19.521  0.00  0.00    +0.000 C 
BRANCH  17  18
ATOM     18  C   UNL     1       2.394   5.371  19.545  0.00  0.00    +0.000 A 
ATOM     19  C   UNL     1       1.900   4.676  18.456  0.00  0.00    +0.000 A 
ATOM     20  S   UNL     1       1.181   3.208  18.967  0.00  0.00    +0.000 S 
ATOM     21  C   UNL     1       1.604   3.577  20.590  0.00  0.00    +0.000 A 
ATOM     22  C   UNL     1       1.349   2.603  21.686  0.00  0.00    +0.000 C 
ATOM     23  N   UNL     1       2.189   4.742  20.769  0.00  0.00    +0.000 NA
ENDBRANCH  17  18
ENDBRANCH  10  17
TORSDOF 2
ENDMDL
MODEL 2
REMARK VINA RESULT:      -6.2      6.227      8.837
REMARK  Name = 
REMARK  4 active torsions:
REMARK  status: ('A' for Active; 'I' for Inactive)
REMARK    1  A    between atoms: C_1  and  C_2
REMARK    2  A    between atoms: N_10  and  C_11
REMARK    3  A    between atoms: C_11  and  C_12
REMARK    4  A    between atoms: C_15  and  C_16
REMARK                            x       y       z     vdW  Elec       q    Type
REMARK                         _______ _______ _______ _____ _____    ______ ____
ROOT
ATOM      1  C   UNL     1       1.247   8.572  21.513  0.00  0.00    +0.000 C 
ATOM      2  C   UNL     1       0.431   9.768  21.859  0.00  0.00    +0.000 A 
ATOM      3  C   UNL     1       0.320  10.864  21.040  0.00  0.00    +0.000 A 
ATOM      4  N   UNL     1      -0.420  11.953  21.338  0.00  0.00    +0.000 NA
ATOM      5  C   UNL     1      -1.073  11.957  22.514  0.00  0.00    +0.000 A 
ATOM      6  N   UNL     1      -1.806  13.076  22.844  0.00  0.00    +0.000 N 
ATOM      7  C   UNL     1      -2.314  13.899  21.758  0.00  0.00    +0.000 C 
ATOM      8  C   UNL     1      -3.321  14.824  22.447  0.00  0.00    +0.000 C 
ATOM      9  C   UNL     1      -4.565  15.120  21.627  0.00  0.00    +0.000 C 
ATOM     10  N   UNL     1      -5.465  14.037  21.947  0.00  0.00    +0.000 N 
ATOM     11  C   UNL     1      -5.065  13.317  23.065  0.00  0.00    +0.000 C 
ATOM     12  O   UNL     1      -5.661  12.381  23.573  0.00  0.00    +0.000 OA
ATOM     13  C   UNL     1      -3.831  13.987  23.619  0.00  0.00    +0.000 C 
ATOM     14  C   UNL     1      -2.719  13.022  23.979  0.00  0.00    +0.000 C 
ATOM     15  N   UNL     1      -1.024  10.930  23.374  0.00  0.00    +0.000 NA
ATOM     16  C   UNL     1      -0.292   9.855  23.025  0.00  0.00    +0.000 A 
ENDROOT
BRANCH  10  17
ATOM     17  C   UNL     1      -6.826  13.985  21.445  0.00  0.00    +0.000 C 
BRANCH  17  18
ATOM     18  C   UNL     1      -6.975  13.072  20.274  0.00  0.00    +0.000 A 
ATOM     19  C   UNL     1      -6.880  13.410  18.936  0.00  0.00    +0.000 A 
ATOM     20  S   UNL     1      -6.944  12.001  17.964  0.00  0.00    +0.000 S 
ATOM     21  C   UNL     1      -7.055  11.039  19.383  0.00  0.00    +0.000 A 
ATOM     22  C   UNL     1      -7.050   9.553  19.300  0.00  0.00    +0.000 C 
ATOM     23  N   UNL     1      -7.106  11.708  20.514  0.00  0.00    +0.000 NA
ENDBRANCH  17  18
ENDBRANCH  10  17
TORSDOF 2
ENDMDL
MODEL 3
REMARK VINA RESULT:      -5.9      4.398      8.344
REMARK  Name = 
REMARK  4 active torsions:
REMARK  status: ('A' for Active; 'I' for Inactive)
REMARK    1  A    between atoms: C_1  and  C_2
REMARK    2  A    between atoms: N_10  and  C_11
REMARK    3  A    between atoms: C_11  and  C_12
REMARK    4  A    between atoms: C_15  and  C_16
REMARK                            x       y       z     vdW  Elec       q    Type
REMARK                         _______ _______ _______ _____ _____    ______ ____
ROOT
ATOM      1  C   UNL     1       7.734   5.228  12.419  0.00  0.00    +0.000 C 
ATOM      2  C   UNL     1       7.088   4.786  13.685  0.00  0.00    +0.000 A 
ATOM      3  C   UNL     1       7.557   5.130  14.928  0.00  0.00    +0.000 A 
ATOM      4  N   UNL     1       6.979   4.741  16.084  0.00  0.00    +0.000 NA
ATOM      5  C   UNL     1       5.887   3.961  16.001  0.00  0.00    +0.000 A 
ATOM      6  N   UNL     1       5.307   3.531  17.174  0.00  0.00    +0.000 N 
ATOM      7  C   UNL     1       5.496   4.347  18.363  0.00  0.00    +0.000 C 
ATOM      8  C   UNL     1       4.481   3.777  19.356  0.00  0.00    +0.000 C 
ATOM      9  C   UNL     1       3.806   4.818  20.234  0.00  0.00    +0.000 C 
ATOM     10  N   UNL     1       2.673   5.258  19.455  0.00  0.00    +0.000 N 
ATOM     11  C   UNL     1       2.395   4.415  18.386  0.00  0.00    +0.000 C 
ATOM     12  O   UNL     1       1.473   4.532  17.596  0.00  0.00    +0.000 OA
ATOM     13  C   UNL     1       3.358   3.254  18.461  0.00  0.00    +0.000 C 
ATOM     14  C   UNL     1       3.994   2.899  17.131  0.00  0.00    +0.000 C 
ATOM     15  N   UNL     1       5.358   3.577  14.830  0.00  0.00    +0.000 NA
ATOM     16  C   UNL     1       5.954   4.008  13.702  0.00  0.00    +0.000 A 
ENDROOT
BRANCH  10  17
ATOM     17  C   UNL     1       1.692   6.194  19.972  0.00  0.00    +0.000 C 
BRANCH  17  18
ATOM     18  C   UNL     1       1.826   7.556  19.378  0.00  0.00    +0.000 A 
ATOM     19  C   UNL     1       2.403   7.884  18.164  0.00  0.00    +0.000 A 
ATOM     20  S   UNL     1       2.165   9.546  17.826  0.00  0.00    +0.000 S 
ATOM     21  C   UNL     1       1.284   9.708  19.291  0.00  0.00    +0.000 A 
ATOM     22  C   UNL     1       0.624  10.995  19.647  0.00  0.00    +0.000 C 
ATOM     23  N   UNL     1       1.213   8.622  20.029  0.00  0.00    +0.000 NA
ENDBRANCH  17  18
ENDBRANCH  10  17
TORSDOF 2
ENDMDL
MODEL 4
REMARK VINA RESULT:      -5.9      5.760      8.666
REMARK  Name = 
REMARK  4 active torsions:
REMARK  status: ('A' for Active; 'I' for Inactive)
REMARK    1  A    between atoms: C_1  and  C_2
REMARK    2  A    between atoms: N_10  and  C_11
REMARK    3  A    between atoms: C_11  and  C_12
REMARK    4  A    between atoms: C_15  and  C_16
REMARK                            x       y       z     vdW  Elec       q    Type
REMARK                         _______ _______ _______ _____ _____    ______ ____
ROOT
ATOM      1  C   UNL     1       1.412   8.157  21.357  0.00  0.00    +0.000 C 
ATOM      2  C   UNL     1       0.666   9.391  21.729  0.00  0.00    +0.000 A 
ATOM      3  C   UNL     1       0.720  10.551  20.997  0.00  0.00    +0.000 A 
ATOM      4  N   UNL     1       0.046  11.675  21.318  0.00  0.00    +0.000 NA
ATOM      5  C   UNL     1      -0.711  11.649  22.429  0.00  0.00    +0.000 A 
ATOM      6  N   UNL     1      -1.379  12.800  22.785  0.00  0.00    +0.000 N 
ATOM      7  C   UNL     1      -1.716  13.743  21.731  0.00  0.00    +0.000 C 
ATOM      8  C   UNL     1      -2.704  14.698  22.404  0.00  0.00    +0.000 C 
ATOM      9  C   UNL     1      -3.840  15.162  21.507  0.00  0.00    +0.000 C 
ATOM     10  N   UNL     1      -4.850  14.142  21.658  0.00  0.00    +0.000 N 
ATOM     11  C   UNL     1      -4.615  13.308  22.744  0.00  0.00    +0.000 C 
ATOM     12  O   UNL     1      -5.329  12.393  23.119  0.00  0.00    +0.000 OA
ATOM     13  C   UNL     1      -3.387  13.825  23.456  0.00  0.00    +0.000 C 
ATOM     14  C   UNL     1      -2.395  12.741  23.830  0.00  0.00    +0.000 C 
ATOM     15  N   UNL     1      -0.825  10.560  23.203  0.00  0.00    +0.000 NA
ATOM     16  C   UNL     1      -0.153   9.454  22.832  0.00  0.00    +0.000 A 
ENDROOT
BRANCH  10  17
ATOM     17  C   UNL     1      -6.158  14.247  21.038  0.00  0.00    +0.000 C 
BRANCH  17  18
ATOM     18  C   UNL     1      -6.267  13.448  19.782  0.00  0.00    +0.000 A 
ATOM     19  C   UNL     1      -7.306  13.467  18.869  0.00  0.00    +0.000 A 
ATOM     20  S   UNL     1      -6.908  12.519  17.500  0.00  0.00    +0.000 S 
ATOM     21  C   UNL     1      -5.374  12.177  18.194  0.00  0.00    +0.000 A 
ATOM     22  C   UNL     1      -4.351  11.402  17.442  0.00  0.00    +0.000 C 
ATOM     23  N   UNL     1      -5.176  12.677  19.395  0.00  0.00    +0.000 NA
ENDBRANCH  17  18
ENDBRANCH  10  17
TORSDOF 2
ENDMDL
MODEL 5
REMARK VINA RESULT:      -5.8      5.219      5.949
REMARK  Name = 
REMARK  4 active torsions:
REMARK  status: ('A' for Active; 'I' for Inactive)
REMARK    1  A    between atoms: C_1  and  C_2
REMARK    2  A    between atoms: N_10  and  C_11
REMARK    3  A    between atoms: C_11  and  C_12
REMARK    4  A    between atoms: C_15  and  C_16
REMARK                            x       y       z     vdW  Elec       q    Type
REMARK                         _______ _______ _______ _____ _____    ______ ____
ROOT
ATOM      1  C   UNL     1       9.614  13.294  19.298  0.00  0.00    +0.000 C 
ATOM      2  C   UNL     1       9.241  11.897  18.944  0.00  0.00    +0.000 A 
ATOM      3  C   UNL     1       9.592  10.810  19.705  0.00  0.00    +0.000 A 
ATOM      4  N   UNL     1       9.255   9.539  19.400  0.00  0.00    +0.000 NA
ATOM      5  C   UNL     1       8.545   9.337  18.276  0.00  0.00    +0.000 A 
ATOM      6  N   UNL     1       8.223   8.041  17.937  0.00  0.00    +0.000 N 
ATOM      7  C   UNL     1       8.132   7.062  19.008  0.00  0.00    +0.000 C 
ATOM      8  C   UNL     1       7.455   5.861  18.342  0.00  0.00    +0.000 C 
ATOM      9  C   UNL     1       6.469   5.122  19.231  0.00  0.00    +0.000 C 
ATOM     10  N   UNL     1       5.223   5.827  19.038  0.00  0.00    +0.000 N 
ATOM     11  C   UNL     1       5.248   6.672  17.936  0.00  0.00    +0.000 C 
ATOM     12  O   UNL     1       4.320   7.351  17.527  0.00  0.00    +0.000 OA
ATOM     13  C   UNL     1       6.585   6.496  17.258  0.00  0.00    +0.000 C 
ATOM     14  C   UNL     1       7.254   7.801  16.874  0.00  0.00    +0.000 C 
ATOM     15  N   UNL     1       8.157  10.339  17.474  0.00  0.00    +0.000 NA
ATOM     16  C   UNL     1       8.495  11.593  17.829  0.00  0.00    +0.000 A 
ENDROOT
BRANCH  10  17
ATOM     17  C   UNL     1       3.979   5.381  19.639  0.00  0.00    +0.000 C 
BRANCH  17  18
ATOM     18  C   UNL     1       3.396   4.195  18.945  0.00  0.00    +0.000 A 
ATOM     19  C   UNL     1       4.064   3.283  18.149  0.00  0.00    +0.000 A 
ATOM     20  S   UNL     1       3.018   1.996  17.719  0.00  0.00    +0.000 S 
ATOM     21  C   UNL     1       1.765   2.717  18.646  0.00  0.00    +0.000 A 
ATOM     22  C   UNL     1       0.456   2.031  18.824  0.00  0.00    +0.000 C 
ATOM     23  N   UNL     1       2.066   3.873  19.197  0.00  0.00    +0.000 NA
ENDBRANCH  17  18
ENDBRANCH  10  17
TORSDOF 2
ENDMDL
MODEL 6
REMARK VINA RESULT:      -5.8      6.295      9.347
REMARK  Name = 
REMARK  4 active torsions:
REMARK  status: ('A' for Active; 'I' for Inactive)
REMARK    1  A    between atoms: C_1  and  C_2
REMARK    2  A    between atoms: N_10  and  C_11
REMARK    3  A    between atoms: C_11  and  C_12
REMARK    4  A    between atoms: C_15  and  C_16
REMARK                            x       y       z     vdW  Elec       q    Type
REMARK                         _______ _______ _______ _____ _____    ______ ____
ROOT
ATOM      1  C   UNL     1       1.162   8.346  21.477  0.00  0.00    +0.000 C 
ATOM      2  C   UNL     1       0.400   9.577  21.825  0.00  0.00    +0.000 A 
ATOM      3  C   UNL     1       0.396  10.704  21.042  0.00  0.00    +0.000 A 
ATOM      4  N   UNL     1      -0.294  11.825  21.341  0.00  0.00    +0.000 NA
ATOM      5  C   UNL     1      -1.005  11.831  22.482  0.00  0.00    +0.000 A 
ATOM      6  N   UNL     1      -1.687  12.980  22.815  0.00  0.00    +0.000 N 
ATOM      7  C   UNL     1      -2.090  13.867  21.735  0.00  0.00    +0.000 C 
ATOM      8  C   UNL     1      -3.075  14.827  22.406  0.00  0.00    +0.000 C 
ATOM      9  C   UNL     1      -4.257  15.224  21.538  0.00  0.00    +0.000 C 
ATOM     10  N   UNL     1      -5.234  14.188  21.774  0.00  0.00    +0.000 N 
ATOM     11  C   UNL     1      -4.934  13.409  22.885  0.00  0.00    +0.000 C 
ATOM     12  O   UNL     1      -5.609  12.495  23.329  0.00  0.00    +0.000 OA
ATOM     13  C   UNL     1      -3.693  13.986  23.522  0.00  0.00    +0.000 C 
ATOM     14  C   UNL     1      -2.659  12.944  23.902  0.00  0.00    +0.000 C 
ATOM     15  N   UNL     1      -1.060  10.775  23.307  0.00  0.00    +0.000 NA
ATOM     16  C   UNL     1      -0.375   9.670  22.957  0.00  0.00    +0.000 A 
ENDROOT
BRANCH  10  17
ATOM     17  C   UNL     1      -6.567  14.234  21.204  0.00  0.00    +0.000 C 
BRANCH  17  18
ATOM     18  C   UNL     1      -6.607  13.759  19.790  0.00  0.00    +0.000 A 
ATOM     19  C   UNL     1      -6.692  12.449  19.352  0.00  0.00    +0.000 A 
ATOM     20  S   UNL     1      -6.889  12.406  17.652  0.00  0.00    +0.000 S 
ATOM     21  C   UNL     1      -6.884  14.123  17.617  0.00  0.00    +0.000 A 
ATOM     22  C   UNL     1      -7.131  14.861  16.348  0.00  0.00    +0.000 C 
ATOM     23  N   UNL     1      -6.688  14.710  18.777  0.00  0.00    +0.000 NA
ENDBRANCH  17  18
ENDBRANCH  10  17
TORSDOF 2
ENDMDL
MODEL 7
REMARK VINA RESULT:      -5.8      1.372      2.004
REMARK  Name = 
REMARK  4 active torsions:
REMARK  status: ('A' for Active; 'I' for Inactive)
REMARK    1  A    between atoms: C_1  and  C_2
REMARK    2  A    between atoms: N_10  and  C_11
REMARK    3  A    between atoms: C_11  and  C_12
REMARK    4  A    between atoms: C_15  and  C_16
REMARK                            x       y       z     vdW  Elec       q    Type
REMARK                         _______ _______ _______ _____ _____    ______ ____
ROOT
ATOM      1  C   UNL     1       4.348  16.234  19.854  0.00  0.00    +0.000 C 
ATOM      2  C   UNL     1       3.572  15.005  19.535  0.00  0.00    +0.000 A 
ATOM      3  C   UNL     1       3.849  14.200  18.458  0.00  0.00    +0.000 A 
ATOM      4  N   UNL     1       3.158  13.080  18.159  0.00  0.00    +0.000 NA
ATOM      5  C   UNL     1       2.133  12.749  18.965  0.00  0.00    +0.000 A 
ATOM      6  N   UNL     1       1.400  11.625  18.652  0.00  0.00    +0.000 N 
ATOM      7  C   UNL     1       2.057  10.576  17.890  0.00  0.00    +0.000 C 
ATOM      8  C   UNL     1       1.099   9.389  18.009  0.00  0.00    +0.000 C 
ATOM      9  C   UNL     1       1.784   8.039  18.142  0.00  0.00    +0.000 C 
ATOM     10  N   UNL     1       2.010   7.894  19.560  0.00  0.00    +0.000 N 
ATOM     11  C   UNL     1       1.285   8.806  20.316  0.00  0.00    +0.000 C 
ATOM     12  O   UNL     1       1.261   8.877  21.534  0.00  0.00    +0.000 OA
ATOM     13  C   UNL     1       0.428   9.605  19.365  0.00  0.00    +0.000 C 
ATOM     14  C   UNL     1       0.451  11.099  19.626  0.00  0.00    +0.000 C 
ATOM     15  N   UNL     1       1.792  13.474  20.040  0.00  0.00    +0.000 NA
ATOM     16  C   UNL     1       2.524  14.572  20.313  0.00  0.00    +0.000 A 
ENDROOT
BRANCH  10  17
ATOM     17  C   UNL     1       2.564   6.684  20.138  0.00  0.00    +0.000 C 
BRANCH  17  18
ATOM     18  C   UNL     1       2.830   5.627  19.118  0.00  0.00    +0.000 A 
ATOM     19  C   UNL     1       1.995   4.584  18.760  0.00  0.00    +0.000 A 
ATOM     20  S   UNL     1       2.649   3.735  17.424  0.00  0.00    +0.000 S 
ATOM     21  C   UNL     1       3.973   4.828  17.390  0.00  0.00    +0.000 A 
ATOM     22  C   UNL     1       5.001   4.748  16.316  0.00  0.00    +0.000 C 
ATOM     23  N   UNL     1       3.979   5.736  18.341  0.00  0.00    +0.000 NA
ENDBRANCH  17  18
ENDBRANCH  10  17
TORSDOF 2
ENDMDL
MODEL 8
REMARK VINA RESULT:      -5.8      4.846      6.858
REMARK  Name = 
REMARK  4 active torsions:
REMARK  status: ('A' for Active; 'I' for Inactive)
REMARK    1  A    between atoms: C_1  and  C_2
REMARK    2  A    between atoms: N_10  and  C_11
REMARK    3  A    between atoms: C_11  and  C_12
REMARK    4  A    between atoms: C_15  and  C_16
REMARK                            x       y       z     vdW  Elec       q    Type
REMARK                         _______ _______ _______ _____ _____    ______ ____
ROOT
ATOM      1  C   UNL     1      -5.904  15.897  23.999  0.00  0.00    +0.000 C 
ATOM      2  C   UNL     1      -4.689  15.102  23.669  0.00  0.00    +0.000 A 
ATOM      3  C   UNL     1      -4.572  13.762  23.942  0.00  0.00    +0.000 A 
ATOM      4  N   UNL     1      -3.480  13.027  23.643  0.00  0.00    +0.000 NA
ATOM      5  C   UNL     1      -2.448  13.658  23.056  0.00  0.00    +0.000 A 
ATOM      6  N   UNL     1      -1.315  12.926  22.776  0.00  0.00    +0.000 N 
ATOM      7  C   UNL     1      -1.465  11.494  22.575  0.00  0.00    +0.000 C 
ATOM      8  C   UNL     1      -0.122  11.071  21.977  0.00  0.00    +0.000 C 
ATOM      9  C   UNL     1      -0.220   9.999  20.904  0.00  0.00    +0.000 C 
ATOM     10  N   UNL     1      -0.438  10.739  19.684  0.00  0.00    +0.000 N 
ATOM     11  C   UNL     1      -0.171  12.095  19.822  0.00  0.00    +0.000 C 
ATOM     12  O   UNL     1      -0.236  12.937  18.941  0.00  0.00    +0.000 OA
ATOM     13  C   UNL     1       0.343  12.317  21.224  0.00  0.00    +0.000 C 
ATOM     14  C   UNL     1      -0.283  13.506  21.926  0.00  0.00    +0.000 C 
ATOM     15  N   UNL     1      -2.475  14.964  22.752  0.00  0.00    +0.000 NA
ATOM     16  C   UNL     1      -3.594  15.653  23.047  0.00  0.00    +0.000 A 
ENDROOT
BRANCH  10  17
ATOM     17  C   UNL     1      -0.493  10.094  18.385  0.00  0.00    +0.000 C 
BRANCH  17  18
ATOM     18  C   UNL     1      -1.806  10.283  17.702  0.00  0.00    +0.000 A 
ATOM     19  C   UNL     1      -2.932  10.902  18.215  0.00  0.00    +0.000 A 
ATOM     20  S   UNL     1      -4.136  11.038  17.005  0.00  0.00    +0.000 S 
ATOM     21  C   UNL     1      -3.072  10.300  15.877  0.00  0.00    +0.000 A 
ATOM     22  C   UNL     1      -3.454  10.162  14.445  0.00  0.00    +0.000 C 
ATOM     23  N   UNL     1      -1.913   9.914  16.365  0.00  0.00    +0.000 NA
ENDBRANCH  17  18
ENDBRANCH  10  17
TORSDOF 2
ENDMDL
MODEL 9
REMARK VINA RESULT:      -5.7      3.459      8.234
REMARK  Name = 
REMARK  4 active torsions:
REMARK  status: ('A' for Active; 'I' for Inactive)
REMARK    1  A    between atoms: C_1  and  C_2
REMARK    2  A    between atoms: N_10  and  C_11
REMARK    3  A    between atoms: C_11  and  C_12
REMARK    4  A    between atoms: C_15  and  C_16
REMARK                            x       y       z     vdW  Elec       q    Type
REMARK                         _______ _______ _______ _____ _____    ______ ____
ROOT
ATOM      1  C   UNL     1       5.615   4.521  18.420  0.00  0.00    +0.000 C 
ATOM      2  C   UNL     1       4.527   5.530  18.528  0.00  0.00    +0.000 A 
ATOM      3  C   UNL     1       3.795   5.726  19.672  0.00  0.00    +0.000 A 
ATOM      4  N   UNL     1       2.809   6.640  19.787  0.00  0.00    +0.000 NA
ATOM      5  C   UNL     1       2.528   7.390  18.706  0.00  0.00    +0.000 A 
ATOM      6  N   UNL     1       1.502   8.304  18.801  0.00  0.00    +0.000 N 
ATOM      7  C   UNL     1       1.178   8.827  20.119  0.00  0.00    +0.000 C 
ATOM      8  C   UNL     1       0.261  10.015  19.820  0.00  0.00    +0.000 C 
ATOM      9  C   UNL     1       0.463  11.211  20.734  0.00  0.00    +0.000 C 
ATOM     10  N   UNL     1       1.515  11.969  20.099  0.00  0.00    +0.000 N 
ATOM     11  C   UNL     1       1.750  11.570  18.790  0.00  0.00    +0.000 C 
ATOM     12  O   UNL     1       2.553  12.067  18.017  0.00  0.00    +0.000 OA
ATOM     13  C   UNL     1       0.739  10.502  18.452  0.00  0.00    +0.000 C 
ATOM     14  C   UNL     1       1.332   9.298  17.747  0.00  0.00    +0.000 C 
ATOM     15  N   UNL     1       3.192   7.269  17.548  0.00  0.00    +0.000 NA
ATOM     16  C   UNL     1       4.183   6.360  17.486  0.00  0.00    +0.000 A 
ENDROOT
BRANCH  10  17
ATOM     17  C   UNL     1       1.956  13.257  20.602  0.00  0.00    +0.000 C 
BRANCH  17  18
ATOM     18  C   UNL     1       1.211  14.399  19.995  0.00  0.00    +0.000 A 
ATOM     19  C   UNL     1      -0.077  14.807  20.292  0.00  0.00    +0.000 A 
ATOM     20  S   UNL     1      -0.438  16.268  19.474  0.00  0.00    +0.000 S 
ATOM     21  C   UNL     1       1.146  16.279  18.813  0.00  0.00    +0.000 A 
ATOM     22  C   UNL     1       1.622  17.424  17.990  0.00  0.00    +0.000 C 
ATOM     23  N   UNL     1       1.892  15.239  19.119  0.00  0.00    +0.000 NA
ENDBRANCH  17  18
ENDBRANCH  10  17
TORSDOF 2
ENDMDL
