MODEL 1
REMARK VINA RESULT:      -8.5      0.000      0.000
REMARK  Name = 
REMARK  6 active torsions:
REMARK  status: ('A' for Active; 'I' for Inactive)
REMARK    1  A    between atoms: C_1  and  C_2
REMARK    2  A    between atoms: C_5  and  S_6
REMARK    3  A    between atoms: S_6  and  N_9
REMARK    4  A    between atoms: C_10  and  C_11
REMARK    5  A    between atoms: C_19  and  C_20
REMARK    6  A    between atoms: C_24  and  C_25
REMARK                            x       y       z     vdW  Elec       q    Type
REMARK                         _______ _______ _______ _____ _____    ______ ____
ROOT
ATOM      1  N   UNL     1       2.093   6.821  18.487  0.00  0.00    +0.000 NA
ATOM      2  C   UNL     1       3.142   6.087  18.218  0.00  0.00    +0.000 C 
ATOM      3  N   UNL     1       3.068   4.728  18.576  0.00  0.00    +0.000 N 
ATOM      4  C   UNL     1       2.964   4.372  20.020  0.00  0.00    +0.000 C 
ATOM      5  C   UNL     1       1.672   4.831  20.698  0.00  0.00    +0.000 C 
ATOM      6  C   UNL     1       3.204   2.873  20.276  0.00  0.00    +0.000 C 
ATOM      7  C   UNL     1       2.434   1.969  19.327  0.00  0.00    +0.000 C 
ATOM      8  C   UNL     1       2.800   2.339  17.897  0.00  0.00    +0.000 C 
ATOM      9  C   UNL     1       2.468   3.802  17.581  0.00  0.00    +0.000 C 
ATOM     10  C   UNL     1       0.959   3.992  17.401  0.00  0.00    +0.000 C 
ENDROOT
BRANCH   2  11
ATOM     11  C   UNL     1       4.365   6.650  17.517  0.00  0.00    +0.000 C 
ATOM     12  C   UNL     1       5.666   6.301  17.529  0.00  0.00    +0.000 C 
ATOM     13  C   UNL     1       6.689   7.200  16.849  0.00  0.00    +0.000 C 
ATOM     14  C   UNL     1       7.657   7.767  17.894  0.00  0.00    +0.000 C 
ATOM     15  C   UNL     1       8.307   6.664  18.731  0.00  0.00    +0.000 C 
ATOM     16  C   UNL     1       7.277   5.689  19.311  0.00  0.00    +0.000 C 
ATOM     17  C   UNL     1       6.316   5.153  18.245  0.00  0.00    +0.000 C 
ENDBRANCH   2  11
BRANCH   1  18
ATOM     18  S   UNL     1       1.982   8.412  18.229  0.00  0.00    +0.000 S 
ATOM     19  O   UNL     1       0.951   8.686  17.237  0.00  0.00    +0.000 OA
ATOM     20  O   UNL     1       3.308   8.971  18.087  0.00  0.00    +0.000 OA
BRANCH  18  25
ATOM     21  C   UNL     1      -0.930  10.436  23.143  0.00  0.00    +0.000 C 
ATOM     22  C   UNL     1      -0.093   9.996  21.976  0.00  0.00    +0.000 A 
ATOM     23  C   UNL     1       0.741   8.874  22.071  0.00  0.00    +0.000 A 
ATOM     24  C   UNL     1       1.448   8.417  20.956  0.00  0.00    +0.000 A 
ATOM     25  C   UNL     1       1.317   9.091  19.740  0.00  0.00    +0.000 A 
ATOM     26  C   UNL     1       0.531  10.245  19.646  0.00  0.00    +0.000 A 
ATOM     27  C   UNL     1      -0.170  10.696  20.765  0.00  0.00    +0.000 A 
ENDBRANCH  18  25
ENDBRANCH   1  18
TORSDOF 3
ENDMDL
MODEL 2
REMARK VINA RESULT:      -8.2      2.873      6.770
REMARK  Name = 
REMARK  6 active torsions:
REMARK  status: ('A' for Active; 'I' for Inactive)
REMARK    1  A    between atoms: C_1  and  C_2
REMARK    2  A    between atoms: C_5  and  S_6
REMARK    3  A    between atoms: S_6  and  N_9
REMARK    4  A    between atoms: C_10  and  C_11
REMARK    5  A    between atoms: C_19  and  C_20
REMARK    6  A    between atoms: C_24  and  C_25
REMARK                            x       y       z     vdW  Elec       q    Type
REMARK                         _______ _______ _______ _____ _____    ______ ____
ROOT
ATOM      1  N   UNL     1       4.735   4.497  18.300  0.00  0.00    +0.000 NA
ATOM      2  C   UNL     1       3.547   5.044  18.278  0.00  0.00    +0.000 C 
ATOM      3  N   UNL     1       2.480   4.248  18.735  0.00  0.00    +0.000 N 
ATOM      4  C   UNL     1       2.126   3.017  17.971  0.00  0.00    +0.000 C 
ATOM      5  C   UNL     1       3.205   1.933  17.975  0.00  0.00    +0.000 C 
ATOM      6  C   UNL     1       0.769   2.429  18.398  0.00  0.00    +0.000 C 
ATOM      7  C   UNL     1       0.603   2.328  19.905  0.00  0.00    +0.000 C 
ATOM      8  C   UNL     1       0.809   3.709  20.512  0.00  0.00    +0.000 C 
ATOM      9  C   UNL     1       2.198   4.272  20.193  0.00  0.00    +0.000 C 
ATOM     10  C   UNL     1       3.274   3.579  21.036  0.00  0.00    +0.000 C 
ENDROOT
BRANCH   2  11
ATOM     11  C   UNL     1       3.323   6.477  17.829  0.00  0.00    +0.000 C 
ATOM     12  C   UNL     1       2.917   7.584  18.479  0.00  0.00    +0.000 C 
ATOM     13  C   UNL     1       2.609   8.847  17.687  0.00  0.00    +0.000 C 
ATOM     14  C   UNL     1       1.122   9.193  17.820  0.00  0.00    +0.000 C 
ATOM     15  C   UNL     1       0.685   9.295  19.282  0.00  0.00    +0.000 C 
ATOM     16  C   UNL     1       1.109   8.073  20.103  0.00  0.00    +0.000 C 
ATOM     17  C   UNL     1       2.595   7.744  19.937  0.00  0.00    +0.000 C 
ENDBRANCH   2  11
BRANCH   1  18
ATOM     18  S   UNL     1       6.088   5.197  17.760  0.00  0.00    +0.000 S 
ATOM     19  O   UNL     1       7.254   4.486  18.268  0.00  0.00    +0.000 OA
ATOM     20  O   UNL     1       5.980   6.632  17.903  0.00  0.00    +0.000 OA
BRANCH  18  25
ATOM     21  C   UNL     1       6.666   3.547  11.958  0.00  0.00    +0.000 C 
ATOM     22  C   UNL     1       6.439   4.059  13.351  0.00  0.00    +0.000 A 
ATOM     23  C   UNL     1       5.277   3.724  14.060  0.00  0.00    +0.000 A 
ATOM     24  C   UNL     1       5.113   4.129  15.388  0.00  0.00    +0.000 A 
ATOM     25  C   UNL     1       6.120   4.874  16.004  0.00  0.00    +0.000 A 
ATOM     26  C   UNL     1       7.259   5.261  15.290  0.00  0.00    +0.000 A 
ATOM     27  C   UNL     1       7.415   4.855  13.965  0.00  0.00    +0.000 A 
ENDBRANCH  18  25
ENDBRANCH   1  18
TORSDOF 3
ENDMDL
MODEL 3
REMARK VINA RESULT:      -8.2      2.611      6.863
REMARK  Name = 
REMARK  6 active torsions:
REMARK  status: ('A' for Active; 'I' for Inactive)
REMARK    1  A    between atoms: C_1  and  C_2
REMARK    2  A    between atoms: C_5  and  S_6
REMARK    3  A    between atoms: S_6  and  N_9
REMARK    4  A    between atoms: C_10  and  C_11
REMARK    5  A    between atoms: C_19  and  C_20
REMARK    6  A    between atoms: C_24  and  C_25
REMARK                            x       y       z     vdW  Elec       q    Type
REMARK                         _______ _______ _______ _____ _____    ______ ____
ROOT
ATOM      1  N   UNL     1       4.149   5.457  17.693  0.00  0.00    +0.000 NA
ATOM      2  C   UNL     1       2.970   5.872  18.081  0.00  0.00    +0.000 C 
ATOM      3  N   UNL     1       2.139   4.920  18.698  0.00  0.00    +0.000 N 
ATOM      4  C   UNL     1       1.665   3.755  17.896  0.00  0.00    +0.000 C 
ATOM      5  C   UNL     1       2.771   2.799  17.446  0.00  0.00    +0.000 C 
ATOM      6  C   UNL     1       0.534   2.980  18.595  0.00  0.00    +0.000 C 
ATOM      7  C   UNL     1       0.819   2.687  20.059  0.00  0.00    +0.000 C 
ATOM      8  C   UNL     1       1.095   4.002  20.774  0.00  0.00    +0.000 C 
ATOM      9  C   UNL     1       2.291   4.744  20.165  0.00  0.00    +0.000 C 
ATOM     10  C   UNL     1       3.609   4.076  20.568  0.00  0.00    +0.000 C 
ENDROOT
BRANCH   2  11
ATOM     11  C   UNL     1       2.527   7.316  17.919  0.00  0.00    +0.000 C 
ATOM     12  C   UNL     1       2.149   8.258  18.804  0.00  0.00    +0.000 C 
ATOM     13  C   UNL     1       1.574   9.574  18.296  0.00  0.00    +0.000 C 
ATOM     14  C   UNL     1       0.114   9.708  18.741  0.00  0.00    +0.000 C 
ATOM     15  C   UNL     1      -0.042   9.543  20.253  0.00  0.00    +0.000 C 
ATOM     16  C   UNL     1       0.647   8.278  20.775  0.00  0.00    +0.000 C 
ATOM     17  C   UNL     1       2.098   8.165  20.301  0.00  0.00    +0.000 C 
ENDBRANCH   2  11
BRANCH   1  18
ATOM     18  S   UNL     1       5.236   6.355  16.904  0.00  0.00    +0.000 S 
ATOM     19  O   UNL     1       6.420   6.545  17.731  0.00  0.00    +0.000 OA
ATOM     20  O   UNL     1       4.575   7.486  16.292  0.00  0.00    +0.000 OA
BRANCH  18  25
ATOM     21  C   UNL     1       6.816   3.338  11.891  0.00  0.00    +0.000 C 
ATOM     22  C   UNL     1       6.494   3.988  13.206  0.00  0.00    +0.000 A 
ATOM     23  C   UNL     1       7.427   4.816  13.846  0.00  0.00    +0.000 A 
ATOM     24  C   UNL     1       7.089   5.490  15.023  0.00  0.00    +0.000 A 
ATOM     25  C   UNL     1       5.810   5.330  15.560  0.00  0.00    +0.000 A 
ATOM     26  C   UNL     1       4.890   4.463  14.961  0.00  0.00    +0.000 A 
ATOM     27  C   UNL     1       5.235   3.793  13.787  0.00  0.00    +0.000 A 
ENDBRANCH  18  25
ENDBRANCH   1  18
TORSDOF 3
ENDMDL
MODEL 4
REMARK VINA RESULT:      -8.2      2.397      5.759
REMARK  Name = 
REMARK  6 active torsions:
REMARK  status: ('A' for Active; 'I' for Inactive)
REMARK    1  A    between atoms: C_1  and  C_2
REMARK    2  A    between atoms: C_5  and  S_6
REMARK    3  A    between atoms: S_6  and  N_9
REMARK    4  A    between atoms: C_10  and  C_11
REMARK    5  A    between atoms: C_19  and  C_20
REMARK    6  A    between atoms: C_24  and  C_25
REMARK                            x       y       z     vdW  Elec       q    Type
REMARK                         _______ _______ _______ _____ _____    ______ ____
ROOT
ATOM      1  N   UNL     1       4.410   3.982  17.250  0.00  0.00    +0.000 NA
ATOM      2  C   UNL     1       3.511   4.747  17.813  0.00  0.00    +0.000 C 
ATOM      3  N   UNL     1       2.663   4.135  18.754  0.00  0.00    +0.000 N 
ATOM      4  C   UNL     1       1.729   3.069  18.291  0.00  0.00    +0.000 C 
ATOM      5  C   UNL     1       2.413   1.801  17.777  0.00  0.00    +0.000 C 
ATOM      6  C   UNL     1       0.665   2.719  19.347  0.00  0.00    +0.000 C 
ATOM      7  C   UNL     1       1.241   2.517  20.739  0.00  0.00    +0.000 C 
ATOM      8  C   UNL     1       2.005   3.771  21.137  0.00  0.00    +0.000 C 
ATOM      9  C   UNL     1       3.144   4.082  20.158  0.00  0.00    +0.000 C 
ATOM     10  C   UNL     1       4.319   3.121  20.367  0.00  0.00    +0.000 C 
ENDROOT
BRANCH   2  11
ATOM     11  C   UNL     1       3.405   6.231  17.508  0.00  0.00    +0.000 C 
ATOM     12  C   UNL     1       3.138   7.304  18.276  0.00  0.00    +0.000 C 
ATOM     13  C   UNL     1       2.917   8.660  17.620  0.00  0.00    +0.000 C 
ATOM     14  C   UNL     1       1.478   9.126  17.865  0.00  0.00    +0.000 C 
ATOM     15  C   UNL     1       1.121   9.128  19.351  0.00  0.00    +0.000 C 
ATOM     16  C   UNL     1       1.462   7.799  20.034  0.00  0.00    +0.000 C 
ATOM     17  C   UNL     1       2.901   7.353  19.758  0.00  0.00    +0.000 C 
ENDBRANCH   2  11
BRANCH   1  18
ATOM     18  S   UNL     1       5.439   4.453  16.096  0.00  0.00    +0.000 S 
ATOM     19  O   UNL     1       4.754   5.309  15.137  0.00  0.00    +0.000 OA
ATOM     20  O   UNL     1       6.215   3.318  15.648  0.00  0.00    +0.000 OA
BRANCH  18  25
ATOM     21  C   UNL     1       8.748   8.542  19.105  0.00  0.00    +0.000 C 
ATOM     22  C   UNL     1       8.049   7.473  18.315  0.00  0.00    +0.000 A 
ATOM     23  C   UNL     1       7.902   6.177  18.830  0.00  0.00    +0.000 A 
ATOM     24  C   UNL     1       7.173   5.213  18.130  0.00  0.00    +0.000 A 
ATOM     25  C   UNL     1       6.590   5.551  16.907  0.00  0.00    +0.000 A 
ATOM     26  C   UNL     1       6.775   6.823  16.357  0.00  0.00    +0.000 A 
ATOM     27  C   UNL     1       7.506   7.780  17.061  0.00  0.00    +0.000 A 
ENDBRANCH  18  25
ENDBRANCH   1  18
TORSDOF 3
ENDMDL
MODEL 5
REMARK VINA RESULT:      -8.0      2.296      5.753
REMARK  Name = 
REMARK  6 active torsions:
REMARK  status: ('A' for Active; 'I' for Inactive)
REMARK    1  A    between atoms: C_1  and  C_2
REMARK    2  A    between atoms: C_5  and  S_6
REMARK    3  A    between atoms: S_6  and  N_9
REMARK    4  A    between atoms: C_10  and  C_11
REMARK    5  A    between atoms: C_19  and  C_20
REMARK    6  A    between atoms: C_24  and  C_25
REMARK                            x       y       z     vdW  Elec       q    Type
REMARK                         _______ _______ _______ _____ _____    ______ ____
ROOT
ATOM      1  N   UNL     1       4.508   4.292  17.346  0.00  0.00    +0.000 NA
ATOM      2  C   UNL     1       3.489   4.962  17.822  0.00  0.00    +0.000 C 
ATOM      3  N   UNL     1       2.610   4.255  18.664  0.00  0.00    +0.000 N 
ATOM      4  C   UNL     1       1.829   3.120  18.093  0.00  0.00    +0.000 C 
ATOM      5  C   UNL     1       2.675   1.930  17.637  0.00  0.00    +0.000 C 
ATOM      6  C   UNL     1       0.700   2.653  19.030  0.00  0.00    +0.000 C 
ATOM      7  C   UNL     1       1.148   2.473  20.471  0.00  0.00    +0.000 C 
ATOM      8  C   UNL     1       1.750   3.782  20.961  0.00  0.00    +0.000 C 
ATOM      9  C   UNL     1       2.949   4.215  20.109  0.00  0.00    +0.000 C 
ATOM     10  C   UNL     1       4.180   3.359  20.426  0.00  0.00    +0.000 C 
ENDROOT
BRANCH   2  11
ATOM     11  C   UNL     1       3.280   6.436  17.526  0.00  0.00    +0.000 C 
ATOM     12  C   UNL     1       2.983   7.491  18.310  0.00  0.00    +0.000 C 
ATOM     13  C   UNL     1       2.651   8.831  17.668  0.00  0.00    +0.000 C 
ATOM     14  C   UNL     1       1.199   9.209  17.979  0.00  0.00    +0.000 C 
ATOM     15  C   UNL     1       0.909   9.189  19.480  0.00  0.00    +0.000 C 
ATOM     16  C   UNL     1       1.361   7.883  20.143  0.00  0.00    +0.000 C 
ATOM     17  C   UNL     1       2.811   7.525  19.801  0.00  0.00    +0.000 C 
ENDBRANCH   2  11
BRANCH   1  18
ATOM     18  S   UNL     1       5.600   4.878  16.310  0.00  0.00    +0.000 S 
ATOM     19  O   UNL     1       4.930   5.572  15.218  0.00  0.00    +0.000 OA
ATOM     20  O   UNL     1       6.599   3.868  16.038  0.00  0.00    +0.000 OA
BRANCH  18  25
ATOM     21  C   UNL     1       9.055   9.120  18.918  0.00  0.00    +0.000 C 
ATOM     22  C   UNL     1       8.095   8.111  18.356  0.00  0.00    +0.000 A 
ATOM     23  C   UNL     1       7.150   8.477  17.387  0.00  0.00    +0.000 A 
ATOM     24  C   UNL     1       6.321   7.516  16.803  0.00  0.00    +0.000 A 
ATOM     25  C   UNL     1       6.441   6.181  17.195  0.00  0.00    +0.000 A 
ATOM     26  C   UNL     1       7.341   5.811  18.200  0.00  0.00    +0.000 A 
ATOM     27  C   UNL     1       8.163   6.777  18.780  0.00  0.00    +0.000 A 
ENDBRANCH  18  25
ENDBRANCH   1  18
TORSDOF 3
ENDMDL
MODEL 6
REMARK VINA RESULT:      -7.9      0.867      1.191
REMARK  Name = 
REMARK  6 active torsions:
REMARK  status: ('A' for Active; 'I' for Inactive)
REMARK    1  A    between atoms: C_1  and  C_2
REMARK    2  A    between atoms: C_5  and  S_6
REMARK    3  A    between atoms: S_6  and  N_9
REMARK    4  A    between atoms: C_10  and  C_11
REMARK    5  A    between atoms: C_19  and  C_20
REMARK    6  A    between atoms: C_24  and  C_25
REMARK                            x       y       z     vdW  Elec       q    Type
REMARK                         _______ _______ _______ _____ _____    ______ ____
ROOT
ATOM      1  N   UNL     1       1.928   6.841  18.579  0.00  0.00    +0.000 NA
ATOM      2  C   UNL     1       3.017   6.118  18.524  0.00  0.00    +0.000 C 
ATOM      3  N   UNL     1       2.889   4.761  18.870  0.00  0.00    +0.000 N 
ATOM      4  C   UNL     1       2.511   4.411  20.270  0.00  0.00    +0.000 C 
ATOM      5  C   UNL     1       1.109   4.860  20.683  0.00  0.00    +0.000 C 
ATOM      6  C   UNL     1       2.712   2.916  20.578  0.00  0.00    +0.000 C 
ATOM      7  C   UNL     1       2.149   1.998  19.506  0.00  0.00    +0.000 C 
ATOM      8  C   UNL     1       2.780   2.365  18.170  0.00  0.00    +0.000 C 
ATOM      9  C   UNL     1       2.502   3.823  17.786  0.00  0.00    +0.000 C 
ATOM     10  C   UNL     1       1.053   3.995  17.316  0.00  0.00    +0.000 C 
ENDROOT
BRANCH   2  11
ATOM     11  C   UNL     1       4.347   6.691  18.067  0.00  0.00    +0.000 C 
ATOM     12  C   UNL     1       5.170   6.385  17.045  0.00  0.00    +0.000 C 
ATOM     13  C   UNL     1       6.544   7.036  16.970  0.00  0.00    +0.000 C 
ATOM     14  C   UNL     1       7.633   5.967  17.116  0.00  0.00    +0.000 C 
ATOM     15  C   UNL     1       7.463   4.834  16.104  0.00  0.00    +0.000 C 
ATOM     16  C   UNL     1       6.040   4.266  16.099  0.00  0.00    +0.000 C 
ATOM     17  C   UNL     1       4.975   5.359  15.967  0.00  0.00    +0.000 C 
ENDBRANCH   2  11
BRANCH   1  18
ATOM     18  S   UNL     1       1.854   8.430  18.293  0.00  0.00    +0.000 S 
ATOM     19  O   UNL     1       0.832   8.709  17.294  0.00  0.00    +0.000 OA
ATOM     20  O   UNL     1       3.193   8.957  18.146  0.00  0.00    +0.000 OA
BRANCH  18  25
ATOM     21  C   UNL     1      -1.030  10.627  23.149  0.00  0.00    +0.000 C 
ATOM     22  C   UNL     1      -0.198  10.138  21.998  0.00  0.00    +0.000 A 
ATOM     23  C   UNL     1       0.576   8.975  22.112  0.00  0.00    +0.000 A 
ATOM     24  C   UNL     1       1.276   8.477  21.010  0.00  0.00    +0.000 A 
ATOM     25  C   UNL     1       1.200   9.150  19.790  0.00  0.00    +0.000 A 
ATOM     26  C   UNL     1       0.476  10.342  19.678  0.00  0.00    +0.000 A 
ATOM     27  C   UNL     1      -0.219  10.835  20.783  0.00  0.00    +0.000 A 
ENDBRANCH  18  25
ENDBRANCH   1  18
TORSDOF 3
ENDMDL
MODEL 7
REMARK VINA RESULT:      -7.5      3.833      9.599
REMARK  Name = 
REMARK  6 active torsions:
REMARK  status: ('A' for Active; 'I' for Inactive)
REMARK    1  A    between atoms: C_1  and  C_2
REMARK    2  A    between atoms: C_5  and  S_6
REMARK    3  A    between atoms: S_6  and  N_9
REMARK    4  A    between atoms: C_10  and  C_11
REMARK    5  A    between atoms: C_19  and  C_20
REMARK    6  A    between atoms: C_24  and  C_25
REMARK                            x       y       z     vdW  Elec       q    Type
REMARK                         _______ _______ _______ _____ _____    ______ ____
ROOT
ATOM      1  N   UNL     1       0.603  11.297  20.858  0.00  0.00    +0.000 NA
ATOM      2  C   UNL     1      -0.070  12.305  21.351  0.00  0.00    +0.000 C 
ATOM      3  N   UNL     1       0.185  13.568  20.787  0.00  0.00    +0.000 N 
ATOM      4  C   UNL     1       1.544  14.162  20.946  0.00  0.00    +0.000 C 
ATOM      5  C   UNL     1       2.663  13.394  20.241  0.00  0.00    +0.000 C 
ATOM      6  C   UNL     1       1.584  15.651  20.559  0.00  0.00    +0.000 C 
ATOM      7  C   UNL     1       0.897  15.949  19.236  0.00  0.00    +0.000 C 
ATOM      8  C   UNL     1      -0.538  15.448  19.310  0.00  0.00    +0.000 C 
ATOM      9  C   UNL     1      -0.606  13.942  19.587  0.00  0.00    +0.000 C 
ATOM     10  C   UNL     1      -0.233  13.140  18.335  0.00  0.00    +0.000 C 
ENDROOT
BRANCH   2  11
ATOM     11  C   UNL     1      -1.109  12.127  22.445  0.00  0.00    +0.000 C 
ATOM     12  C   UNL     1      -2.443  12.307  22.473  0.00  0.00    +0.000 C 
ATOM     13  C   UNL     1      -3.182  12.221  23.802  0.00  0.00    +0.000 C 
ATOM     14  C   UNL     1      -3.796  13.583  24.143  0.00  0.00    +0.000 C 
ATOM     15  C   UNL     1      -4.679  14.114  23.013  0.00  0.00    +0.000 C 
ATOM     16  C   UNL     1      -3.969  14.081  21.655  0.00  0.00    +0.000 C 
ATOM     17  C   UNL     1      -3.354  12.712  21.351  0.00  0.00    +0.000 C 
ENDBRANCH   2  11
BRANCH   1  18
ATOM     18  S   UNL     1       0.522   9.775  21.396  0.00  0.00    +0.000 S 
ATOM     19  O   UNL     1      -0.862   9.320  21.397  0.00  0.00    +0.000 OA
ATOM     20  O   UNL     1       1.344   9.637  22.578  0.00  0.00    +0.000 OA
BRANCH  18  25
ATOM     21  C   UNL     1       3.774   6.814  17.228  0.00  0.00    +0.000 C 
ATOM     22  C   UNL     1       2.860   7.467  18.224  0.00  0.00    +0.000 A 
ATOM     23  C   UNL     1       2.597   6.865  19.463  0.00  0.00    +0.000 A 
ATOM     24  C   UNL     1       1.818   7.520  20.420  0.00  0.00    +0.000 A 
ATOM     25  C   UNL     1       1.300   8.784  20.132  0.00  0.00    +0.000 A 
ATOM     26  C   UNL     1       1.508   9.371  18.879  0.00  0.00    +0.000 A 
ATOM     27  C   UNL     1       2.285   8.710  17.928  0.00  0.00    +0.000 A 
ENDBRANCH  18  25
ENDBRANCH   1  18
TORSDOF 3
ENDMDL
MODEL 8
REMARK VINA RESULT:      -7.2      7.317     10.661
REMARK  Name = 
REMARK  6 active torsions:
REMARK  status: ('A' for Active; 'I' for Inactive)
REMARK    1  A    between atoms: C_1  and  C_2
REMARK    2  A    between atoms: C_5  and  S_6
REMARK    3  A    between atoms: S_6  and  N_9
REMARK    4  A    between atoms: C_10  and  C_11
REMARK    5  A    between atoms: C_19  and  C_20
REMARK    6  A    between atoms: C_24  and  C_25
REMARK                            x       y       z     vdW  Elec       q    Type
REMARK                         _______ _______ _______ _____ _____    ______ ____
ROOT
ATOM      1  N   UNL     1      -5.198  12.598  22.268  0.00  0.00    +0.000 NA
ATOM      2  C   UNL     1      -4.623  12.649  21.094  0.00  0.00    +0.000 C 
ATOM      3  N   UNL     1      -5.476  12.639  19.975  0.00  0.00    +0.000 N 
ATOM      4  C   UNL     1      -6.307  11.427  19.718  0.00  0.00    +0.000 C 
ATOM      5  C   UNL     1      -7.366  11.142  20.784  0.00  0.00    +0.000 C 
ATOM      6  C   UNL     1      -6.941  11.435  18.315  0.00  0.00    +0.000 C 
ATOM      7  C   UNL     1      -7.597  12.759  17.958  0.00  0.00    +0.000 C 
ATOM      8  C   UNL     1      -6.561  13.866  18.089  0.00  0.00    +0.000 C 
ATOM      9  C   UNL     1      -5.991  13.952  19.510  0.00  0.00    +0.000 C 
ATOM     10  C   UNL     1      -7.007  14.585  20.467  0.00  0.00    +0.000 C 
ENDROOT
BRANCH   2  11
ATOM     11  C   UNL     1      -3.117  12.758  20.934  0.00  0.00    +0.000 C 
ATOM     12  C   UNL     1      -2.279  12.423  19.934  0.00  0.00    +0.000 C 
ATOM     13  C   UNL     1      -0.776  12.490  20.164  0.00  0.00    +0.000 C 
ATOM     14  C   UNL     1      -0.173  11.084  20.067  0.00  0.00    +0.000 C 
ATOM     15  C   UNL     1      -0.537  10.393  18.752  0.00  0.00    +0.000 C 
ATOM     16  C   UNL     1      -2.042  10.439  18.467  0.00  0.00    +0.000 C 
ATOM     17  C   UNL     1      -2.616  11.854  18.587  0.00  0.00    +0.000 C 
ENDBRANCH   2  11
BRANCH   1  18
ATOM     18  S   UNL     1      -4.417  12.528  23.681  0.00  0.00    +0.000 S 
ATOM     19  O   UNL     1      -3.139  11.850  23.511  0.00  0.00    +0.000 OA
ATOM     20  O   UNL     1      -5.335  12.121  24.721  0.00  0.00    +0.000 OA
BRANCH  18  25
ATOM     21  C   UNL     1      -3.275  18.173  25.566  0.00  0.00    +0.000 C 
ATOM     22  C   UNL     1      -3.483  16.805  24.985  0.00  0.00    +0.000 A 
ATOM     23  C   UNL     1      -2.496  15.816  25.100  0.00  0.00    +0.000 A 
ATOM     24  C   UNL     1      -2.731  14.519  24.637  0.00  0.00    +0.000 A 
ATOM     25  C   UNL     1      -3.962  14.214  24.054  0.00  0.00    +0.000 A 
ATOM     26  C   UNL     1      -4.934  15.205  23.883  0.00  0.00    +0.000 A 
ATOM     27  C   UNL     1      -4.692  16.498  24.346  0.00  0.00    +0.000 A 
ENDBRANCH  18  25
ENDBRANCH   1  18
TORSDOF 3
ENDMDL
MODEL 9
REMARK VINA RESULT:      -7.1      6.306     10.039
REMARK  Name = 
REMARK  6 active torsions:
REMARK  status: ('A' for Active; 'I' for Inactive)
REMARK    1  A    between atoms: C_1  and  C_2
REMARK    2  A    between atoms: C_5  and  S_6
REMARK    3  A    between atoms: S_6  and  N_9
REMARK    4  A    between atoms: C_10  and  C_11
REMARK    5  A    between atoms: C_19  and  C_20
REMARK    6  A    between atoms: C_24  and  C_25
REMARK                            x       y       z     vdW  Elec       q    Type
REMARK                         _______ _______ _______ _____ _____    ______ ____
ROOT
ATOM      1  N   UNL     1      -2.725  13.923  22.098  0.00  0.00    +0.000 NA
ATOM      2  C   UNL     1      -3.241  13.372  21.029  0.00  0.00    +0.000 C 
ATOM      3  N   UNL     1      -4.646  13.333  20.957  0.00  0.00    +0.000 N 
ATOM      4  C   UNL     1      -5.392  12.517  21.958  0.00  0.00    +0.000 C 
ATOM      5  C   UNL     1      -5.276  13.015  23.400  0.00  0.00    +0.000 C 
ATOM      6  C   UNL     1      -6.869  12.319  21.573  0.00  0.00    +0.000 C 
ATOM      7  C   UNL     1      -7.557  13.604  21.140  0.00  0.00    +0.000 C 
ATOM      8  C   UNL     1      -6.773  14.210  19.984  0.00  0.00    +0.000 C 
ATOM      9  C   UNL     1      -5.323  14.520  20.376  0.00  0.00    +0.000 C 
ATOM     10  C   UNL     1      -5.254  15.763  21.270  0.00  0.00    +0.000 C 
ENDROOT
BRANCH   2  11
ATOM     11  C   UNL     1      -2.380  12.840  19.897  0.00  0.00    +0.000 C 
ATOM     12  C   UNL     1      -2.676  12.199  18.750  0.00  0.00    +0.000 C 
ATOM     13  C   UNL     1      -1.550  11.623  17.902  0.00  0.00    +0.000 C 
ATOM     14  C   UNL     1      -1.669  10.096  17.850  0.00  0.00    +0.000 C 
ATOM     15  C   UNL     1      -3.051   9.644  17.376  0.00  0.00    +0.000 C 
ATOM     16  C   UNL     1      -4.184  10.324  18.153  0.00  0.00    +0.000 C 
ATOM     17  C   UNL     1      -4.028  11.847  18.200  0.00  0.00    +0.000 C 
ENDBRANCH   2  11
BRANCH   1  18
ATOM     18  S   UNL     1      -1.145  14.015  22.423  0.00  0.00    +0.000 S 
ATOM     19  O   UNL     1      -0.944  14.307  23.837  0.00  0.00    +0.000 OA
ATOM     20  O   UNL     1      -0.488  14.804  21.406  0.00  0.00    +0.000 OA
BRANCH  18  25
ATOM     21  C   UNL     1       0.326   8.222  21.421  0.00  0.00    +0.000 C 
ATOM     22  C   UNL     1       0.082   9.669  21.740  0.00  0.00    +0.000 A 
ATOM     23  C   UNL     1       0.686  10.684  20.985  0.00  0.00    +0.000 A 
ATOM     24  C   UNL     1       0.385  12.027  21.229  0.00  0.00    +0.000 A 
ATOM     25  C   UNL     1      -0.526  12.351  22.236  0.00  0.00    +0.000 A 
ATOM     26  C   UNL     1      -1.093  11.350  23.033  0.00  0.00    +0.000 A 
ATOM     27  C   UNL     1      -0.785  10.013  22.785  0.00  0.00    +0.000 A 
ENDBRANCH  18  25
ENDBRANCH   1  18
TORSDOF 3
ENDMDL
