MODEL 1
REMARK VINA RESULT:      -9.0      0.000      0.000
REMARK  Name = 
REMARK  6 active torsions:
REMARK  status: ('A' for Active; 'I' for Inactive)
REMARK    1  A    between atoms: C_1  and  C_2
REMARK    2  A    between atoms: C_4  and  O_5
REMARK    3  A    between atoms: O_5  and  C_6
REMARK    4  A    between atoms: C_20  and  C_21
REMARK    5  A    between atoms: C_22  and  C_23
REMARK    6  A    between atoms: N_29  and  C_30
REMARK                            x       y       z     vdW  Elec       q    Type
REMARK                         _______ _______ _______ _____ _____    ______ ____
ROOT
ATOM      1  C   UNL     1      -0.143   9.832  21.581  0.00  0.00    +0.000 C 
ATOM      2  C   UNL     1       0.728   9.213  20.520  0.00  0.00    +0.000 A 
ATOM      3  C   UNL     1       1.487   8.073  20.844  0.00  0.00    +0.000 A 
ATOM      4  C   UNL     1       2.255   7.423  19.876  0.00  0.00    +0.000 A 
ATOM      5  C   UNL     1       2.231   7.876  18.559  0.00  0.00    +0.000 A 
ATOM      6  C   UNL     1       1.522   9.030  18.230  0.00  0.00    +0.000 A 
ATOM      7  C   UNL     1       0.778   9.716  19.201  0.00  0.00    +0.000 A 
ENDROOT
BRANCH   7   8
ATOM      8  C   UNL     1       0.015  10.911  18.767  0.00  0.00    +0.000 A 
ATOM      9  C   UNL     1      -1.208  10.745  18.233  0.00  0.00    +0.000 A 
ATOM     10  C   UNL     1      -1.940   9.451  17.997  0.00  0.00    +0.000 C 
ATOM     11  C   UNL     1      -1.949  11.954  17.798  0.00  0.00    +0.000 A 
ATOM     12  O   UNL     1      -3.037  11.882  17.233  0.00  0.00    +0.000 OA
ATOM     13  N   UNL     1      -1.357  13.147  18.050  0.00  0.00    +0.000 N 
ATOM     14  C   UNL     1      -0.087  13.329  18.510  0.00  0.00    +0.000 A 
ATOM     15  O   UNL     1       0.378  14.466  18.565  0.00  0.00    +0.000 OA
ATOM     16  N   UNL     1       0.599  12.176  18.871  0.00  0.00    +0.000 N 
ATOM     17  C   UNL     1       1.987  12.330  19.301  0.00  0.00    +0.000 C 
ATOM     18  H   UNL     1      -1.840  13.976  17.739  0.00  0.00    +0.000 HD
ENDBRANCH   7   8
BRANCH   4  19
ATOM     19  O   UNL     1       2.919   6.293  20.292  0.00  0.00    +0.000 OA
BRANCH  19  20
ATOM     20  C   UNL     1       2.401   5.048  19.956  0.00  0.00    +0.000 A 
ATOM     21  N   UNL     1       1.356   4.532  20.642  0.00  0.00    +0.000 NA
ATOM     22  C   UNL     1       0.904   3.321  20.281  0.00  0.00    +0.000 A 
ATOM     23  N   UNL     1       1.344   2.546  19.284  0.00  0.00    +0.000 NA
ATOM     24  C   UNL     1       2.351   3.116  18.599  0.00  0.00    +0.000 A 
ATOM     25  S   UNL     1       3.064   2.323  17.246  0.00  0.00    +0.000 S 
ATOM     26  C   UNL     1       4.110   3.605  17.020  0.00  0.00    +0.000 A 
ATOM     27  C   UNL     1       3.959   4.616  17.929  0.00  0.00    +0.000 A 
ATOM     28  C   UNL     1       2.929   4.356  18.865  0.00  0.00    +0.000 A 
ATOM     29  C   UNL     1       4.919   5.717  17.670  0.00  0.00    +0.000 C 
ATOM     30  C   UNL     1       5.418   5.380  16.229  0.00  0.00    +0.000 C 
ATOM     31  C   UNL     1       5.172   3.853  16.017  0.00  0.00    +0.000 C 
ENDBRANCH  19  20
ENDBRANCH   4  19
TORSDOF 3
ENDMDL
MODEL 2
REMARK VINA RESULT:      -8.9      0.513      1.953
REMARK  Name = 
REMARK  6 active torsions:
REMARK  status: ('A' for Active; 'I' for Inactive)
REMARK    1  A    between atoms: C_1  and  C_2
REMARK    2  A    between atoms: C_4  and  O_5
REMARK    3  A    between atoms: O_5  and  C_6
REMARK    4  A    between atoms: C_20  and  C_21
REMARK    5  A    between atoms: C_22  and  C_23
REMARK    6  A    between atoms: N_29  and  C_30
REMARK                            x       y       z     vdW  Elec       q    Type
REMARK                         _______ _______ _______ _____ _____    ______ ____
ROOT
ATOM      1  C   UNL     1      -0.245   9.809  21.519  0.00  0.00    +0.000 C 
ATOM      2  C   UNL     1       0.679   9.213  20.490  0.00  0.00    +0.000 A 
ATOM      3  C   UNL     1       1.425   8.070  20.828  0.00  0.00    +0.000 A 
ATOM      4  C   UNL     1       2.241   7.441  19.886  0.00  0.00    +0.000 A 
ATOM      5  C   UNL     1       2.279   7.920  18.578  0.00  0.00    +0.000 A 
ATOM      6  C   UNL     1       1.583   9.077  18.238  0.00  0.00    +0.000 A 
ATOM      7  C   UNL     1       0.790   9.743  19.185  0.00  0.00    +0.000 A 
ENDROOT
BRANCH   7   8
ATOM      8  C   UNL     1       0.045  10.943  18.738  0.00  0.00    +0.000 A 
ATOM      9  C   UNL     1       0.598  12.156  18.913  0.00  0.00    +0.000 A 
ATOM     10  C   UNL     1       1.931  12.477  19.536  0.00  0.00    +0.000 C 
ATOM     11  C   UNL     1      -0.170  13.344  18.467  0.00  0.00    +0.000 A 
ATOM     12  O   UNL     1       0.233  14.489  18.659  0.00  0.00    +0.000 OA
ATOM     13  N   UNL     1      -1.347  13.102  17.841  0.00  0.00    +0.000 N 
ATOM     14  C   UNL     1      -1.960  11.889  17.733  0.00  0.00    +0.000 A 
ATOM     15  O   UNL     1      -3.094  11.827  17.260  0.00  0.00    +0.000 OA
ATOM     16  N   UNL     1      -1.235  10.798  18.197  0.00  0.00    +0.000 N 
ATOM     17  C   UNL     1      -1.893   9.493  18.160  0.00  0.00    +0.000 C 
ATOM     18  H   UNL     1      -1.889  13.901  17.553  0.00  0.00    +0.000 HD
ENDBRANCH   7   8
BRANCH   4  19
ATOM     19  O   UNL     1       2.889   6.305  20.312  0.00  0.00    +0.000 OA
BRANCH  19  20
ATOM     20  C   UNL     1       2.359   5.064  19.976  0.00  0.00    +0.000 A 
ATOM     21  N   UNL     1       1.295   4.568  20.648  0.00  0.00    +0.000 NA
ATOM     22  C   UNL     1       0.833   3.361  20.288  0.00  0.00    +0.000 A 
ATOM     23  N   UNL     1       1.279   2.573  19.304  0.00  0.00    +0.000 NA
ATOM     24  C   UNL     1       2.305   3.124  18.632  0.00  0.00    +0.000 A 
ATOM     25  S   UNL     1       3.030   2.310  17.298  0.00  0.00    +0.000 S 
ATOM     26  C   UNL     1       4.097   3.577  17.080  0.00  0.00    +0.000 A 
ATOM     27  C   UNL     1       3.945   4.596  17.979  0.00  0.00    +0.000 A 
ATOM     28  C   UNL     1       2.896   4.357  18.899  0.00  0.00    +0.000 A 
ATOM     29  C   UNL     1       4.925   5.682  17.728  0.00  0.00    +0.000 C 
ATOM     30  C   UNL     1       5.443   5.327  16.299  0.00  0.00    +0.000 C 
ATOM     31  C   UNL     1       5.179   3.802  16.093  0.00  0.00    +0.000 C 
ENDBRANCH  19  20
ENDBRANCH   4  19
TORSDOF 3
ENDMDL
MODEL 3
REMARK VINA RESULT:      -8.7      1.195      1.439
REMARK  Name = 
REMARK  6 active torsions:
REMARK  status: ('A' for Active; 'I' for Inactive)
REMARK    1  A    between atoms: C_1  and  C_2
REMARK    2  A    between atoms: C_4  and  O_5
REMARK    3  A    between atoms: O_5  and  C_6
REMARK    4  A    between atoms: C_20  and  C_21
REMARK    5  A    between atoms: C_22  and  C_23
REMARK    6  A    between atoms: N_29  and  C_30
REMARK                            x       y       z     vdW  Elec       q    Type
REMARK                         _______ _______ _______ _____ _____    ______ ____
ROOT
ATOM      1  C   UNL     1      -0.251   9.230  21.766  0.00  0.00    +0.000 C 
ATOM      2  C   UNL     1       0.641   8.968  20.582  0.00  0.00    +0.000 A 
ATOM      3  C   UNL     1       1.518   7.869  20.622  0.00  0.00    +0.000 A 
ATOM      4  C   UNL     1       2.314   7.545  19.521  0.00  0.00    +0.000 A 
ATOM      5  C   UNL     1       2.202   8.288  18.347  0.00  0.00    +0.000 A 
ATOM      6  C   UNL     1       1.373   9.407  18.306  0.00  0.00    +0.000 A 
ATOM      7  C   UNL     1       0.597   9.767  19.417  0.00  0.00    +0.000 A 
ENDROOT
BRANCH   7   8
ATOM      8  C   UNL     1      -0.293  10.945  19.284  0.00  0.00    +0.000 A 
ATOM      9  C   UNL     1      -1.466  10.806  18.640  0.00  0.00    +0.000 A 
ATOM     10  C   UNL     1      -2.021   9.562  18.001  0.00  0.00    +0.000 C 
ATOM     11  C   UNL     1      -2.336  12.001  18.511  0.00  0.00    +0.000 A 
ATOM     12  O   UNL     1      -3.386  11.974  17.874  0.00  0.00    +0.000 OA
ATOM     13  N   UNL     1      -1.908  13.128  19.129  0.00  0.00    +0.000 N 
ATOM     14  C   UNL     1      -0.687  13.309  19.708  0.00  0.00    +0.000 A 
ATOM     15  O   UNL     1      -0.371  14.427  20.112  0.00  0.00    +0.000 OA
ATOM     16  N   UNL     1       0.125  12.183  19.779  0.00  0.00    +0.000 N 
ATOM     17  C   UNL     1       1.466  12.359  20.330  0.00  0.00    +0.000 C 
ATOM     18  H   UNL     1      -2.479  13.953  19.029  0.00  0.00    +0.000 HD
ENDBRANCH   7   8
BRANCH   4  19
ATOM     19  O   UNL     1       3.099   6.423  19.654  0.00  0.00    +0.000 OA
BRANCH  19  20
ATOM     20  C   UNL     1       2.883   5.348  18.800  0.00  0.00    +0.000 A 
ATOM     21  N   UNL     1       1.684   4.723  18.774  0.00  0.00    +0.000 NA
ATOM     22  C   UNL     1       1.536   3.684  17.938  0.00  0.00    +0.000 A 
ATOM     23  N   UNL     1       2.434   3.187  17.081  0.00  0.00    +0.000 NA
ATOM     24  C   UNL     1       3.594   3.866  17.105  0.00  0.00    +0.000 A 
ATOM     25  S   UNL     1       4.897   3.433  16.064  0.00  0.00    +0.000 S 
ATOM     26  C   UNL     1       5.832   4.669  16.687  0.00  0.00    +0.000 A 
ATOM     27  C   UNL     1       5.212   5.401  17.662  0.00  0.00    +0.000 A 
ATOM     28  C   UNL     1       3.896   4.952  17.925  0.00  0.00    +0.000 A 
ATOM     29  C   UNL     1       6.100   6.476  18.170  0.00  0.00    +0.000 C 
ATOM     30  C   UNL     1       7.216   6.518  17.079  0.00  0.00    +0.000 C 
ATOM     31  C   UNL     1       7.208   5.123  16.378  0.00  0.00    +0.000 C 
ENDBRANCH  19  20
ENDBRANCH   4  19
TORSDOF 3
ENDMDL
MODEL 4
REMARK VINA RESULT:      -8.7      1.118      2.328
REMARK  Name = 
REMARK  6 active torsions:
REMARK  status: ('A' for Active; 'I' for Inactive)
REMARK    1  A    between atoms: C_1  and  C_2
REMARK    2  A    between atoms: C_4  and  O_5
REMARK    3  A    between atoms: O_5  and  C_6
REMARK    4  A    between atoms: C_20  and  C_21
REMARK    5  A    between atoms: C_22  and  C_23
REMARK    6  A    between atoms: N_29  and  C_30
REMARK                            x       y       z     vdW  Elec       q    Type
REMARK                         _______ _______ _______ _____ _____    ______ ____
ROOT
ATOM      1  C   UNL     1       0.035   9.597  21.381  0.00  0.00    +0.000 C 
ATOM      2  C   UNL     1       0.885   9.094  20.244  0.00  0.00    +0.000 A 
ATOM      3  C   UNL     1       1.656   7.933  20.435  0.00  0.00    +0.000 A 
ATOM      4  C   UNL     1       2.405   7.389  19.389  0.00  0.00    +0.000 A 
ATOM      5  C   UNL     1       2.349   7.974  18.125  0.00  0.00    +0.000 A 
ATOM      6  C   UNL     1       1.628   9.149  17.930  0.00  0.00    +0.000 A 
ATOM      7  C   UNL     1       0.902   9.729  18.982  0.00  0.00    +0.000 A 
ENDROOT
BRANCH   7   8
ATOM      8  C   UNL     1       0.125  10.956  18.689  0.00  0.00    +0.000 A 
ATOM      9  C   UNL     1       0.694  12.155  18.904  0.00  0.00    +0.000 A 
ATOM     10  C   UNL     1       2.075  12.435  19.434  0.00  0.00    +0.000 C 
ATOM     11  C   UNL     1      -0.107  13.370  18.612  0.00  0.00    +0.000 A 
ATOM     12  O   UNL     1       0.313  14.499  18.852  0.00  0.00    +0.000 OA
ATOM     13  N   UNL     1      -1.333  13.168  18.071  0.00  0.00    +0.000 N 
ATOM     14  C   UNL     1      -1.956  11.964  17.928  0.00  0.00    +0.000 A 
ATOM     15  O   UNL     1      -3.126  11.932  17.550  0.00  0.00    +0.000 OA
ATOM     16  N   UNL     1      -1.196  10.845  18.248  0.00  0.00    +0.000 N 
ATOM     17  C   UNL     1      -1.858   9.544  18.173  0.00  0.00    +0.000 C 
ATOM     18  H   UNL     1      -1.896  13.985  17.889  0.00  0.00    +0.000 HD
ENDBRANCH   7   8
BRANCH   4  19
ATOM     19  O   UNL     1       3.083   6.227  19.674  0.00  0.00    +0.000 OA
BRANCH  19  20
ATOM     20  C   UNL     1       2.904   5.125  18.848  0.00  0.00    +0.000 A 
ATOM     21  N   UNL     1       1.732   4.450  18.849  0.00  0.00    +0.000 NA
ATOM     22  C   UNL     1       1.618   3.387  18.039  0.00  0.00    +0.000 A 
ATOM     23  N   UNL     1       2.527   2.909  17.182  0.00  0.00    +0.000 NA
ATOM     24  C   UNL     1       3.658   3.636  17.177  0.00  0.00    +0.000 A 
ATOM     25  S   UNL     1       4.966   3.234  16.130  0.00  0.00    +0.000 S 
ATOM     26  C   UNL     1       5.855   4.522  16.714  0.00  0.00    +0.000 A 
ATOM     27  C   UNL     1       5.216   5.249  17.681  0.00  0.00    +0.000 A 
ATOM     28  C   UNL     1       3.922   4.752  17.969  0.00  0.00    +0.000 A 
ATOM     29  C   UNL     1       6.064   6.371  18.154  0.00  0.00    +0.000 C 
ATOM     30  C   UNL     1       7.164   6.435  17.049  0.00  0.00    +0.000 C 
ATOM     31  C   UNL     1       7.207   5.026  16.379  0.00  0.00    +0.000 C 
ENDBRANCH  19  20
ENDBRANCH   4  19
TORSDOF 3
ENDMDL
MODEL 5
REMARK VINA RESULT:      -8.5      0.838      1.428
REMARK  Name = 
REMARK  6 active torsions:
REMARK  status: ('A' for Active; 'I' for Inactive)
REMARK    1  A    between atoms: C_1  and  C_2
REMARK    2  A    between atoms: C_4  and  O_5
REMARK    3  A    between atoms: O_5  and  C_6
REMARK    4  A    between atoms: C_20  and  C_21
REMARK    5  A    between atoms: C_22  and  C_23
REMARK    6  A    between atoms: N_29  and  C_30
REMARK                            x       y       z     vdW  Elec       q    Type
REMARK                         _______ _______ _______ _____ _____    ______ ____
ROOT
ATOM      1  C   UNL     1       1.751  10.124  17.626  0.00  0.00    +0.000 C 
ATOM      2  C   UNL     1       1.415   9.307  18.845  0.00  0.00    +0.000 A 
ATOM      3  C   UNL     1       2.168   8.150  19.115  0.00  0.00    +0.000 A 
ATOM      4  C   UNL     1       1.940   7.398  20.271  0.00  0.00    +0.000 A 
ATOM      5  C   UNL     1       0.990   7.828  21.195  0.00  0.00    +0.000 A 
ATOM      6  C   UNL     1       0.205   8.945  20.921  0.00  0.00    +0.000 A 
ATOM      7  C   UNL     1       0.395   9.687  19.746  0.00  0.00    +0.000 A 
ENDROOT
BRANCH   7   8
ATOM      8  C   UNL     1      -0.449  10.887  19.544  0.00  0.00    +0.000 A 
ATOM      9  C   UNL     1      -1.552  10.787  18.781  0.00  0.00    +0.000 A 
ATOM     10  C   UNL     1      -2.067   9.567  18.065  0.00  0.00    +0.000 C 
ATOM     11  C   UNL     1      -2.377  12.005  18.585  0.00  0.00    +0.000 A 
ATOM     12  O   UNL     1      -3.356  12.014  17.843  0.00  0.00    +0.000 OA
ATOM     13  N   UNL     1      -1.990  13.112  19.263  0.00  0.00    +0.000 N 
ATOM     14  C   UNL     1      -0.831  13.253  19.969  0.00  0.00    +0.000 A 
ATOM     15  O   UNL     1      -0.533  14.357  20.423  0.00  0.00    +0.000 OA
ATOM     16  N   UNL     1      -0.057  12.107  20.101  0.00  0.00    +0.000 N 
ATOM     17  C   UNL     1       1.224  12.241  20.791  0.00  0.00    +0.000 C 
ATOM     18  H   UNL     1      -2.529  13.952  19.121  0.00  0.00    +0.000 HD
ENDBRANCH   7   8
BRANCH   4  19
ATOM     19  O   UNL     1       2.765   6.314  20.456  0.00  0.00    +0.000 OA
BRANCH  19  20
ATOM     20  C   UNL     1       2.305   5.051  20.100  0.00  0.00    +0.000 A 
ATOM     21  N   UNL     1       1.324   4.452  20.813  0.00  0.00    +0.000 NA
ATOM     22  C   UNL     1       0.927   3.229  20.430  0.00  0.00    +0.000 A 
ATOM     23  N   UNL     1       1.365   2.514  19.389  0.00  0.00    +0.000 NA
ATOM     24  C   UNL     1       2.305   3.165  18.680  0.00  0.00    +0.000 A 
ATOM     25  S   UNL     1       3.000   2.459  17.270  0.00  0.00    +0.000 S 
ATOM     26  C   UNL     1       3.958   3.809  17.043  0.00  0.00    +0.000 A 
ATOM     27  C   UNL     1       3.790   4.779  17.992  0.00  0.00    +0.000 A 
ATOM     28  C   UNL     1       2.822   4.428  18.963  0.00  0.00    +0.000 A 
ATOM     29  C   UNL     1       4.672   5.943  17.729  0.00  0.00    +0.000 C 
ATOM     30  C   UNL     1       5.122   5.683  16.258  0.00  0.00    +0.000 C 
ATOM     31  C   UNL     1       4.955   4.151  16.003  0.00  0.00    +0.000 C 
ENDBRANCH  19  20
ENDBRANCH   4  19
TORSDOF 3
ENDMDL
MODEL 6
REMARK VINA RESULT:      -8.4      1.540      2.719
REMARK  Name = 
REMARK  6 active torsions:
REMARK  status: ('A' for Active; 'I' for Inactive)
REMARK    1  A    between atoms: C_1  and  C_2
REMARK    2  A    between atoms: C_4  and  O_5
REMARK    3  A    between atoms: O_5  and  C_6
REMARK    4  A    between atoms: C_20  and  C_21
REMARK    5  A    between atoms: C_22  and  C_23
REMARK    6  A    between atoms: N_29  and  C_30
REMARK                            x       y       z     vdW  Elec       q    Type
REMARK                         _______ _______ _______ _____ _____    ______ ____
ROOT
ATOM      1  C   UNL     1      -0.298   9.033  21.416  0.00  0.00    +0.000 C 
ATOM      2  C   UNL     1       0.710   8.943  20.302  0.00  0.00    +0.000 A 
ATOM      3  C   UNL     1       1.717   7.963  20.375  0.00  0.00    +0.000 A 
ATOM      4  C   UNL     1       2.632   7.795  19.333  0.00  0.00    +0.000 A 
ATOM      5  C   UNL     1       2.516   8.572  18.182  0.00  0.00    +0.000 A 
ATOM      6  C   UNL     1       1.554   9.576  18.112  0.00  0.00    +0.000 A 
ATOM      7  C   UNL     1       0.653   9.784  19.167  0.00  0.00    +0.000 A 
ENDROOT
BRANCH   7   8
ATOM      8  C   UNL     1      -0.369  10.843  19.003  0.00  0.00    +0.000 A 
ATOM      9  C   UNL     1      -1.406  10.626  18.175  0.00  0.00    +0.000 A 
ATOM     10  C   UNL     1      -1.679   9.398  17.347  0.00  0.00    +0.000 C 
ATOM     11  C   UNL     1      -2.413  11.704  18.019  0.00  0.00    +0.000 A 
ATOM     12  O   UNL     1      -3.346  11.613  17.226  0.00  0.00    +0.000 OA
ATOM     13  N   UNL     1      -2.244  12.803  18.794  0.00  0.00    +0.000 N 
ATOM     14  C   UNL     1      -1.157  13.075  19.571  0.00  0.00    +0.000 A 
ATOM     15  O   UNL     1      -1.067  14.173  20.118  0.00  0.00    +0.000 OA
ATOM     16  N   UNL     1      -0.210  12.063  19.666  0.00  0.00    +0.000 N 
ATOM     17  C   UNL     1       1.000  12.349  20.434  0.00  0.00    +0.000 C 
ATOM     18  H   UNL     1      -2.909  13.553  18.681  0.00  0.00    +0.000 HD
ENDBRANCH   7   8
BRANCH   4  19
ATOM     19  O   UNL     1       3.544   6.777  19.490  0.00  0.00    +0.000 OA
BRANCH  19  20
ATOM     20  C   UNL     1       3.785   5.921  18.422  0.00  0.00    +0.000 A 
ATOM     21  N   UNL     1       4.650   6.272  17.444  0.00  0.00    +0.000 NA
ATOM     22  C   UNL     1       4.836   5.411  16.432  0.00  0.00    +0.000 A 
ATOM     23  N   UNL     1       4.286   4.203  16.272  0.00  0.00    +0.000 NA
ATOM     24  C   UNL     1       3.471   3.874  17.290  0.00  0.00    +0.000 A 
ATOM     25  S   UNL     1       2.670   2.349  17.326  0.00  0.00    +0.000 S 
ATOM     26  C   UNL     1       1.953   2.738  18.783  0.00  0.00    +0.000 A 
ATOM     27  C   UNL     1       2.280   3.980  19.252  0.00  0.00    +0.000 A 
ATOM     28  C   UNL     1       3.173   4.667  18.396  0.00  0.00    +0.000 A 
ATOM     29  C   UNL     1       1.606   4.258  20.545  0.00  0.00    +0.000 C 
ATOM     30  C   UNL     1       1.121   2.837  20.971  0.00  0.00    +0.000 C 
ATOM     31  C   UNL     1       1.029   1.986  19.665  0.00  0.00    +0.000 C 
ENDBRANCH  19  20
ENDBRANCH   4  19
TORSDOF 3
ENDMDL
MODEL 7
REMARK VINA RESULT:      -8.2      1.118      2.168
REMARK  Name = 
REMARK  6 active torsions:
REMARK  status: ('A' for Active; 'I' for Inactive)
REMARK    1  A    between atoms: C_1  and  C_2
REMARK    2  A    between atoms: C_4  and  O_5
REMARK    3  A    between atoms: O_5  and  C_6
REMARK    4  A    between atoms: C_20  and  C_21
REMARK    5  A    between atoms: C_22  and  C_23
REMARK    6  A    between atoms: N_29  and  C_30
REMARK                            x       y       z     vdW  Elec       q    Type
REMARK                         _______ _______ _______ _____ _____    ______ ____
ROOT
ATOM      1  C   UNL     1      -0.577   9.372  22.140  0.00  0.00    +0.000 C 
ATOM      2  C   UNL     1       0.335   9.150  20.962  0.00  0.00    +0.000 A 
ATOM      3  C   UNL     1       1.251   8.083  21.005  0.00  0.00    +0.000 A 
ATOM      4  C   UNL     1       2.068   7.794  19.910  0.00  0.00    +0.000 A 
ATOM      5  C   UNL     1       1.940   8.539  18.739  0.00  0.00    +0.000 A 
ATOM      6  C   UNL     1       1.070   9.626  18.695  0.00  0.00    +0.000 A 
ATOM      7  C   UNL     1       0.272   9.953  19.802  0.00  0.00    +0.000 A 
ENDROOT
BRANCH   7   8
ATOM      8  C   UNL     1      -0.659  11.097  19.666  0.00  0.00    +0.000 A 
ATOM      9  C   UNL     1      -0.340  12.270  20.244  0.00  0.00    +0.000 A 
ATOM     10  C   UNL     1       0.887  12.590  21.054  0.00  0.00    +0.000 C 
ATOM     11  C   UNL     1      -1.292  13.399  20.102  0.00  0.00    +0.000 A 
ATOM     12  O   UNL     1      -1.110  14.477  20.662  0.00  0.00    +0.000 OA
ATOM     13  N   UNL     1      -2.381  13.177  19.327  0.00  0.00    +0.000 N 
ATOM     14  C   UNL     1      -2.761  11.975  18.807  0.00  0.00    +0.000 A 
ATOM     15  O   UNL     1      -3.846  11.881  18.235  0.00  0.00    +0.000 OA
ATOM     16  N   UNL     1      -1.870  10.924  18.990  0.00  0.00    +0.000 N 
ATOM     17  C   UNL     1      -2.280   9.608  18.507  0.00  0.00    +0.000 C 
ATOM     18  H   UNL     1      -3.046  13.929  19.241  0.00  0.00    +0.000 HD
ENDBRANCH   7   8
BRANCH   4  19
ATOM     19  O   UNL     1       2.892   6.702  20.045  0.00  0.00    +0.000 OA
BRANCH  19  20
ATOM     20  C   UNL     1       2.375   5.436  19.799  0.00  0.00    +0.000 A 
ATOM     21  N   UNL     1       1.353   4.956  20.544  0.00  0.00    +0.000 NA
ATOM     22  C   UNL     1       0.900   3.723  20.269  0.00  0.00    +0.000 A 
ATOM     23  N   UNL     1       1.319   2.892  19.308  0.00  0.00    +0.000 NA
ATOM     24  C   UNL     1       2.302   3.426  18.562  0.00  0.00    +0.000 A 
ATOM     25  S   UNL     1       2.983   2.556  17.240  0.00  0.00    +0.000 S 
ATOM     26  C   UNL     1       4.013   3.829  16.908  0.00  0.00    +0.000 A 
ATOM     27  C   UNL     1       3.879   4.892  17.758  0.00  0.00    +0.000 A 
ATOM     28  C   UNL     1       2.878   4.683  18.737  0.00  0.00    +0.000 A 
ATOM     29  C   UNL     1       4.824   5.981  17.406  0.00  0.00    +0.000 C 
ATOM     30  C   UNL     1       5.284   5.561  15.975  0.00  0.00    +0.000 C 
ATOM     31  C   UNL     1       5.044   4.022  15.862  0.00  0.00    +0.000 C 
ENDBRANCH  19  20
ENDBRANCH   4  19
TORSDOF 3
ENDMDL
MODEL 8
REMARK VINA RESULT:      -8.1      1.307      2.471
REMARK  Name = 
REMARK  6 active torsions:
REMARK  status: ('A' for Active; 'I' for Inactive)
REMARK    1  A    between atoms: C_1  and  C_2
REMARK    2  A    between atoms: C_4  and  O_5
REMARK    3  A    between atoms: O_5  and  C_6
REMARK    4  A    between atoms: C_20  and  C_21
REMARK    5  A    between atoms: C_22  and  C_23
REMARK    6  A    between atoms: N_29  and  C_30
REMARK                            x       y       z     vdW  Elec       q    Type
REMARK                         _______ _______ _______ _____ _____    ______ ____
ROOT
ATOM      1  C   UNL     1       1.408  10.567  17.824  0.00  0.00    +0.000 C 
ATOM      2  C   UNL     1       1.109   9.623  18.958  0.00  0.00    +0.000 A 
ATOM      3  C   UNL     1       1.960   8.523  19.168  0.00  0.00    +0.000 A 
ATOM      4  C   UNL     1       1.765   7.659  20.249  0.00  0.00    +0.000 A 
ATOM      5  C   UNL     1       0.746   7.920  21.162  0.00  0.00    +0.000 A 
ATOM      6  C   UNL     1      -0.133   8.978  20.945  0.00  0.00    +0.000 A 
ATOM      7  C   UNL     1       0.026   9.830  19.842  0.00  0.00    +0.000 A 
ENDROOT
BRANCH   7   8
ATOM      8  C   UNL     1      -0.922  10.959  19.700  0.00  0.00    +0.000 A 
ATOM      9  C   UNL     1      -0.774  12.038  20.490  0.00  0.00    +0.000 A 
ATOM     10  C   UNL     1       0.268  12.263  21.552  0.00  0.00    +0.000 C 
ATOM     11  C   UNL     1      -1.741  13.153  20.336  0.00  0.00    +0.000 A 
ATOM     12  O   UNL     1      -1.719  14.138  21.069  0.00  0.00    +0.000 OA
ATOM     13  N   UNL     1      -2.658  13.024  19.346  0.00  0.00    +0.000 N 
ATOM     14  C   UNL     1      -2.875  11.905  18.598  0.00  0.00    +0.000 A 
ATOM     15  O   UNL     1      -3.832  11.873  17.826  0.00  0.00    +0.000 OA
ATOM     16  N   UNL     1      -1.980  10.861  18.792  0.00  0.00    +0.000 N 
ATOM     17  C   UNL     1      -2.227   9.622  18.058  0.00  0.00    +0.000 C 
ATOM     18  H   UNL     1      -3.335  13.764  19.247  0.00  0.00    +0.000 HD
ENDBRANCH   7   8
BRANCH   4  19
ATOM     19  O   UNL     1       2.684   6.645  20.383  0.00  0.00    +0.000 OA
BRANCH  19  20
ATOM     20  C   UNL     1       2.302   5.347  20.065  0.00  0.00    +0.000 A 
ATOM     21  N   UNL     1       1.356   4.712  20.794  0.00  0.00    +0.000 NA
ATOM     22  C   UNL     1       1.035   3.456  20.448  0.00  0.00    +0.000 A 
ATOM     23  N   UNL     1       1.519   2.737  19.430  0.00  0.00    +0.000 NA
ATOM     24  C   UNL     1       2.420   3.422  18.703  0.00  0.00    +0.000 A 
ATOM     25  S   UNL     1       3.161   2.716  17.317  0.00  0.00    +0.000 S 
ATOM     26  C   UNL     1       4.037   4.113  17.050  0.00  0.00    +0.000 A 
ATOM     27  C   UNL     1       3.808   5.100  17.969  0.00  0.00    +0.000 A 
ATOM     28  C   UNL     1       2.859   4.721  18.948  0.00  0.00    +0.000 A 
ATOM     29  C   UNL     1       4.620   6.306  17.672  0.00  0.00    +0.000 C 
ATOM     30  C   UNL     1       5.090   6.029  16.209  0.00  0.00    +0.000 C 
ATOM     31  C   UNL     1       5.016   4.483  16.001  0.00  0.00    +0.000 C 
ENDBRANCH  19  20
ENDBRANCH   4  19
TORSDOF 3
ENDMDL
MODEL 9
REMARK VINA RESULT:      -8.0      1.470      3.282
REMARK  Name = 
REMARK  6 active torsions:
REMARK  status: ('A' for Active; 'I' for Inactive)
REMARK    1  A    between atoms: C_1  and  C_2
REMARK    2  A    between atoms: C_4  and  O_5
REMARK    3  A    between atoms: O_5  and  C_6
REMARK    4  A    between atoms: C_20  and  C_21
REMARK    5  A    between atoms: C_22  and  C_23
REMARK    6  A    between atoms: N_29  and  C_30
REMARK                            x       y       z     vdW  Elec       q    Type
REMARK                         _______ _______ _______ _____ _____    ______ ____
ROOT
ATOM      1  C   UNL     1       0.024   9.579  21.276  0.00  0.00    +0.000 C 
ATOM      2  C   UNL     1       0.953   9.219  20.148  0.00  0.00    +0.000 A 
ATOM      3  C   UNL     1       1.840   8.141  20.317  0.00  0.00    +0.000 A 
ATOM      4  C   UNL     1       2.672   7.725  19.275  0.00  0.00    +0.000 A 
ATOM      5  C   UNL     1       2.587   8.353  18.034  0.00  0.00    +0.000 A 
ATOM      6  C   UNL     1       1.747   9.451  17.862  0.00  0.00    +0.000 A 
ATOM      7  C   UNL     1       0.935   9.905  18.912  0.00  0.00    +0.000 A 
ENDROOT
BRANCH   7   8
ATOM      8  C   UNL     1       0.037  11.052  18.642  0.00  0.00    +0.000 A 
ATOM      9  C   UNL     1       0.461  12.294  18.935  0.00  0.00    +0.000 A 
ATOM     10  C   UNL     1       1.782  12.697  19.534  0.00  0.00    +0.000 C 
ATOM     11  C   UNL     1      -0.459  13.427  18.665  0.00  0.00    +0.000 A 
ATOM     12  O   UNL     1      -0.176  14.582  18.973  0.00  0.00    +0.000 OA
ATOM     13  N   UNL     1      -1.635  13.119  18.066  0.00  0.00    +0.000 N 
ATOM     14  C   UNL     1      -2.114  11.862  17.843  0.00  0.00    +0.000 A 
ATOM     15  O   UNL     1      -3.259  11.721  17.415  0.00  0.00    +0.000 OA
ATOM     16  N   UNL     1      -1.247  10.819  18.143  0.00  0.00    +0.000 N 
ATOM     17  C   UNL     1      -1.756   9.459  17.982  0.00  0.00    +0.000 C 
ATOM     18  H   UNL     1      -2.278  13.877  17.897  0.00  0.00    +0.000 HD
ENDBRANCH   7   8
BRANCH   4  19
ATOM     19  O   UNL     1       3.465   6.632  19.536  0.00  0.00    +0.000 OA
BRANCH  19  20
ATOM     20  C   UNL     1       3.794   5.776  18.492  0.00  0.00    +0.000 A 
ATOM     21  N   UNL     1       4.736   6.127  17.588  0.00  0.00    +0.000 NA
ATOM     22  C   UNL     1       5.005   5.266  16.594  0.00  0.00    +0.000 A 
ATOM     23  N   UNL     1       4.469   4.058  16.390  0.00  0.00    +0.000 NA
ATOM     24  C   UNL     1       3.573   3.729  17.337  0.00  0.00    +0.000 A 
ATOM     25  S   UNL     1       2.771   2.204  17.307  0.00  0.00    +0.000 S 
ATOM     26  C   UNL     1       1.937   2.593  18.700  0.00  0.00    +0.000 A 
ATOM     27  C   UNL     1       2.224   3.836  19.195  0.00  0.00    +0.000 A 
ATOM     28  C   UNL     1       3.186   4.522  18.415  0.00  0.00    +0.000 A 
ATOM     29  C   UNL     1       1.447   4.114  20.428  0.00  0.00    +0.000 C 
ATOM     30  C   UNL     1       0.928   2.693  20.812  0.00  0.00    +0.000 C 
ATOM     31  C   UNL     1       0.943   1.842  19.503  0.00  0.00    +0.000 C 
ENDBRANCH  19  20
ENDBRANCH   4  19
TORSDOF 3
ENDMDL
