MODEL 1
REMARK VINA RESULT:      -6.3      0.000      0.000
REMARK  Name = 
REMARK  4 active torsions:
REMARK  status: ('A' for Active; 'I' for Inactive)
REMARK    1  A    between atoms: O_1  and  C_2
REMARK    2  A    between atoms: C_2  and  C_3
REMARK    3  A    between atoms: C_12  and  C_13
REMARK    4  A    between atoms: C_13  and  O_14
REMARK                            x       y       z     vdW  Elec       q    Type
REMARK                         _______ _______ _______ _____ _____    ______ ____
ROOT
ATOM      1  C   UNK     1       1.872   2.851  19.506  0.00  0.00    +0.000 A 
ATOM      2  C   UNK     1       2.518   2.794  20.723  0.00  0.00    +0.000 A 
ATOM      3  S   UNK     1       4.180   3.084  20.522  0.00  0.00    +0.000 S 
ATOM      4  C   UNK     1       3.955   3.322  18.815  0.00  0.00    +0.000 A 
ATOM      5  N   UNK     1       4.985   3.668  17.962  0.00  0.00    +0.000 N 
ATOM      6  C   UNK     1       6.065   4.512  18.504  0.00  0.00    +0.000 C 
ATOM      7  C   UNK     1       7.252   4.716  17.563  0.00  0.00    +0.000 C 
ATOM      8  N   UNK     1       6.879   4.753  16.173  0.00  0.00    +0.000 N 
ATOM      9  N   UNK     1       7.780   5.103  15.232  0.00  0.00    +0.000 NA
ATOM     10  C   UNK     1       7.103   4.956  14.081  0.00  0.00    +0.000 A 
ATOM     11  C   UNK     1       5.780   4.499  14.308  0.00  0.00    +0.000 A 
ATOM     12  C   UNK     1       5.670   4.380  15.675  0.00  0.00    +0.000 A 
ATOM     13  C   UNK     1       4.567   3.958  16.583  0.00  0.00    +0.000 C 
ATOM     14  N   UNK     1       2.708   3.129  18.427  0.00  0.00    +0.000 NA
ENDROOT
BRANCH   1  15
ATOM     15  C   UNK     1       0.412   2.626  19.283  0.00  0.00    +0.000 C 
BRANCH  15  16
ATOM     16  O   UNK     1       0.165   1.710  18.215  0.00  0.00    +0.000 OA
ATOM     17  H   UNK     1       1.035   1.422  17.891  0.00  0.00    +0.000 HD
ENDBRANCH  15  16
ENDBRANCH   1  15
BRANCH  10  18
ATOM     18  C   UNK     1       7.772   5.246  12.775  0.00  0.00    +0.000 C 
BRANCH  18  19
ATOM     19  O   UNK     1       8.902   6.101  12.935  0.00  0.00    +0.000 OA
ATOM     20  H   UNK     1       8.788   6.781  12.243  0.00  0.00    +0.000 HD
ENDBRANCH  18  19
ENDBRANCH  10  18
TORSDOF 4
ENDMDL
MODEL 2
REMARK VINA RESULT:      -6.1      2.517      6.839
REMARK  Name = 
REMARK  4 active torsions:
REMARK  status: ('A' for Active; 'I' for Inactive)
REMARK    1  A    between atoms: O_1  and  C_2
REMARK    2  A    between atoms: C_2  and  C_3
REMARK    3  A    between atoms: C_12  and  C_13
REMARK    4  A    between atoms: C_13  and  O_14
REMARK                            x       y       z     vdW  Elec       q    Type
REMARK                         _______ _______ _______ _____ _____    ______ ____
ROOT
ATOM      1  C   UNK     1       6.158   3.894  13.400  0.00  0.00    +0.000 A 
ATOM      2  C   UNK     1       7.261   4.684  13.647  0.00  0.00    +0.000 A 
ATOM      3  S   UNK     1       7.218   5.274  15.240  0.00  0.00    +0.000 S 
ATOM      4  C   UNK     1       5.745   4.404  15.547  0.00  0.00    +0.000 A 
ATOM      5  N   UNK     1       5.117   4.397  16.777  0.00  0.00    +0.000 N 
ATOM      6  C   UNK     1       5.968   4.492  17.978  0.00  0.00    +0.000 C 
ATOM      7  C   UNK     1       5.206   4.652  19.292  0.00  0.00    +0.000 C 
ATOM      8  N   UNK     1       3.940   3.964  19.305  0.00  0.00    +0.000 N 
ATOM      9  N   UNK     1       3.232   3.858  20.449  0.00  0.00    +0.000 NA
ATOM     10  C   UNK     1       2.107   3.231  20.062  0.00  0.00    +0.000 A 
ATOM     11  C   UNK     1       2.112   2.961  18.670  0.00  0.00    +0.000 A 
ATOM     12  C   UNK     1       3.316   3.449  18.213  0.00  0.00    +0.000 A 
ATOM     13  C   UNK     1       3.963   3.492  16.872  0.00  0.00    +0.000 C 
ATOM     14  N   UNK     1       5.293   3.763  14.484  0.00  0.00    +0.000 NA
ENDROOT
BRANCH   1  15
ATOM     15  C   UNK     1       5.841   3.221  12.104  0.00  0.00    +0.000 C 
BRANCH  15  16
ATOM     16  O   UNK     1       6.734   2.142  11.825  0.00  0.00    +0.000 OA
ATOM     17  H   UNK     1       7.631   2.515  11.843  0.00  0.00    +0.000 HD
ENDBRANCH  15  16
ENDBRANCH   1  15
BRANCH  10  18
ATOM     18  C   UNK     1       1.036   2.928  21.061  0.00  0.00    +0.000 C 
BRANCH  18  19
ATOM     19  O   UNK     1       1.579   2.516  22.313  0.00  0.00    +0.000 OA
ATOM     20  H   UNK     1       1.741   1.559  22.202  0.00  0.00    +0.000 HD
ENDBRANCH  18  19
ENDBRANCH  10  18
TORSDOF 4
ENDMDL
MODEL 3
REMARK VINA RESULT:      -6.1      5.565      7.558
REMARK  Name = 
REMARK  4 active torsions:
REMARK  status: ('A' for Active; 'I' for Inactive)
REMARK    1  A    between atoms: O_1  and  C_2
REMARK    2  A    between atoms: C_2  and  C_3
REMARK    3  A    between atoms: C_12  and  C_13
REMARK    4  A    between atoms: C_13  and  O_14
REMARK                            x       y       z     vdW  Elec       q    Type
REMARK                         _______ _______ _______ _____ _____    ______ ____
ROOT
ATOM      1  C   UNK     1       3.816   3.327  19.433  0.00  0.00    +0.000 A 
ATOM      2  C   UNK     1       4.180   3.339  18.103  0.00  0.00    +0.000 A 
ATOM      3  S   UNK     1       3.617   4.754  17.351  0.00  0.00    +0.000 S 
ATOM      4  C   UNK     1       2.949   5.315  18.854  0.00  0.00    +0.000 A 
ATOM      5  N   UNK     1       2.324   6.539  18.989  0.00  0.00    +0.000 N 
ATOM      6  C   UNK     1       2.807   7.649  18.146  0.00  0.00    +0.000 C 
ATOM      7  C   UNK     1       1.966   8.923  18.220  0.00  0.00    +0.000 C 
ATOM      8  N   UNK     1       1.383   9.147  19.518  0.00  0.00    +0.000 N 
ATOM      9  N   UNK     1       0.765  10.313  19.797  0.00  0.00    +0.000 NA
ATOM     10  C   UNK     1       0.300  10.129  21.044  0.00  0.00    +0.000 A 
ATOM     11  C   UNK     1       0.618   8.838  21.535  0.00  0.00    +0.000 A 
ATOM     12  C   UNK     1       1.322   8.230  20.519  0.00  0.00    +0.000 A 
ATOM     13  C   UNK     1       1.951   6.889  20.367  0.00  0.00    +0.000 C 
ATOM     14  N   UNK     1       3.095   4.448  19.839  0.00  0.00    +0.000 NA
ENDROOT
BRANCH   1  15
ATOM     15  C   UNK     1       4.114   2.236  20.409  0.00  0.00    +0.000 C 
BRANCH  15  16
ATOM     16  O   UNK     1       5.344   1.573  20.116  0.00  0.00    +0.000 OA
ATOM     17  H   UNK     1       5.693   1.982  19.306  0.00  0.00    +0.000 HD
ENDBRANCH  15  16
ENDBRANCH   1  15
BRANCH  10  18
ATOM     18  C   UNK     1      -0.469  11.216  21.726  0.00  0.00    +0.000 C 
BRANCH  18  19
ATOM     19  O   UNK     1      -0.395  11.110  23.146  0.00  0.00    +0.000 OA
ATOM     20  H   UNK     1      -0.651  10.186  23.332  0.00  0.00    +0.000 HD
ENDBRANCH  18  19
ENDBRANCH  10  18
TORSDOF 4
ENDMDL
MODEL 4
REMARK VINA RESULT:      -5.9      2.964      6.665
REMARK  Name = 
REMARK  4 active torsions:
REMARK  status: ('A' for Active; 'I' for Inactive)
REMARK    1  A    between atoms: O_1  and  C_2
REMARK    2  A    between atoms: C_2  and  C_3
REMARK    3  A    between atoms: C_12  and  C_13
REMARK    4  A    between atoms: C_13  and  O_14
REMARK                            x       y       z     vdW  Elec       q    Type
REMARK                         _______ _______ _______ _____ _____    ______ ____
ROOT
ATOM      1  C   UNK     1       5.945   3.443  12.579  0.00  0.00    +0.000 A 
ATOM      2  C   UNK     1       7.140   4.128  12.510  0.00  0.00    +0.000 A 
ATOM      3  S   UNK     1       7.366   5.059  13.912  0.00  0.00    +0.000 S 
ATOM      4  C   UNK     1       5.873   4.466  14.575  0.00  0.00    +0.000 A 
ATOM      5  N   UNK     1       5.418   4.812  15.833  0.00  0.00    +0.000 N 
ATOM      6  C   UNK     1       6.428   5.068  16.877  0.00  0.00    +0.000 C 
ATOM      7  C   UNK     1       5.867   5.610  18.191  0.00  0.00    +0.000 C 
ATOM      8  N   UNK     1       4.556   5.102  18.504  0.00  0.00    +0.000 N 
ATOM      9  N   UNK     1       4.002   5.341  19.710  0.00  0.00    +0.000 NA
ATOM     10  C   UNK     1       2.781   4.786  19.608  0.00  0.00    +0.000 A 
ATOM     11  C   UNK     1       2.574   4.213  18.328  0.00  0.00    +0.000 A 
ATOM     12  C   UNK     1       3.746   4.436  17.640  0.00  0.00    +0.000 A 
ATOM     13  C   UNK     1       4.208   4.099  16.265  0.00  0.00    +0.000 C 
ATOM     14  N   UNK     1       5.225   3.664  13.751  0.00  0.00    +0.000 NA
ENDROOT
BRANCH   1  15
ATOM     15  C   UNK     1       5.395   2.541  11.522  0.00  0.00    +0.000 C 
BRANCH  15  16
ATOM     16  O   UNK     1       6.040   1.267  11.512  0.00  0.00    +0.000 OA
ATOM     17  H   UNK     1       6.587   1.240  10.710  0.00  0.00    +0.000 HD
ENDBRANCH  15  16
ENDBRANCH   1  15
BRANCH  10  18
ATOM     18  C   UNK     1       1.831   4.847  20.761  0.00  0.00    +0.000 C 
BRANCH  18  19
ATOM     19  O   UNK     1       0.669   4.052  20.535  0.00  0.00    +0.000 OA
ATOM     20  H   UNK     1       1.008   3.254  20.085  0.00  0.00    +0.000 HD
ENDBRANCH  18  19
ENDBRANCH  10  18
TORSDOF 4
ENDMDL
MODEL 5
REMARK VINA RESULT:      -5.8      1.315      1.315
REMARK  Name = 
REMARK  4 active torsions:
REMARK  status: ('A' for Active; 'I' for Inactive)
REMARK    1  A    between atoms: O_1  and  C_2
REMARK    2  A    between atoms: C_2  and  C_3
REMARK    3  A    between atoms: C_12  and  C_13
REMARK    4  A    between atoms: C_13  and  O_14
REMARK                            x       y       z     vdW  Elec       q    Type
REMARK                         _______ _______ _______ _____ _____    ______ ____
ROOT
ATOM      1  C   UNK     1       1.410   3.396  19.577  0.00  0.00    +0.000 A 
ATOM      2  C   UNK     1       1.498   4.334  20.583  0.00  0.00    +0.000 A 
ATOM      3  S   UNK     1       2.835   5.350  20.325  0.00  0.00    +0.000 S 
ATOM      4  C   UNK     1       3.211   4.518  18.846  0.00  0.00    +0.000 A 
ATOM      5  N   UNK     1       4.252   4.889  18.018  0.00  0.00    +0.000 N 
ATOM      6  C   UNK     1       4.596   6.322  17.954  0.00  0.00    +0.000 C 
ATOM      7  C   UNK     1       5.859   6.642  17.156  0.00  0.00    +0.000 C 
ATOM      8  N   UNK     1       6.071   5.755  16.042  0.00  0.00    +0.000 N 
ATOM      9  N   UNK     1       7.039   6.013  15.138  0.00  0.00    +0.000 NA
ATOM     10  C   UNK     1       6.981   4.956  14.309  0.00  0.00    +0.000 A 
ATOM     11  C   UNK     1       5.984   4.032  14.710  0.00  0.00    +0.000 A 
ATOM     12  C   UNK     1       5.413   4.583  15.836  0.00  0.00    +0.000 A 
ATOM     13  C   UNK     1       4.320   4.150  16.749  0.00  0.00    +0.000 C 
ATOM     14  N   UNK     1       2.405   3.500  18.608  0.00  0.00    +0.000 NA
ENDROOT
BRANCH   1  15
ATOM     15  C   UNK     1       0.377   2.320  19.476  0.00  0.00    +0.000 C 
BRANCH  15  16
ATOM     16  O   UNK     1       0.350   1.719  18.181  0.00  0.00    +0.000 OA
ATOM     17  H   UNK     1       1.203   1.268  18.067  0.00  0.00    +0.000 HD
ENDBRANCH  15  16
ENDBRANCH   1  15
BRANCH  10  18
ATOM     18  C   UNK     1       7.922   4.859  13.150  0.00  0.00    +0.000 C 
BRANCH  18  19
ATOM     19  O   UNK     1       8.839   5.950  13.118  0.00  0.00    +0.000 OA
ATOM     20  H   UNK     1       9.707   5.530  12.957  0.00  0.00    +0.000 HD
ENDBRANCH  18  19
ENDBRANCH  10  18
TORSDOF 4
ENDMDL
MODEL 6
REMARK VINA RESULT:      -5.8      2.069      2.191
REMARK  Name = 
REMARK  4 active torsions:
REMARK  status: ('A' for Active; 'I' for Inactive)
REMARK    1  A    between atoms: O_1  and  C_2
REMARK    2  A    between atoms: C_2  and  C_3
REMARK    3  A    between atoms: C_12  and  C_13
REMARK    4  A    between atoms: C_13  and  O_14
REMARK                            x       y       z     vdW  Elec       q    Type
REMARK                         _______ _______ _______ _____ _____    ______ ____
ROOT
ATOM      1  C   UNK     1       1.854   3.815  20.457  0.00  0.00    +0.000 A 
ATOM      2  C   UNK     1       1.604   5.062  20.990  0.00  0.00    +0.000 A 
ATOM      3  S   UNK     1       2.502   6.246  20.166  0.00  0.00    +0.000 S 
ATOM      4  C   UNK     1       3.152   5.041  19.096  0.00  0.00    +0.000 A 
ATOM      5  N   UNK     1       4.001   5.343  18.049  0.00  0.00    +0.000 N 
ATOM      6  C   UNK     1       3.821   6.644  17.379  0.00  0.00    +0.000 C 
ATOM      7  C   UNK     1       4.896   6.988  16.349  0.00  0.00    +0.000 C 
ATOM      8  N   UNK     1       5.410   5.835  15.655  0.00  0.00    +0.000 N 
ATOM      9  N   UNK     1       6.230   5.987  14.594  0.00  0.00    +0.000 NA
ATOM     10  C   UNK     1       6.550   4.723  14.265  0.00  0.00    +0.000 A 
ATOM     11  C   UNK     1       5.938   3.786  15.134  0.00  0.00    +0.000 A 
ATOM     12  C   UNK     1       5.205   4.543  16.021  0.00  0.00    +0.000 A 
ATOM     13  C   UNK     1       4.329   4.206  17.178  0.00  0.00    +0.000 C 
ATOM     14  N   UNK     1       2.755   3.817  19.394  0.00  0.00    +0.000 NA
ENDROOT
BRANCH   1  15
ATOM     15  C   UNK     1       1.264   2.528  20.935  0.00  0.00    +0.000 C 
BRANCH  15  16
ATOM     16  O   UNK     1       1.611   2.247  22.292  0.00  0.00    +0.000 OA
ATOM     17  H   UNK     1       2.551   2.475  22.389  0.00  0.00    +0.000 HD
ENDBRANCH  15  16
ENDBRANCH   1  15
BRANCH  10  18
ATOM     18  C   UNK     1       7.470   4.458  13.116  0.00  0.00    +0.000 C 
BRANCH  18  19
ATOM     19  O   UNK     1       8.205   5.622  12.743  0.00  0.00    +0.000 OA
ATOM     20  H   UNK     1       8.763   5.814  13.521  0.00  0.00    +0.000 HD
ENDBRANCH  18  19
ENDBRANCH  10  18
TORSDOF 4
ENDMDL
MODEL 7
REMARK VINA RESULT:      -5.8      4.330      4.500
REMARK  Name = 
REMARK  4 active torsions:
REMARK  status: ('A' for Active; 'I' for Inactive)
REMARK    1  A    between atoms: O_1  and  C_2
REMARK    2  A    between atoms: C_2  and  C_3
REMARK    3  A    between atoms: C_12  and  C_13
REMARK    4  A    between atoms: C_13  and  O_14
REMARK                            x       y       z     vdW  Elec       q    Type
REMARK                         _______ _______ _______ _____ _____    ______ ____
ROOT
ATOM      1  C   UNK     1       1.235   8.999  20.197  0.00  0.00    +0.000 A 
ATOM      2  C   UNK     1       0.881   8.165  21.236  0.00  0.00    +0.000 A 
ATOM      3  S   UNK     1       1.527   6.612  20.991  0.00  0.00    +0.000 S 
ATOM      4  C   UNK     1       2.296   7.138  19.524  0.00  0.00    +0.000 A 
ATOM      5  N   UNK     1       3.102   6.317  18.760  0.00  0.00    +0.000 N 
ATOM      6  C   UNK     1       3.890   5.289  19.465  0.00  0.00    +0.000 C 
ATOM      7  C   UNK     1       4.625   4.308  18.552  0.00  0.00    +0.000 C 
ATOM      8  N   UNK     1       5.072   4.902  17.318  0.00  0.00    +0.000 N 
ATOM      9  N   UNK     1       5.888   4.219  16.488  0.00  0.00    +0.000 NA
ATOM     10  C   UNK     1       6.026   5.047  15.438  0.00  0.00    +0.000 A 
ATOM     11  C   UNK     1       5.281   6.240  15.611  0.00  0.00    +0.000 A 
ATOM     12  C   UNK     1       4.676   6.112  16.842  0.00  0.00    +0.000 A 
ATOM     13  C   UNK     1       3.769   6.986  17.635  0.00  0.00    +0.000 C 
ATOM     14  N   UNK     1       2.021   8.393  19.219  0.00  0.00    +0.000 NA
ENDROOT
BRANCH   1  15
ATOM     15  C   UNK     1       0.834  10.431  20.054  0.00  0.00    +0.000 C 
BRANCH  15  16
ATOM     16  O   UNK     1       1.099  11.186  21.237  0.00  0.00    +0.000 OA
ATOM     17  H   UNK     1       1.318  10.542  21.931  0.00  0.00    +0.000 HD
ENDBRANCH  15  16
ENDBRANCH   1  15
BRANCH  10  18
ATOM     18  C   UNK     1       6.870   4.642  14.271  0.00  0.00    +0.000 C 
BRANCH  18  19
ATOM     19  O   UNK     1       7.917   5.578  14.022  0.00  0.00    +0.000 OA
ATOM     20  H   UNK     1       7.468   6.446  14.017  0.00  0.00    +0.000 HD
ENDBRANCH  18  19
ENDBRANCH  10  18
TORSDOF 4
ENDMDL
MODEL 8
REMARK VINA RESULT:      -5.8      4.454      4.614
REMARK  Name = 
REMARK  4 active torsions:
REMARK  status: ('A' for Active; 'I' for Inactive)
REMARK    1  A    between atoms: O_1  and  C_2
REMARK    2  A    between atoms: C_2  and  C_3
REMARK    3  A    between atoms: C_12  and  C_13
REMARK    4  A    between atoms: C_13  and  O_14
REMARK                            x       y       z     vdW  Elec       q    Type
REMARK                         _______ _______ _______ _____ _____    ______ ____
ROOT
ATOM      1  C   UNK     1       1.145   9.289  19.870  0.00  0.00    +0.000 A 
ATOM      2  C   UNK     1       0.810   8.553  20.988  0.00  0.00    +0.000 A 
ATOM      3  S   UNK     1       1.495   7.001  20.897  0.00  0.00    +0.000 S 
ATOM      4  C   UNK     1       2.253   7.398  19.385  0.00  0.00    +0.000 A 
ATOM      5  N   UNK     1       3.080   6.525  18.705  0.00  0.00    +0.000 N 
ATOM      6  C   UNK     1       3.894   5.593  19.508  0.00  0.00    +0.000 C 
ATOM      7  C   UNK     1       4.654   4.545  18.696  0.00  0.00    +0.000 C 
ATOM      8  N   UNK     1       5.088   5.024  17.409  0.00  0.00    +0.000 N 
ATOM      9  N   UNK     1       5.922   4.284  16.650  0.00  0.00    +0.000 NA
ATOM     10  C   UNK     1       6.041   5.005  15.522  0.00  0.00    +0.000 A 
ATOM     11  C   UNK     1       5.266   6.191  15.577  0.00  0.00    +0.000 A 
ATOM     12  C   UNK     1       4.663   6.170  16.815  0.00  0.00    +0.000 A 
ATOM     13  C   UNK     1       3.732   7.096  17.518  0.00  0.00    +0.000 C 
ATOM     14  N   UNK     1       1.947   8.609  18.956  0.00  0.00    +0.000 NA
ENDROOT
BRANCH   1  15
ATOM     15  C   UNK     1       0.708  10.689  19.586  0.00  0.00    +0.000 C 
BRANCH  15  16
ATOM     16  O   UNK     1       0.432  10.896  18.200  0.00  0.00    +0.000 OA
ATOM     17  H   UNK     1      -0.457  11.286  18.151  0.00  0.00    +0.000 HD
ENDBRANCH  15  16
ENDBRANCH   1  15
BRANCH  10  18
ATOM     18  C   UNK     1       6.896   4.508  14.401  0.00  0.00    +0.000 C 
BRANCH  18  19
ATOM     19  O   UNK     1       6.339   3.352  13.779  0.00  0.00    +0.000 OA
ATOM     20  H   UNK     1       6.376   3.551  12.823  0.00  0.00    +0.000 HD
ENDBRANCH  18  19
ENDBRANCH  10  18
TORSDOF 4
ENDMDL
MODEL 9
REMARK VINA RESULT:      -5.7      5.638      7.034
REMARK  Name = 
REMARK  4 active torsions:
REMARK  status: ('A' for Active; 'I' for Inactive)
REMARK    1  A    between atoms: O_1  and  C_2
REMARK    2  A    between atoms: C_2  and  C_3
REMARK    3  A    between atoms: C_12  and  C_13
REMARK    4  A    between atoms: C_13  and  O_14
REMARK                            x       y       z     vdW  Elec       q    Type
REMARK                         _______ _______ _______ _____ _____    ______ ____
ROOT
ATOM      1  C   UNK     1       0.049  10.215  21.528  0.00  0.00    +0.000 A 
ATOM      2  C   UNK     1       0.305  11.134  20.532  0.00  0.00    +0.000 A 
ATOM      3  S   UNK     1       1.325  10.458  19.354  0.00  0.00    +0.000 S 
ATOM      4  C   UNK     1       1.342   8.943  20.205  0.00  0.00    +0.000 A 
ATOM      5  N   UNK     1       2.005   7.825  19.738  0.00  0.00    +0.000 N 
ATOM      6  C   UNK     1       2.091   7.644  18.277  0.00  0.00    +0.000 C 
ATOM      7  C   UNK     1       2.980   6.486  17.826  0.00  0.00    +0.000 C 
ATOM      8  N   UNK     1       2.965   5.368  18.734  0.00  0.00    +0.000 N 
ATOM      9  N   UNK     1       3.551   4.202  18.393  0.00  0.00    +0.000 NA
ATOM     10  C   UNK     1       3.398   3.443  19.491  0.00  0.00    +0.000 A 
ATOM     11  C   UNK     1       2.727   4.146  20.523  0.00  0.00    +0.000 A 
ATOM     12  C   UNK     1       2.460   5.390  19.996  0.00  0.00    +0.000 A 
ATOM     13  C   UNK     1       1.785   6.606  20.528  0.00  0.00    +0.000 C 
ATOM     14  N   UNK     1       0.666   8.980  21.338  0.00  0.00    +0.000 NA
ENDROOT
BRANCH   1  15
ATOM     15  C   UNK     1      -0.789  10.454  22.742  0.00  0.00    +0.000 C 
BRANCH  15  16
ATOM     16  O   UNK     1      -0.351   9.680  23.859  0.00  0.00    +0.000 OA
ATOM     17  H   UNK     1      -0.258  10.298  24.604  0.00  0.00    +0.000 HD
ENDBRANCH  15  16
ENDBRANCH   1  15
BRANCH  10  18
ATOM     18  C   UNK     1       3.933   2.046  19.518  0.00  0.00    +0.000 C 
BRANCH  18  19
ATOM     19  O   UNK     1       5.237   1.988  20.093  0.00  0.00    +0.000 OA
ATOM     20  H   UNK     1       5.480   2.924  20.235  0.00  0.00    +0.000 HD
ENDBRANCH  18  19
ENDBRANCH  10  18
TORSDOF 4
ENDMDL
