MODEL 1
REMARK VINA RESULT:      -7.0      0.000      0.000
REMARK  Name = 
REMARK  2 active torsions:
REMARK  status: ('A' for Active; 'I' for Inactive)
REMARK    1  A    between atoms: N_7  and  C_8
REMARK    2  A    between atoms: C_8  and  C_9
REMARK                            x       y       z     vdW  Elec       q    Type
REMARK                         _______ _______ _______ _____ _____    ______ ____
ROOT
ATOM      1  N   UNL     1       4.827   2.329  20.046  0.00  0.00    +0.000 NA
ATOM      2  C   UNL     1       3.563   2.632  20.038  0.00  0.00    +0.000 A 
ATOM      3  C   UNL     1       2.817   2.618  21.344  0.00  0.00    +0.000 A 
ATOM      4  C   UNL     1       1.521   2.967  21.331  0.00  0.00    +0.000 A 
ATOM      5  C   UNL     1       0.860   3.381  20.113  0.00  0.00    +0.000 A 
ATOM      6  C   UNL     1       1.540   3.360  18.955  0.00  0.00    +0.000 A 
ATOM      7  N   UNL     1       2.873   2.960  18.865  0.00  0.00    +0.000 N 
ATOM      8  H   UNL     1       5.149   2.141  20.999  0.00  0.00    +0.000 HD
ENDROOT
BRANCH   7   9
ATOM      9  C   UNL     1       3.542   2.843  17.561  0.00  0.00    +0.000 C 
BRANCH   9  10
ATOM     10  C   UNL     1       4.096   4.168  17.080  0.00  0.00    +0.000 A 
ATOM     11  C   UNL     1       4.971   4.213  15.984  0.00  0.00    +0.000 A 
ATOM     12  C   UNL     1       5.514   5.423  15.553  0.00  0.00    +0.000 A 
ATOM     13  C   UNL     1       5.178   6.607  16.203  0.00  0.00    +0.000 A 
ATOM     14  C   UNL     1       4.285   6.584  17.272  0.00  0.00    +0.000 A 
ATOM     15  C   UNL     1       3.745   5.371  17.710  0.00  0.00    +0.000 A 
ENDBRANCH   9  10
ENDBRANCH   7   9
TORSDOF 2
ENDMDL
MODEL 2
REMARK VINA RESULT:      -7.0      0.213      1.305
REMARK  Name = 
REMARK  2 active torsions:
REMARK  status: ('A' for Active; 'I' for Inactive)
REMARK    1  A    between atoms: N_7  and  C_8
REMARK    2  A    between atoms: C_8  and  C_9
REMARK                            x       y       z     vdW  Elec       q    Type
REMARK                         _______ _______ _______ _____ _____    ______ ____
ROOT
ATOM      1  N   UNL     1       4.786   2.276  19.746  0.00  0.00    +0.000 NA
ATOM      2  C   UNL     1       3.551   2.642  19.917  0.00  0.00    +0.000 A 
ATOM      3  C   UNL     1       2.974   2.585  21.306  0.00  0.00    +0.000 A 
ATOM      4  C   UNL     1       1.710   3.000  21.479  0.00  0.00    +0.000 A 
ATOM      5  C   UNL     1       0.927   3.523  20.381  0.00  0.00    +0.000 A 
ATOM      6  C   UNL     1       1.454   3.540  19.146  0.00  0.00    +0.000 A 
ATOM      7  N   UNL     1       2.739   3.079  18.863  0.00  0.00    +0.000 N 
ATOM      8  H   UNL     1       5.213   2.012  20.638  0.00  0.00    +0.000 HD
ENDROOT
BRANCH   7   9
ATOM      9  C   UNL     1       3.232   3.010  17.480  0.00  0.00    +0.000 C 
BRANCH   9  10
ATOM     10  C   UNL     1       3.960   4.271  17.066  0.00  0.00    +0.000 A 
ATOM     11  C   UNL     1       3.659   5.496  17.679  0.00  0.00    +0.000 A 
ATOM     12  C   UNL     1       4.298   6.670  17.282  0.00  0.00    +0.000 A 
ATOM     13  C   UNL     1       5.259   6.633  16.276  0.00  0.00    +0.000 A 
ATOM     14  C   UNL     1       5.593   5.420  15.679  0.00  0.00    +0.000 A 
ATOM     15  C   UNL     1       4.948   4.243  16.070  0.00  0.00    +0.000 A 
ENDBRANCH   9  10
ENDBRANCH   7   9
TORSDOF 2
ENDMDL
MODEL 3
REMARK VINA RESULT:      -6.9      2.570      5.165
REMARK  Name = 
REMARK  2 active torsions:
REMARK  status: ('A' for Active; 'I' for Inactive)
REMARK    1  A    between atoms: N_7  and  C_8
REMARK    2  A    between atoms: C_8  and  C_9
REMARK                            x       y       z     vdW  Elec       q    Type
REMARK                         _______ _______ _______ _____ _____    ______ ____
ROOT
ATOM      1  N   UNL     1       5.376   6.665  15.577  0.00  0.00    +0.000 NA
ATOM      2  C   UNL     1       6.066   6.266  16.603  0.00  0.00    +0.000 A 
ATOM      3  C   UNL     1       7.068   7.214  17.203  0.00  0.00    +0.000 A 
ATOM      4  C   UNL     1       7.750   6.807  18.285  0.00  0.00    +0.000 A 
ATOM      5  C   UNL     1       7.513   5.513  18.887  0.00  0.00    +0.000 A 
ATOM      6  C   UNL     1       6.632   4.674  18.317  0.00  0.00    +0.000 A 
ATOM      7  N   UNL     1       5.919   4.991  17.162  0.00  0.00    +0.000 N 
ATOM      8  H   UNL     1       5.614   7.630  15.333  0.00  0.00    +0.000 HD
ENDROOT
BRANCH   7   9
ATOM      9  C   UNL     1       5.053   3.998  16.511  0.00  0.00    +0.000 C 
BRANCH   9  10
ATOM     10  C   UNL     1       3.812   3.696  17.325  0.00  0.00    +0.000 A 
ATOM     11  C   UNL     1       3.573   2.396  17.794  0.00  0.00    +0.000 A 
ATOM     12  C   UNL     1       2.417   2.098  18.515  0.00  0.00    +0.000 A 
ATOM     13  C   UNL     1       1.492   3.100  18.791  0.00  0.00    +0.000 A 
ATOM     14  C   UNL     1       1.730   4.403  18.361  0.00  0.00    +0.000 A 
ATOM     15  C   UNL     1       2.884   4.702  17.631  0.00  0.00    +0.000 A 
ENDBRANCH   9  10
ENDBRANCH   7   9
TORSDOF 2
ENDMDL
MODEL 4
REMARK VINA RESULT:      -6.8      1.307      1.651
REMARK  Name = 
REMARK  2 active torsions:
REMARK  status: ('A' for Active; 'I' for Inactive)
REMARK    1  A    between atoms: N_7  and  C_8
REMARK    2  A    between atoms: C_8  and  C_9
REMARK                            x       y       z     vdW  Elec       q    Type
REMARK                         _______ _______ _______ _____ _____    ______ ____
ROOT
ATOM      1  N   UNL     1       2.981   1.600  18.268  0.00  0.00    +0.000 NA
ATOM      2  C   UNL     1       2.568   2.599  18.988  0.00  0.00    +0.000 A 
ATOM      3  C   UNL     1       1.110   2.664  19.354  0.00  0.00    +0.000 A 
ATOM      4  C   UNL     1       0.701   3.680  20.128  0.00  0.00    +0.000 A 
ATOM      5  C   UNL     1       1.628   4.669  20.633  0.00  0.00    +0.000 A 
ATOM      6  C   UNL     1       2.920   4.606  20.271  0.00  0.00    +0.000 A 
ATOM      7  N   UNL     1       3.423   3.617  19.427  0.00  0.00    +0.000 N 
ATOM      8  H   UNL     1       2.211   0.956  18.067  0.00  0.00    +0.000 HD
ENDROOT
BRANCH   7   9
ATOM      9  C   UNL     1       4.819   3.654  18.967  0.00  0.00    +0.000 C 
BRANCH   9  10
ATOM     10  C   UNL     1       4.987   4.476  17.707  0.00  0.00    +0.000 A 
ATOM     11  C   UNL     1       5.195   3.845  16.472  0.00  0.00    +0.000 A 
ATOM     12  C   UNL     1       5.385   4.592  15.310  0.00  0.00    +0.000 A 
ATOM     13  C   UNL     1       5.354   5.983  15.365  0.00  0.00    +0.000 A 
ATOM     14  C   UNL     1       5.117   6.625  16.578  0.00  0.00    +0.000 A 
ATOM     15  C   UNL     1       4.933   5.878  17.744  0.00  0.00    +0.000 A 
ENDBRANCH   9  10
ENDBRANCH   7   9
TORSDOF 2
ENDMDL
MODEL 5
REMARK VINA RESULT:      -6.8      1.316      2.031
REMARK  Name = 
REMARK  2 active torsions:
REMARK  status: ('A' for Active; 'I' for Inactive)
REMARK    1  A    between atoms: N_7  and  C_8
REMARK    2  A    between atoms: C_8  and  C_9
REMARK                            x       y       z     vdW  Elec       q    Type
REMARK                         _______ _______ _______ _____ _____    ______ ____
ROOT
ATOM      1  N   UNL     1       3.020   1.580  18.200  0.00  0.00    +0.000 NA
ATOM      2  C   UNL     1       2.576   2.561  18.927  0.00  0.00    +0.000 A 
ATOM      3  C   UNL     1       1.107   2.608  19.246  0.00  0.00    +0.000 A 
ATOM      4  C   UNL     1       0.664   3.605  20.027  0.00  0.00    +0.000 A 
ATOM      5  C   UNL     1       1.567   4.590  20.583  0.00  0.00    +0.000 A 
ATOM      6  C   UNL     1       2.870   4.543  20.263  0.00  0.00    +0.000 A 
ATOM      7  N   UNL     1       3.408   3.575  19.416  0.00  0.00    +0.000 N 
ATOM      8  H   UNL     1       2.262   0.934  17.961  0.00  0.00    +0.000 HD
ENDROOT
BRANCH   7   9
ATOM      9  C   UNL     1       4.818   3.632  19.003  0.00  0.00    +0.000 C 
BRANCH   9  10
ATOM     10  C   UNL     1       5.018   4.464  17.754  0.00  0.00    +0.000 A 
ATOM     11  C   UNL     1       5.040   5.864  17.832  0.00  0.00    +0.000 A 
ATOM     12  C   UNL     1       5.189   6.642  16.684  0.00  0.00    +0.000 A 
ATOM     13  C   UNL     1       5.333   6.029  15.443  0.00  0.00    +0.000 A 
ATOM     14  C   UNL     1       5.346   4.639  15.351  0.00  0.00    +0.000 A 
ATOM     15  C   UNL     1       5.190   3.858  16.500  0.00  0.00    +0.000 A 
ENDBRANCH   9  10
ENDBRANCH   7   9
TORSDOF 2
ENDMDL
MODEL 6
REMARK VINA RESULT:      -6.7      2.560      5.138
REMARK  Name = 
REMARK  2 active torsions:
REMARK  status: ('A' for Active; 'I' for Inactive)
REMARK    1  A    between atoms: N_7  and  C_8
REMARK    2  A    between atoms: C_8  and  C_9
REMARK                            x       y       z     vdW  Elec       q    Type
REMARK                         _______ _______ _______ _____ _____    ______ ____
ROOT
ATOM      1  N   UNL     1       5.973   6.111  15.309  0.00  0.00    +0.000 NA
ATOM      2  C   UNL     1       6.322   5.873  16.537  0.00  0.00    +0.000 A 
ATOM      3  C   UNL     1       7.320   6.793  17.188  0.00  0.00    +0.000 A 
ATOM      4  C   UNL     1       7.647   6.561  18.468  0.00  0.00    +0.000 A 
ATOM      5  C   UNL     1       7.039   5.487  19.223  0.00  0.00    +0.000 A 
ATOM      6  C   UNL     1       6.171   4.663  18.613  0.00  0.00    +0.000 A 
ATOM      7  N   UNL     1       5.814   4.796  17.272  0.00  0.00    +0.000 N 
ATOM      8  H   UNL     1       6.438   6.952  14.956  0.00  0.00    +0.000 HD
ENDROOT
BRANCH   7   9
ATOM      9  C   UNL     1       4.949   3.803  16.618  0.00  0.00    +0.000 C 
BRANCH   9  10
ATOM     10  C   UNL     1       3.667   3.562  17.387  0.00  0.00    +0.000 A 
ATOM     11  C   UNL     1       2.763   4.612  17.603  0.00  0.00    +0.000 A 
ATOM     12  C   UNL     1       1.596   4.411  18.340  0.00  0.00    +0.000 A 
ATOM     13  C   UNL     1       1.310   3.151  18.858  0.00  0.00    +0.000 A 
ATOM     14  C   UNL     1       2.181   2.089  18.625  0.00  0.00    +0.000 A 
ATOM     15  C   UNL     1       3.355   2.291  17.893  0.00  0.00    +0.000 A 
ENDBRANCH   9  10
ENDBRANCH   7   9
TORSDOF 2
ENDMDL
MODEL 7
REMARK VINA RESULT:      -6.7      1.908      2.673
REMARK  Name = 
REMARK  2 active torsions:
REMARK  status: ('A' for Active; 'I' for Inactive)
REMARK    1  A    between atoms: N_7  and  C_8
REMARK    2  A    between atoms: C_8  and  C_9
REMARK                            x       y       z     vdW  Elec       q    Type
REMARK                         _______ _______ _______ _____ _____    ______ ____
ROOT
ATOM      1  N   UNL     1       2.363   6.175  20.695  0.00  0.00    +0.000 NA
ATOM      2  C   UNL     1       2.029   5.137  19.989  0.00  0.00    +0.000 A 
ATOM      3  C   UNL     1       1.294   4.015  20.670  0.00  0.00    +0.000 A 
ATOM      4  C   UNL     1       0.921   2.963  19.924  0.00  0.00    +0.000 A 
ATOM      5  C   UNL     1       1.180   2.913  18.502  0.00  0.00    +0.000 A 
ATOM      6  C   UNL     1       1.861   3.914  17.921  0.00  0.00    +0.000 A 
ATOM      7  N   UNL     1       2.334   5.020  18.627  0.00  0.00    +0.000 N 
ATOM      8  H   UNL     1       2.034   6.079  21.659  0.00  0.00    +0.000 HD
ENDROOT
BRANCH   7   9
ATOM      9  C   UNL     1       3.173   6.033  17.972  0.00  0.00    +0.000 C 
BRANCH   9  10
ATOM     10  C   UNL     1       4.578   5.533  17.709  0.00  0.00    +0.000 A 
ATOM     11  C   UNL     1       5.523   5.498  18.744  0.00  0.00    +0.000 A 
ATOM     12  C   UNL     1       6.829   5.071  18.506  0.00  0.00    +0.000 A 
ATOM     13  C   UNL     1       7.204   4.659  17.230  0.00  0.00    +0.000 A 
ATOM     14  C   UNL     1       6.269   4.657  16.198  0.00  0.00    +0.000 A 
ATOM     15  C   UNL     1       4.962   5.091  16.433  0.00  0.00    +0.000 A 
ENDBRANCH   9  10
ENDBRANCH   7   9
TORSDOF 2
ENDMDL
MODEL 8
REMARK VINA RESULT:      -6.7      1.955      2.130
REMARK  Name = 
REMARK  2 active torsions:
REMARK  status: ('A' for Active; 'I' for Inactive)
REMARK    1  A    between atoms: N_7  and  C_8
REMARK    2  A    between atoms: C_8  and  C_9
REMARK                            x       y       z     vdW  Elec       q    Type
REMARK                         _______ _______ _______ _____ _____    ______ ____
ROOT
ATOM      1  N   UNL     1       4.830   1.912  19.963  0.00  0.00    +0.000 NA
ATOM      2  C   UNL     1       3.917   2.829  20.073  0.00  0.00    +0.000 A 
ATOM      3  C   UNL     1       2.966   2.756  21.237  0.00  0.00    +0.000 A 
ATOM      4  C   UNL     1       2.050   3.728  21.363  0.00  0.00    +0.000 A 
ATOM      5  C   UNL     1       1.991   4.838  20.436  0.00  0.00    +0.000 A 
ATOM      6  C   UNL     1       2.832   4.867  19.390  0.00  0.00    +0.000 A 
ATOM      7  N   UNL     1       3.780   3.873  19.151  0.00  0.00    +0.000 N 
ATOM      8  H   UNL     1       4.778   1.253  20.745  0.00  0.00    +0.000 HD
ENDROOT
BRANCH   7   9
ATOM      9  C   UNL     1       4.601   3.889  17.931  0.00  0.00    +0.000 C 
BRANCH   9  10
ATOM     10  C   UNL     1       5.650   4.980  17.960  0.00  0.00    +0.000 A 
ATOM     11  C   UNL     1       6.747   4.887  18.829  0.00  0.00    +0.000 A 
ATOM     12  C   UNL     1       7.700   5.903  18.889  0.00  0.00    +0.000 A 
ATOM     13  C   UNL     1       7.579   7.020  18.067  0.00  0.00    +0.000 A 
ATOM     14  C   UNL     1       6.514   7.113  17.174  0.00  0.00    +0.000 A 
ATOM     15  C   UNL     1       5.553   6.100  17.119  0.00  0.00    +0.000 A 
ENDBRANCH   9  10
ENDBRANCH   7   9
TORSDOF 2
ENDMDL
MODEL 9
REMARK VINA RESULT:      -6.7      1.639      5.097
REMARK  Name = 
REMARK  2 active torsions:
REMARK  status: ('A' for Active; 'I' for Inactive)
REMARK    1  A    between atoms: N_7  and  C_8
REMARK    2  A    between atoms: C_8  and  C_9
REMARK                            x       y       z     vdW  Elec       q    Type
REMARK                         _______ _______ _______ _____ _____    ______ ____
ROOT
ATOM      1  N   UNL     1       5.861   3.704  18.946  0.00  0.00    +0.000 NA
ATOM      2  C   UNL     1       5.667   4.570  17.997  0.00  0.00    +0.000 A 
ATOM      3  C   UNL     1       6.535   4.495  16.771  0.00  0.00    +0.000 A 
ATOM      4  C   UNL     1       6.304   5.371  15.782  0.00  0.00    +0.000 A 
ATOM      5  C   UNL     1       5.232   6.339  15.863  0.00  0.00    +0.000 A 
ATOM      6  C   UNL     1       4.487   6.405  16.978  0.00  0.00    +0.000 A 
ATOM      7  N   UNL     1       4.691   5.571  18.077  0.00  0.00    +0.000 N 
ATOM      8  H   UNL     1       6.602   3.046  18.689  0.00  0.00    +0.000 HD
ENDROOT
BRANCH   7   9
ATOM      9  C   UNL     1       3.927   5.756  19.319  0.00  0.00    +0.000 C 
BRANCH   9  10
ATOM     10  C   UNL     1       2.788   4.766  19.445  0.00  0.00    +0.000 A 
ATOM     11  C   UNL     1       2.297   4.408  20.709  0.00  0.00    +0.000 A 
ATOM     12  C   UNL     1       1.272   3.472  20.840  0.00  0.00    +0.000 A 
ATOM     13  C   UNL     1       0.712   2.892  19.705  0.00  0.00    +0.000 A 
ATOM     14  C   UNL     1       1.166   3.260  18.440  0.00  0.00    +0.000 A 
ATOM     15  C   UNL     1       2.198   4.193  18.309  0.00  0.00    +0.000 A 
ENDBRANCH   9  10
ENDBRANCH   7   9
TORSDOF 2
ENDMDL
