MODEL 1
REMARK VINA RESULT:      -8.4      0.000      0.000
REMARK  Name = 
REMARK  9 active torsions:
REMARK  status: ('A' for Active; 'I' for Inactive)
REMARK    1  A    between atoms: C_1  and  C_2
REMARK    2  A    between atoms: C_2  and  C_3
REMARK    3  A    between atoms: C_3  and  N_4
REMARK    4  A    between atoms: C_11  and  C_12
REMARK    5  A    between atoms: C_15  and  C_16
REMARK    6  A    between atoms: N_18  and  C_19
REMARK    7  A    between atoms: C_19  and  C_20
REMARK    8  A    between atoms: C_20  and  C_21
REMARK    9  A    between atoms: C_21  and  C_22
REMARK                            x       y       z     vdW  Elec       q    Type
REMARK                         _______ _______ _______ _____ _____    ______ ____
ROOT
ATOM      1  C   UNL     1       8.209   8.460  18.132  0.00  0.00    +0.000 A 
ATOM      2  N   UNL     1       8.467   7.466  18.999  0.00  0.00    +0.000 NA
ATOM      3  O   UNL     1       7.944   6.338  18.384  0.00  0.00    +0.000 OA
ATOM      4  C   UNL     1       7.419   6.750  17.198  0.00  0.00    +0.000 A 
ATOM      5  N   UNL     1       7.552   8.046  16.987  0.00  0.00    +0.000 NA
ENDROOT
BRANCH   1  13
ATOM      6  N   UNL     1       9.927  13.840  18.950  0.00  0.00    +0.000 N 
ATOM      7  C   UNL     1      10.568  14.185  20.134  0.00  0.00    +0.000 C 
ATOM      8  O   UNL     1      11.103  15.276  20.330  0.00  0.00    +0.000 OA
ATOM      9  C   UNL     1      10.484  13.131  21.234  0.00  0.00    +0.000 C 
ATOM     10  O   UNL     1      10.453  11.767  20.854  0.00  0.00    +0.000 OA
ATOM     11  C   UNL     1       9.693  11.539  19.737  0.00  0.00    +0.000 A 
ATOM     12  C   UNL     1       9.304  10.208  19.533  0.00  0.00    +0.000 A 
ATOM     13  C   UNL     1       8.567   9.850  18.401  0.00  0.00    +0.000 A 
ATOM     14  C   UNL     1       8.195  10.861  17.503  0.00  0.00    +0.000 A 
ATOM     15  C   UNL     1       8.594  12.186  17.699  0.00  0.00    +0.000 A 
ATOM     16  C   UNL     1       9.384  12.534  18.798  0.00  0.00    +0.000 A 
BRANCH   6  17
ATOM     17  C   UNL     1       9.953  14.784  17.834  0.00  0.00    +0.000 C 
BRANCH  17  19
ATOM     18  C   UNL     1       7.551  15.530  17.868  0.00  0.00    +0.000 C 
ATOM     19  C   UNL     1       9.001  15.965  18.025  0.00  0.00    +0.000 C 
ENDBRANCH  17  19
ENDBRANCH   6  17
ENDBRANCH   1  13
BRANCH   4  20
ATOM     20  C   UNL     1       6.804   5.755  16.339  0.00  0.00    +0.000 C 
ATOM     21  O   UNL     1       6.860   5.782  15.112  0.00  0.00    +0.000 OA
ATOM     22  N   UNL     1       6.125   4.747  17.008  0.00  0.00    +0.000 N 
ATOM     23  H   UNL     1       6.148   4.753  18.022  0.00  0.00    +0.000 HD
BRANCH  22  24
ATOM     24  C   UNL     1       5.467   3.667  16.300  0.00  0.00    +0.000 C 
BRANCH  24  25
ATOM     25  C   UNL     1       3.958   3.654  16.549  0.00  0.00    +0.000 C 
BRANCH  25  26
ATOM     26  C   UNL     1       3.536   4.799  17.476  0.00  0.00    +0.000 C 
BRANCH  26  27
ATOM     27  C   UNL     1       2.545   4.350  18.524  0.00  0.00    +0.000 A 
ATOM     28  C   UNL     1       2.344   5.111  19.684  0.00  0.00    +0.000 A 
ATOM     29  C   UNL     1       1.438   4.691  20.661  0.00  0.00    +0.000 A 
ATOM     30  C   UNL     1       0.727   3.506  20.490  0.00  0.00    +0.000 A 
ATOM     31  C   UNL     1       0.919   2.740  19.341  0.00  0.00    +0.000 A 
ATOM     32  C   UNL     1       1.825   3.158  18.363  0.00  0.00    +0.000 A 
ENDBRANCH  26  27
ENDBRANCH  25  26
ENDBRANCH  24  25
ENDBRANCH  22  24
ENDBRANCH   4  20
TORSDOF 8
ENDMDL
MODEL 2
REMARK VINA RESULT:      -8.4      1.427      2.213
REMARK  Name = 
REMARK  9 active torsions:
REMARK  status: ('A' for Active; 'I' for Inactive)
REMARK    1  A    between atoms: C_1  and  C_2
REMARK    2  A    between atoms: C_2  and  C_3
REMARK    3  A    between atoms: C_3  and  N_4
REMARK    4  A    between atoms: C_11  and  C_12
REMARK    5  A    between atoms: C_15  and  C_16
REMARK    6  A    between atoms: N_18  and  C_19
REMARK    7  A    between atoms: C_19  and  C_20
REMARK    8  A    between atoms: C_20  and  C_21
REMARK    9  A    between atoms: C_21  and  C_22
REMARK                            x       y       z     vdW  Elec       q    Type
REMARK                         _______ _______ _______ _____ _____    ______ ____
ROOT
ATOM      1  C   UNL     1       8.221   8.644  18.274  0.00  0.00    +0.000 A 
ATOM      2  N   UNL     1       8.550   7.512  18.918  0.00  0.00    +0.000 NA
ATOM      3  O   UNL     1       7.785   6.535  18.296  0.00  0.00    +0.000 OA
ATOM      4  C   UNL     1       7.064   7.165  17.329  0.00  0.00    +0.000 A 
ATOM      5  N   UNL     1       7.290   8.464  17.267  0.00  0.00    +0.000 NA
ENDROOT
BRANCH   1  13
ATOM      6  N   UNL     1      10.077  13.788  19.903  0.00  0.00    +0.000 N 
ATOM      7  C   UNL     1       9.994  14.861  19.023  0.00  0.00    +0.000 C 
ATOM      8  O   UNL     1      10.227  16.027  19.340  0.00  0.00    +0.000 OA
ATOM      9  C   UNL     1       9.674  14.478  17.581  0.00  0.00    +0.000 C 
ATOM     10  O   UNL     1       8.846  13.350  17.355  0.00  0.00    +0.000 OA
ATOM     11  C   UNL     1       9.105  12.315  18.214  0.00  0.00    +0.000 A 
ATOM     12  C   UNL     1       8.617  11.063  17.815  0.00  0.00    +0.000 A 
ATOM     13  C   UNL     1       8.780   9.944  18.636  0.00  0.00    +0.000 A 
ATOM     14  C   UNL     1       9.478  10.100  19.842  0.00  0.00    +0.000 A 
ATOM     15  C   UNL     1       9.954  11.351  20.246  0.00  0.00    +0.000 A 
ATOM     16  C   UNL     1       9.736  12.483  19.456  0.00  0.00    +0.000 A 
BRANCH   6  17
ATOM     17  C   UNL     1      10.378  14.053  21.309  0.00  0.00    +0.000 C 
BRANCH  17  19
ATOM     18  C   UNL     1       9.202  15.666  22.841  0.00  0.00    +0.000 C 
ATOM     19  C   UNL     1       9.127  14.312  22.151  0.00  0.00    +0.000 C 
ENDBRANCH  17  19
ENDBRANCH   6  17
ENDBRANCH   1  13
BRANCH   4  20
ATOM     20  C   UNL     1       6.172   6.365  16.510  0.00  0.00    +0.000 C 
ATOM     21  O   UNL     1       5.538   6.809  15.556  0.00  0.00    +0.000 OA
ATOM     22  N   UNL     1       6.071   5.034  16.887  0.00  0.00    +0.000 N 
ATOM     23  H   UNL     1       6.651   4.715  17.656  0.00  0.00    +0.000 HD
BRANCH  22  24
ATOM     24  C   UNL     1       5.234   4.096  16.166  0.00  0.00    +0.000 C 
BRANCH  24  25
ATOM     25  C   UNL     1       3.903   3.853  16.877  0.00  0.00    +0.000 C 
BRANCH  25  26
ATOM     26  C   UNL     1       4.031   2.761  17.944  0.00  0.00    +0.000 C 
BRANCH  26  27
ATOM     27  C   UNL     1       3.071   2.969  19.092  0.00  0.00    +0.000 A 
ATOM     28  C   UNL     1       3.421   2.573  20.390  0.00  0.00    +0.000 A 
ATOM     29  C   UNL     1       2.529   2.752  21.451  0.00  0.00    +0.000 A 
ATOM     30  C   UNL     1       1.280   3.324  21.225  0.00  0.00    +0.000 A 
ATOM     31  C   UNL     1       0.921   3.721  19.938  0.00  0.00    +0.000 A 
ATOM     32  C   UNL     1       1.811   3.543  18.875  0.00  0.00    +0.000 A 
ENDBRANCH  26  27
ENDBRANCH  25  26
ENDBRANCH  24  25
ENDBRANCH  22  24
ENDBRANCH   4  20
TORSDOF 8
ENDMDL
MODEL 3
REMARK VINA RESULT:      -8.2      1.370      2.052
REMARK  Name = 
REMARK  9 active torsions:
REMARK  status: ('A' for Active; 'I' for Inactive)
REMARK    1  A    between atoms: C_1  and  C_2
REMARK    2  A    between atoms: C_2  and  C_3
REMARK    3  A    between atoms: C_3  and  N_4
REMARK    4  A    between atoms: C_11  and  C_12
REMARK    5  A    between atoms: C_15  and  C_16
REMARK    6  A    between atoms: N_18  and  C_19
REMARK    7  A    between atoms: C_19  and  C_20
REMARK    8  A    between atoms: C_20  and  C_21
REMARK    9  A    between atoms: C_21  and  C_22
REMARK                            x       y       z     vdW  Elec       q    Type
REMARK                         _______ _______ _______ _____ _____    ______ ____
ROOT
ATOM      1  C   UNL     1       8.355   8.663  18.363  0.00  0.00    +0.000 A 
ATOM      2  N   UNL     1       8.607   7.521  19.026  0.00  0.00    +0.000 NA
ATOM      3  O   UNL     1       7.794   6.584  18.404  0.00  0.00    +0.000 OA
ATOM      4  C   UNL     1       7.126   7.243  17.417  0.00  0.00    +0.000 A 
ATOM      5  N   UNL     1       7.430   8.525  17.343  0.00  0.00    +0.000 NA
ENDROOT
BRANCH   1  13
ATOM      6  N   UNL     1      10.454  13.761  19.831  0.00  0.00    +0.000 N 
ATOM      7  C   UNL     1      10.833  14.661  18.842  0.00  0.00    +0.000 C 
ATOM      8  O   UNL     1      11.150  15.830  19.063  0.00  0.00    +0.000 OA
ATOM      9  C   UNL     1      10.920  14.065  17.440  0.00  0.00    +0.000 C 
ATOM     10  O   UNL     1      10.026  13.021  17.099  0.00  0.00    +0.000 OA
ATOM     11  C   UNL     1       9.823  12.133  18.122  0.00  0.00    +0.000 A 
ATOM     12  C   UNL     1       9.279  10.896  17.750  0.00  0.00    +0.000 A 
ATOM     13  C   UNL     1       8.985   9.932  18.718  0.00  0.00    +0.000 A 
ATOM     14  C   UNL     1       9.287  10.218  20.057  0.00  0.00    +0.000 A 
ATOM     15  C   UNL     1       9.818  11.457  20.429  0.00  0.00    +0.000 A 
ATOM     16  C   UNL     1      10.053  12.446  19.471  0.00  0.00    +0.000 A 
BRANCH   6  17
ATOM     17  C   UNL     1      10.340  14.238  21.209  0.00  0.00    +0.000 C 
BRANCH  17  19
ATOM     18  C   UNL     1       7.830  14.409  21.229  0.00  0.00    +0.000 C 
ATOM     19  C   UNL     1       9.139  15.159  21.427  0.00  0.00    +0.000 C 
ENDBRANCH  17  19
ENDBRANCH   6  17
ENDBRANCH   1  13
BRANCH   4  20
ATOM     20  C   UNL     1       6.200   6.487  16.594  0.00  0.00    +0.000 C 
ATOM     21  O   UNL     1       5.468   6.993  15.747  0.00  0.00    +0.000 OA
ATOM     22  N   UNL     1       6.187   5.121  16.836  0.00  0.00    +0.000 N 
ATOM     23  H   UNL     1       6.843   4.754  17.517  0.00  0.00    +0.000 HD
BRANCH  22  24
ATOM     24  C   UNL     1       5.330   4.220  16.091  0.00  0.00    +0.000 C 
BRANCH  24  25
ATOM     25  C   UNL     1       4.549   3.281  17.010  0.00  0.00    +0.000 C 
BRANCH  25  26
ATOM     26  C   UNL     1       3.045   3.567  16.952  0.00  0.00    +0.000 C 
BRANCH  26  27
ATOM     27  C   UNL     1       2.439   3.721  18.328  0.00  0.00    +0.000 A 
ATOM     28  C   UNL     1       1.285   3.008  18.679  0.00  0.00    +0.000 A 
ATOM     29  C   UNL     1       0.715   3.159  19.945  0.00  0.00    +0.000 A 
ATOM     30  C   UNL     1       1.291   4.024  20.872  0.00  0.00    +0.000 A 
ATOM     31  C   UNL     1       2.439   4.738  20.534  0.00  0.00    +0.000 A 
ATOM     32  C   UNL     1       3.010   4.590  19.268  0.00  0.00    +0.000 A 
ENDBRANCH  26  27
ENDBRANCH  25  26
ENDBRANCH  24  25
ENDBRANCH  22  24
ENDBRANCH   4  20
TORSDOF 8
ENDMDL
MODEL 4
REMARK VINA RESULT:      -8.2      6.371      8.188
REMARK  Name = 
REMARK  9 active torsions:
REMARK  status: ('A' for Active; 'I' for Inactive)
REMARK    1  A    between atoms: C_1  and  C_2
REMARK    2  A    between atoms: C_2  and  C_3
REMARK    3  A    between atoms: C_3  and  N_4
REMARK    4  A    between atoms: C_11  and  C_12
REMARK    5  A    between atoms: C_15  and  C_16
REMARK    6  A    between atoms: N_18  and  C_19
REMARK    7  A    between atoms: C_19  and  C_20
REMARK    8  A    between atoms: C_20  and  C_21
REMARK    9  A    between atoms: C_21  and  C_22
REMARK                            x       y       z     vdW  Elec       q    Type
REMARK                         _______ _______ _______ _____ _____    ______ ____
ROOT
ATOM      1  C   UNL     1       1.741   8.665  18.799  0.00  0.00    +0.000 A 
ATOM      2  N   UNL     1       2.367   9.014  17.661  0.00  0.00    +0.000 NA
ATOM      3  O   UNL     1       3.261   7.977  17.436  0.00  0.00    +0.000 OA
ATOM      4  C   UNL     1       3.092   7.091  18.456  0.00  0.00    +0.000 A 
ATOM      5  N   UNL     1       2.171   7.461  19.326  0.00  0.00    +0.000 NA
ENDROOT
BRANCH   1  13
ATOM      6  N   UNL     1      -2.009  12.265  21.151  0.00  0.00    +0.000 N 
ATOM      7  C   UNL     1      -2.045  12.416  22.533  0.00  0.00    +0.000 C 
ATOM      8  O   UNL     1      -2.711  13.275  23.111  0.00  0.00    +0.000 OA
ATOM      9  C   UNL     1      -1.258  11.364  23.308  0.00  0.00    +0.000 C 
ATOM     10  O   UNL     1      -0.087  10.832  22.716  0.00  0.00    +0.000 OA
ATOM     11  C   UNL     1      -0.216  10.620  21.369  0.00  0.00    +0.000 A 
ATOM     12  C   UNL     1       0.731   9.757  20.800  0.00  0.00    +0.000 A 
ATOM     13  C   UNL     1       0.724   9.506  19.425  0.00  0.00    +0.000 A 
ATOM     14  C   UNL     1      -0.275  10.104  18.644  0.00  0.00    +0.000 A 
ATOM     15  C   UNL     1      -1.211  10.974  19.209  0.00  0.00    +0.000 A 
ATOM     16  C   UNL     1      -1.167  11.277  20.573  0.00  0.00    +0.000 A 
BRANCH   6  17
ATOM     17  C   UNL     1      -2.732  13.226  20.319  0.00  0.00    +0.000 C 
BRANCH  17  19
ATOM     18  C   UNL     1      -4.592  12.130  19.028  0.00  0.00    +0.000 C 
ATOM     19  C   UNL     1      -4.235  12.954  20.257  0.00  0.00    +0.000 C 
ENDBRANCH  17  19
ENDBRANCH   6  17
ENDBRANCH   1  13
BRANCH   4  20
ATOM     20  C   UNL     1       3.911   5.893  18.464  0.00  0.00    +0.000 C 
ATOM     21  O   UNL     1       4.565   5.518  19.434  0.00  0.00    +0.000 OA
ATOM     22  N   UNL     1       3.914   5.181  17.273  0.00  0.00    +0.000 N 
ATOM     23  H   UNL     1       3.322   5.516  16.520  0.00  0.00    +0.000 HD
BRANCH  22  24
ATOM     24  C   UNL     1       4.667   3.953  17.117  0.00  0.00    +0.000 C 
BRANCH  24  25
ATOM     25  C   UNL     1       3.754   2.744  16.912  0.00  0.00    +0.000 C 
BRANCH  25  26
ATOM     26  C   UNL     1       3.767   1.821  18.135  0.00  0.00    +0.000 C 
BRANCH  26  27
ATOM     27  C   UNL     1       2.871   2.326  19.242  0.00  0.00    +0.000 A 
ATOM     28  C   UNL     1       1.558   2.731  18.963  0.00  0.00    +0.000 A 
ATOM     29  C   UNL     1       0.732   3.211  19.983  0.00  0.00    +0.000 A 
ATOM     30  C   UNL     1       1.210   3.295  21.288  0.00  0.00    +0.000 A 
ATOM     31  C   UNL     1       2.514   2.896  21.577  0.00  0.00    +0.000 A 
ATOM     32  C   UNL     1       3.342   2.416  20.559  0.00  0.00    +0.000 A 
ENDBRANCH  26  27
ENDBRANCH  25  26
ENDBRANCH  24  25
ENDBRANCH  22  24
ENDBRANCH   4  20
TORSDOF 8
ENDMDL
MODEL 5
REMARK VINA RESULT:      -8.0      5.325      7.594
REMARK  Name = 
REMARK  9 active torsions:
REMARK  status: ('A' for Active; 'I' for Inactive)
REMARK    1  A    between atoms: C_1  and  C_2
REMARK    2  A    between atoms: C_2  and  C_3
REMARK    3  A    between atoms: C_3  and  N_4
REMARK    4  A    between atoms: C_11  and  C_12
REMARK    5  A    between atoms: C_15  and  C_16
REMARK    6  A    between atoms: N_18  and  C_19
REMARK    7  A    between atoms: C_19  and  C_20
REMARK    8  A    between atoms: C_20  and  C_21
REMARK    9  A    between atoms: C_21  and  C_22
REMARK                            x       y       z     vdW  Elec       q    Type
REMARK                         _______ _______ _______ _____ _____    ______ ____
ROOT
ATOM      1  C   UNL     1       1.943   7.007  20.191  0.00  0.00    +0.000 A 
ATOM      2  N   UNL     1       1.646   6.012  21.045  0.00  0.00    +0.000 NA
ATOM      3  O   UNL     1       2.376   4.931  20.568  0.00  0.00    +0.000 OA
ATOM      4  C   UNL     1       3.051   5.372  19.472  0.00  0.00    +0.000 A 
ATOM      5  N   UNL     1       2.825   6.642  19.190  0.00  0.00    +0.000 NA
ENDROOT
BRANCH   1  13
ATOM      6  N   UNL     1       0.018  12.356  20.683  0.00  0.00    +0.000 N 
ATOM      7  C   UNL     1      -0.543  12.779  21.883  0.00  0.00    +0.000 C 
ATOM      8  O   UNL     1      -0.841  13.948  22.125  0.00  0.00    +0.000 OA
ATOM      9  C   UNL     1      -0.854  11.658  22.870  0.00  0.00    +0.000 C 
ATOM     10  O   UNL     1      -0.009  10.521  22.880  0.00  0.00    +0.000 OA
ATOM     11  C   UNL     1       0.383  10.133  21.627  0.00  0.00    +0.000 A 
ATOM     12  C   UNL     1       0.882   8.826  21.527  0.00  0.00    +0.000 A 
ATOM     13  C   UNL     1       1.356   8.340  20.306  0.00  0.00    +0.000 A 
ATOM     14  C   UNL     1       1.280   9.175  19.182  0.00  0.00    +0.000 A 
ATOM     15  C   UNL     1       0.794  10.482  19.284  0.00  0.00    +0.000 A 
ATOM     16  C   UNL     1       0.379  10.992  20.517  0.00  0.00    +0.000 A 
BRANCH   6  17
ATOM     17  C   UNL     1       0.354  13.358  19.672  0.00  0.00    +0.000 C 
BRANCH  17  19
ATOM     18  C   UNL     1       2.030  15.038  18.836  0.00  0.00    +0.000 C 
ATOM     19  C   UNL     1       1.776  13.902  19.817  0.00  0.00    +0.000 C 
ENDBRANCH  17  19
ENDBRANCH   6  17
ENDBRANCH   1  13
BRANCH   4  20
ATOM     20  C   UNL     1       3.908   4.433  18.773  0.00  0.00    +0.000 C 
ATOM     21  O   UNL     1       4.657   3.639  19.339  0.00  0.00    +0.000 OA
ATOM     22  N   UNL     1       3.832   4.492  17.389  0.00  0.00    +0.000 N 
ATOM     23  H   UNL     1       3.165   5.137  16.979  0.00  0.00    +0.000 HD
BRANCH  22  24
ATOM     24  C   UNL     1       4.611   3.612  16.541  0.00  0.00    +0.000 C 
BRANCH  24  25
ATOM     25  C   UNL     1       5.251   4.362  15.373  0.00  0.00    +0.000 C 
BRANCH  25  26
ATOM     26  C   UNL     1       6.775   4.423  15.516  0.00  0.00    +0.000 C 
BRANCH  26  27
ATOM     27  C   UNL     1       7.205   5.278  16.685  0.00  0.00    +0.000 A 
ATOM     28  C   UNL     1       7.170   6.677  16.593  0.00  0.00    +0.000 A 
ATOM     29  C   UNL     1       7.581   7.469  17.667  0.00  0.00    +0.000 A 
ATOM     30  C   UNL     1       8.031   6.874  18.843  0.00  0.00    +0.000 A 
ATOM     31  C   UNL     1       8.070   5.484  18.946  0.00  0.00    +0.000 A 
ATOM     32  C   UNL     1       7.662   4.689  17.872  0.00  0.00    +0.000 A 
ENDBRANCH  26  27
ENDBRANCH  25  26
ENDBRANCH  24  25
ENDBRANCH  22  24
ENDBRANCH   4  20
TORSDOF 8
ENDMDL
MODEL 6
REMARK VINA RESULT:      -7.9      6.435      7.949
REMARK  Name = 
REMARK  9 active torsions:
REMARK  status: ('A' for Active; 'I' for Inactive)
REMARK    1  A    between atoms: C_1  and  C_2
REMARK    2  A    between atoms: C_2  and  C_3
REMARK    3  A    between atoms: C_3  and  N_4
REMARK    4  A    between atoms: C_11  and  C_12
REMARK    5  A    between atoms: C_15  and  C_16
REMARK    6  A    between atoms: N_18  and  C_19
REMARK    7  A    between atoms: C_19  and  C_20
REMARK    8  A    between atoms: C_20  and  C_21
REMARK    9  A    between atoms: C_21  and  C_22
REMARK                            x       y       z     vdW  Elec       q    Type
REMARK                         _______ _______ _______ _____ _____    ______ ____
ROOT
ATOM      1  C   UNL     1       1.546   8.921  18.836  0.00  0.00    +0.000 A 
ATOM      2  N   UNL     1       2.100   9.151  17.634  0.00  0.00    +0.000 NA
ATOM      3  O   UNL     1       2.954   8.074  17.444  0.00  0.00    +0.000 OA
ATOM      4  C   UNL     1       2.835   7.286  18.548  0.00  0.00    +0.000 A 
ATOM      5  N   UNL     1       1.983   7.756  19.440  0.00  0.00    +0.000 NA
ENDROOT
BRANCH   1  13
ATOM      6  N   UNL     1      -1.888  12.791  21.245  0.00  0.00    +0.000 N 
ATOM      7  C   UNL     1      -2.170  12.710  22.603  0.00  0.00    +0.000 C 
ATOM      8  O   UNL     1      -2.771  13.581  23.231  0.00  0.00    +0.000 OA
ATOM      9  C   UNL     1      -1.755  11.398  23.262  0.00  0.00    +0.000 C 
ATOM     10  O   UNL     1      -0.604  10.735  22.769  0.00  0.00    +0.000 OA
ATOM     11  C   UNL     1      -0.499  10.787  21.405  0.00  0.00    +0.000 A 
ATOM     12  C   UNL     1       0.371   9.850  20.830  0.00  0.00    +0.000 A 
ATOM     13  C   UNL     1       0.592   9.842  19.450  0.00  0.00    +0.000 A 
ATOM     14  C   UNL     1      -0.107  10.764  18.658  0.00  0.00    +0.000 A 
ATOM     15  C   UNL     1      -0.965  11.706  19.233  0.00  0.00    +0.000 A 
ATOM     16  C   UNL     1      -1.139  11.757  20.618  0.00  0.00    +0.000 A 
BRANCH   6  17
ATOM     17  C   UNL     1      -2.246  14.011  20.523  0.00  0.00    +0.000 C 
BRANCH  17  19
ATOM     18  C   UNL     1      -1.109  16.055  21.451  0.00  0.00    +0.000 C 
ATOM     19  C   UNL     1      -1.075  14.983  20.370  0.00  0.00    +0.000 C 
ENDBRANCH  17  19
ENDBRANCH   6  17
ENDBRANCH   1  13
BRANCH   4  20
ATOM     20  C   UNL     1       3.625   6.070  18.609  0.00  0.00    +0.000 C 
ATOM     21  O   UNL     1       4.112   5.623  19.645  0.00  0.00    +0.000 OA
ATOM     22  N   UNL     1       3.806   5.430  17.392  0.00  0.00    +0.000 N 
ATOM     23  H   UNL     1       3.344   5.823  16.578  0.00  0.00    +0.000 HD
BRANCH  22  24
ATOM     24  C   UNL     1       4.557   4.196  17.280  0.00  0.00    +0.000 C 
BRANCH  24  25
ATOM     25  C   UNL     1       3.675   3.027  16.841  0.00  0.00    +0.000 C 
BRANCH  25  26
ATOM     26  C   UNL     1       3.609   1.942  17.921  0.00  0.00    +0.000 C 
BRANCH  26  27
ATOM     27  C   UNL     1       2.805   2.378  19.122  0.00  0.00    +0.000 A 
ATOM     28  C   UNL     1       1.481   2.814  18.970  0.00  0.00    +0.000 A 
ATOM     29  C   UNL     1       0.739   3.231  20.078  0.00  0.00    +0.000 A 
ATOM     30  C   UNL     1       1.312   3.220  21.347  0.00  0.00    +0.000 A 
ATOM     31  C   UNL     1       2.628   2.790  21.510  0.00  0.00    +0.000 A 
ATOM     32  C   UNL     1       3.372   2.372  20.404  0.00  0.00    +0.000 A 
ENDBRANCH  26  27
ENDBRANCH  25  26
ENDBRANCH  24  25
ENDBRANCH  22  24
ENDBRANCH   4  20
TORSDOF 8
ENDMDL
MODEL 7
REMARK VINA RESULT:      -7.8      1.496      2.189
REMARK  Name = 
REMARK  9 active torsions:
REMARK  status: ('A' for Active; 'I' for Inactive)
REMARK    1  A    between atoms: C_1  and  C_2
REMARK    2  A    between atoms: C_2  and  C_3
REMARK    3  A    between atoms: C_3  and  N_4
REMARK    4  A    between atoms: C_11  and  C_12
REMARK    5  A    between atoms: C_15  and  C_16
REMARK    6  A    between atoms: N_18  and  C_19
REMARK    7  A    between atoms: C_19  and  C_20
REMARK    8  A    between atoms: C_20  and  C_21
REMARK    9  A    between atoms: C_21  and  C_22
REMARK                            x       y       z     vdW  Elec       q    Type
REMARK                         _______ _______ _______ _____ _____    ______ ____
ROOT
ATOM      1  C   UNL     1       8.564   8.930  18.392  0.00  0.00    +0.000 A 
ATOM      2  N   UNL     1       8.703   7.923  19.271  0.00  0.00    +0.000 NA
ATOM      3  O   UNL     1       8.092   6.844  18.646  0.00  0.00    +0.000 OA
ATOM      4  C   UNL     1       7.644   7.296  17.443  0.00  0.00    +0.000 A 
ATOM      5  N   UNL     1       7.905   8.573  17.230  0.00  0.00    +0.000 NA
ENDROOT
BRANCH   1  13
ATOM      6  N   UNL     1      10.076  14.344  19.378  0.00  0.00    +0.000 N 
ATOM      7  C   UNL     1      10.798  15.043  18.418  0.00  0.00    +0.000 C 
ATOM      8  O   UNL     1      11.033  16.249  18.481  0.00  0.00    +0.000 OA
ATOM      9  C   UNL     1      11.372  14.179  17.299  0.00  0.00    +0.000 C 
ATOM     10  O   UNL     1      10.644  13.032  16.897  0.00  0.00    +0.000 OA
ATOM     11  C   UNL     1      10.074  12.363  17.948  0.00  0.00    +0.000 A 
ATOM     12  C   UNL     1       9.681  11.044  17.682  0.00  0.00    +0.000 A 
ATOM     13  C   UNL     1       9.045  10.282  18.666  0.00  0.00    +0.000 A 
ATOM     14  C   UNL     1       8.852  10.856  19.931  0.00  0.00    +0.000 A 
ATOM     15  C   UNL     1       9.233  12.175  20.192  0.00  0.00    +0.000 A 
ATOM     16  C   UNL     1       9.811  12.960  19.190  0.00  0.00    +0.000 A 
BRANCH   6  17
ATOM     17  C   UNL     1       9.484  15.085  20.491  0.00  0.00    +0.000 C 
BRANCH  17  19
ATOM     18  C   UNL     1       9.592  15.162  23.003  0.00  0.00    +0.000 C 
ATOM     19  C   UNL     1      10.399  15.166  21.713  0.00  0.00    +0.000 C 
ENDBRANCH  17  19
ENDBRANCH   6  17
ENDBRANCH   1  13
BRANCH   4  20
ATOM     20  C   UNL     1       6.962   6.358  16.570  0.00  0.00    +0.000 C 
ATOM     21  O   UNL     1       7.467   5.874  15.560  0.00  0.00    +0.000 OA
ATOM     22  N   UNL     1       5.668   6.038  16.955  0.00  0.00    +0.000 N 
ATOM     23  H   UNL     1       5.320   6.436  17.821  0.00  0.00    +0.000 HD
BRANCH  22  24
ATOM     24  C   UNL     1       4.854   5.104  16.202  0.00  0.00    +0.000 C 
BRANCH  24  25
ATOM     25  C   UNL     1       4.083   4.152  17.116  0.00  0.00    +0.000 C 
BRANCH  25  26
ATOM     26  C   UNL     1       3.064   4.905  17.976  0.00  0.00    +0.000 C 
BRANCH  26  27
ATOM     27  C   UNL     1       2.619   4.098  19.173  0.00  0.00    +0.000 A 
ATOM     28  C   UNL     1       1.278   4.115  19.581  0.00  0.00    +0.000 A 
ATOM     29  C   UNL     1       0.866   3.380  20.695  0.00  0.00    +0.000 A 
ATOM     30  C   UNL     1       1.788   2.623  21.414  0.00  0.00    +0.000 A 
ATOM     31  C   UNL     1       3.124   2.599  21.017  0.00  0.00    +0.000 A 
ATOM     32  C   UNL     1       3.539   3.334  19.904  0.00  0.00    +0.000 A 
ENDBRANCH  26  27
ENDBRANCH  25  26
ENDBRANCH  24  25
ENDBRANCH  22  24
ENDBRANCH   4  20
TORSDOF 8
ENDMDL
MODEL 8
REMARK VINA RESULT:      -7.8      6.657      8.506
REMARK  Name = 
REMARK  9 active torsions:
REMARK  status: ('A' for Active; 'I' for Inactive)
REMARK    1  A    between atoms: C_1  and  C_2
REMARK    2  A    between atoms: C_2  and  C_3
REMARK    3  A    between atoms: C_3  and  N_4
REMARK    4  A    between atoms: C_11  and  C_12
REMARK    5  A    between atoms: C_15  and  C_16
REMARK    6  A    between atoms: N_18  and  C_19
REMARK    7  A    between atoms: C_19  and  C_20
REMARK    8  A    between atoms: C_20  and  C_21
REMARK    9  A    between atoms: C_21  and  C_22
REMARK                            x       y       z     vdW  Elec       q    Type
REMARK                         _______ _______ _______ _____ _____    ______ ____
ROOT
ATOM      1  C   UNL     1       1.512   9.048  18.929  0.00  0.00    +0.000 A 
ATOM      2  N   UNL     1       2.033   9.263  17.709  0.00  0.00    +0.000 NA
ATOM      3  O   UNL     1       2.869   8.175  17.503  0.00  0.00    +0.000 OA
ATOM      4  C   UNL     1       2.776   7.397  18.616  0.00  0.00    +0.000 A 
ATOM      5  N   UNL     1       1.956   7.883  19.529  0.00  0.00    +0.000 NA
ENDROOT
BRANCH   1  13
ATOM      6  N   UNL     1      -2.249  12.396  21.615  0.00  0.00    +0.000 N 
ATOM      7  C   UNL     1      -3.400  12.807  20.953  0.00  0.00    +0.000 C 
ATOM      8  O   UNL     1      -4.330  13.398  21.500  0.00  0.00    +0.000 OA
ATOM      9  C   UNL     1      -3.394  12.552  19.449  0.00  0.00    +0.000 C 
ATOM     10  O   UNL     1      -2.706  11.412  18.965  0.00  0.00    +0.000 OA
ATOM     11  C   UNL     1      -1.527  11.178  19.623  0.00  0.00    +0.000 A 
ATOM     12  C   UNL     1      -0.626  10.331  18.965  0.00  0.00    +0.000 A 
ATOM     13  C   UNL     1       0.587   9.984  19.565  0.00  0.00    +0.000 A 
ATOM     14  C   UNL     1       0.894  10.538  20.815  0.00  0.00    +0.000 A 
ATOM     15  C   UNL     1      -0.010  11.374  21.478  0.00  0.00    +0.000 A 
ATOM     16  C   UNL     1      -1.251  11.671  20.908  0.00  0.00    +0.000 A 
BRANCH   6  17
ATOM     17  C   UNL     1      -2.158  12.595  23.061  0.00  0.00    +0.000 C 
BRANCH  17  19
ATOM     18  C   UNL     1      -1.894  15.095  23.152  0.00  0.00    +0.000 C 
ATOM     19  C   UNL     1      -1.240  13.754  23.450  0.00  0.00    +0.000 C 
ENDBRANCH  17  19
ENDBRANCH   6  17
ENDBRANCH   1  13
BRANCH   4  20
ATOM     20  C   UNL     1       3.555   6.174  18.663  0.00  0.00    +0.000 C 
ATOM     21  O   UNL     1       4.003   5.689  19.699  0.00  0.00    +0.000 OA
ATOM     22  N   UNL     1       3.773   5.574  17.431  0.00  0.00    +0.000 N 
ATOM     23  H   UNL     1       3.342   5.997  16.616  0.00  0.00    +0.000 HD
BRANCH  22  24
ATOM     24  C   UNL     1       4.519   4.338  17.304  0.00  0.00    +0.000 C 
BRANCH  24  25
ATOM     25  C   UNL     1       3.636   3.183  16.831  0.00  0.00    +0.000 C 
BRANCH  25  26
ATOM     26  C   UNL     1       3.586   2.057  17.869  0.00  0.00    +0.000 C 
BRANCH  26  27
ATOM     27  C   UNL     1       2.790   2.443  19.093  0.00  0.00    +0.000 A 
ATOM     28  C   UNL     1       1.465   2.885  18.968  0.00  0.00    +0.000 A 
ATOM     29  C   UNL     1       0.731   3.255  20.098  0.00  0.00    +0.000 A 
ATOM     30  C   UNL     1       1.313   3.191  21.361  0.00  0.00    +0.000 A 
ATOM     31  C   UNL     1       2.629   2.754  21.497  0.00  0.00    +0.000 A 
ATOM     32  C   UNL     1       3.366   2.384  20.369  0.00  0.00    +0.000 A 
ENDBRANCH  26  27
ENDBRANCH  25  26
ENDBRANCH  24  25
ENDBRANCH  22  24
ENDBRANCH   4  20
TORSDOF 8
ENDMDL
MODEL 9
REMARK VINA RESULT:      -7.8      7.684     11.484
REMARK  Name = 
REMARK  9 active torsions:
REMARK  status: ('A' for Active; 'I' for Inactive)
REMARK    1  A    between atoms: C_1  and  C_2
REMARK    2  A    between atoms: C_2  and  C_3
REMARK    3  A    between atoms: C_3  and  N_4
REMARK    4  A    between atoms: C_11  and  C_12
REMARK    5  A    between atoms: C_15  and  C_16
REMARK    6  A    between atoms: N_18  and  C_19
REMARK    7  A    between atoms: C_19  and  C_20
REMARK    8  A    between atoms: C_20  and  C_21
REMARK    9  A    between atoms: C_21  and  C_22
REMARK                            x       y       z     vdW  Elec       q    Type
REMARK                         _______ _______ _______ _____ _____    ______ ____
ROOT
ATOM      1  C   UNL     1       1.452   8.281  20.262  0.00  0.00    +0.000 A 
ATOM      2  N   UNL     1       1.264   9.389  19.524  0.00  0.00    +0.000 NA
ATOM      3  O   UNL     1       0.584  10.249  20.374  0.00  0.00    +0.000 OA
ATOM      4  C   UNL     1       0.424   9.585  21.552  0.00  0.00    +0.000 A 
ATOM      5  N   UNL     1       0.938   8.369  21.543  0.00  0.00    +0.000 NA
ENDROOT
BRANCH   1  13
ATOM      6  N   UNL     1       3.716   3.573  17.967  0.00  0.00    +0.000 N 
ATOM      7  C   UNL     1       3.677   2.376  18.672  0.00  0.00    +0.000 C 
ATOM      8  O   UNL     1       4.002   1.289  18.195  0.00  0.00    +0.000 OA
ATOM      9  C   UNL     1       3.283   2.515  20.139  0.00  0.00    +0.000 C 
ATOM     10  O   UNL     1       2.372   3.540  20.495  0.00  0.00    +0.000 OA
ATOM     11  C   UNL     1       2.586   4.708  19.812  0.00  0.00    +0.000 A 
ATOM     12  C   UNL     1       1.999   5.851  20.372  0.00  0.00    +0.000 A 
ATOM     13  C   UNL     1       2.112   7.089  19.735  0.00  0.00    +0.000 A 
ATOM     14  C   UNL     1       2.860   7.164  18.551  0.00  0.00    +0.000 A 
ATOM     15  C   UNL     1       3.435   6.022  17.986  0.00  0.00    +0.000 A 
ATOM     16  C   UNL     1       3.270   4.771  18.588  0.00  0.00    +0.000 A 
BRANCH   6  17
ATOM     17  C   UNL     1       4.081   3.544  16.551  0.00  0.00    +0.000 C 
BRANCH  17  19
ATOM     18  C   UNL     1       5.781   4.187  14.812  0.00  0.00    +0.000 C 
ATOM     19  C   UNL     1       5.528   3.968  16.296  0.00  0.00    +0.000 C 
ENDBRANCH  17  19
ENDBRANCH   6  17
ENDBRANCH   1  13
BRANCH   4  20
ATOM     20  C   UNL     1      -0.260  10.267  22.635  0.00  0.00    +0.000 C 
ATOM     21  O   UNL     1      -0.030  10.063  23.824  0.00  0.00    +0.000 OA
ATOM     22  N   UNL     1      -1.221  11.183  22.232  0.00  0.00    +0.000 N 
ATOM     23  H   UNL     1      -1.338  11.339  21.236  0.00  0.00    +0.000 HD
BRANCH  22  24
ATOM     24  C   UNL     1      -1.986  11.960  23.187  0.00  0.00    +0.000 C 
BRANCH  24  25
ATOM     25  C   UNL     1      -3.041  12.829  22.503  0.00  0.00    +0.000 C 
BRANCH  25  26
ATOM     26  C   UNL     1      -3.486  13.983  23.408  0.00  0.00    +0.000 C 
BRANCH  26  27
ATOM     27  C   UNL     1      -4.978  13.984  23.641  0.00  0.00    +0.000 A 
ATOM     28  C   UNL     1      -5.703  15.183  23.591  0.00  0.00    +0.000 A 
ATOM     29  C   UNL     1      -7.081  15.188  23.820  0.00  0.00    +0.000 A 
ATOM     30  C   UNL     1      -7.748  13.998  24.102  0.00  0.00    +0.000 A 
ATOM     31  C   UNL     1      -7.037  12.801  24.154  0.00  0.00    +0.000 A 
ATOM     32  C   UNL     1      -5.658  12.793  23.926  0.00  0.00    +0.000 A 
ENDBRANCH  26  27
ENDBRANCH  25  26
ENDBRANCH  24  25
ENDBRANCH  22  24
ENDBRANCH   4  20
TORSDOF 8
ENDMDL
