MODEL 1
REMARK VINA RESULT:      -7.3      0.000      0.000
REMARK  Name = 
REMARK  2 active torsions:
REMARK  status: ('A' for Active; 'I' for Inactive)
REMARK    1  A    between atoms: C_2  and  C_3
REMARK    2  A    between atoms: C_18  and  C_19
REMARK                            x       y       z     vdW  Elec       q    Type
REMARK                         _______ _______ _______ _____ _____    ______ ____
ROOT
ATOM      1  O   UNL     1       2.981   3.198  15.758  0.00  0.00    +0.000 OA
ATOM      2  C   UNL     1       3.730   3.359  16.717  0.00  0.00    +0.000 C 
ATOM      3  N   UNL     1       4.766   4.280  16.698  0.00  0.00    +0.000 N 
ATOM      4  C   UNL     1       4.905   5.189  15.574  0.00  0.00    +0.000 C 
ATOM      5  C   UNL     1       6.380   5.139  15.219  0.00  0.00    +0.000 C 
ATOM      6  C   UNL     1       7.076   4.847  16.551  0.00  0.00    +0.000 C 
ATOM      7  C   UNL     1       6.054   4.019  17.331  0.00  0.00    +0.000 C 
ENDROOT
BRANCH   2   8
ATOM      8  C   UNL     1       3.535   2.590  17.982  0.00  0.00    +0.000 C 
ATOM      9  C   UNL     1       2.128   2.388  18.475  0.00  0.00    +0.000 C 
ATOM     10  C   UNL     1       3.102   3.213  19.308  0.00  0.00    +0.000 C 
ATOM     11  C   UNL     1       3.504   2.576  20.621  0.00  0.00    +0.000 C 
ATOM     12  C   UNL     1       2.298   2.705  21.558  0.00  0.00    +0.000 C 
ATOM     13  O   UNL     1       1.844   4.048  21.776  0.00  0.00    +0.000 OA
ATOM     14  C   UNL     1       2.029   4.957  20.760  0.00  0.00    +0.000 A 
ATOM     15  C   UNL     1       1.549   6.244  21.025  0.00  0.00    +0.000 A 
ATOM     16  C   UNL     1       1.799   7.282  20.134  0.00  0.00    +0.000 A 
ATOM     17  C   UNL     1       2.568   7.039  19.003  0.00  0.00    +0.000 A 
ATOM     18  C   UNL     1       3.034   5.748  18.738  0.00  0.00    +0.000 A 
ATOM     19  C   UNL     1       2.716   4.660  19.565  0.00  0.00    +0.000 A 
ENDBRANCH   2   8
BRANCH   6  20
ATOM     20  C   UNL     1       7.512   6.075  17.275  0.00  0.00    +0.000 A 
ATOM     21  N   UNL     1       7.997   6.117  18.499  0.00  0.00    +0.000 NA
ATOM     22  N   UNL     1       8.274   7.426  18.807  0.00  0.00    +0.000 NA
ATOM     23  C   UNL     1       7.951   8.157  17.766  0.00  0.00    +0.000 A 
ATOM     24  N   UNL     1       7.458   7.353  16.782  0.00  0.00    +0.000 N 
ATOM     25  H   UNL     1       7.116   7.648  15.881  0.00  0.00    +0.000 HD
ENDBRANCH   6  20
TORSDOF 2
ENDMDL
MODEL 2
REMARK VINA RESULT:      -6.9      1.222      1.870
REMARK  Name = 
REMARK  2 active torsions:
REMARK  status: ('A' for Active; 'I' for Inactive)
REMARK    1  A    between atoms: C_2  and  C_3
REMARK    2  A    between atoms: C_18  and  C_19
REMARK                            x       y       z     vdW  Elec       q    Type
REMARK                         _______ _______ _______ _____ _____    ______ ____
ROOT
ATOM      1  O   UNL     1       3.361   3.086  16.253  0.00  0.00    +0.000 OA
ATOM      2  C   UNL     1       3.815   3.696  17.216  0.00  0.00    +0.000 C 
ATOM      3  N   UNL     1       4.937   4.503  17.115  0.00  0.00    +0.000 N 
ATOM      4  C   UNL     1       5.530   4.759  15.814  0.00  0.00    +0.000 C 
ATOM      5  C   UNL     1       7.020   4.558  16.024  0.00  0.00    +0.000 C 
ATOM      6  C   UNL     1       7.249   4.952  17.485  0.00  0.00    +0.000 C 
ATOM      7  C   UNL     1       5.934   4.592  18.177  0.00  0.00    +0.000 C 
ENDROOT
BRANCH   2   8
ATOM      8  C   UNL     1       3.150   3.630  18.551  0.00  0.00    +0.000 C 
ATOM      9  C   UNL     1       1.673   3.907  18.617  0.00  0.00    +0.000 C 
ATOM     10  C   UNL     1       2.644   4.850  19.319  0.00  0.00    +0.000 C 
ATOM     11  C   UNL     1       2.564   4.825  20.830  0.00  0.00    +0.000 C 
ATOM     12  C   UNL     1       1.276   5.560  21.214  0.00  0.00    +0.000 C 
ATOM     13  O   UNL     1       1.185   6.910  20.735  0.00  0.00    +0.000 OA
ATOM     14  C   UNL     1       1.828   7.212  19.557  0.00  0.00    +0.000 A 
ATOM     15  C   UNL     1       1.689   8.538  19.133  0.00  0.00    +0.000 A 
ATOM     16  C   UNL     1       2.403   9.000  18.033  0.00  0.00    +0.000 A 
ATOM     17  C   UNL     1       3.291   8.148  17.389  0.00  0.00    +0.000 A 
ATOM     18  C   UNL     1       3.417   6.820  17.811  0.00  0.00    +0.000 A 
ATOM     19  C   UNL     1       2.638   6.296  18.854  0.00  0.00    +0.000 A 
ENDBRANCH   2   8
BRANCH   6  20
ATOM     20  C   UNL     1       7.635   6.380  17.663  0.00  0.00    +0.000 A 
ATOM     21  N   UNL     1       7.466   7.340  16.779  0.00  0.00    +0.000 NA
ATOM     22  N   UNL     1       7.953   8.508  17.314  0.00  0.00    +0.000 NA
ATOM     23  C   UNL     1       8.410   8.236  18.513  0.00  0.00    +0.000 A 
ATOM     24  N   UNL     1       8.242   6.909  18.773  0.00  0.00    +0.000 N 
ATOM     25  H   UNL     1       8.519   6.422  19.611  0.00  0.00    +0.000 HD
ENDBRANCH   6  20
TORSDOF 2
ENDMDL
MODEL 3
REMARK VINA RESULT:      -6.9      4.388      6.777
REMARK  Name = 
REMARK  2 active torsions:
REMARK  status: ('A' for Active; 'I' for Inactive)
REMARK    1  A    between atoms: C_2  and  C_3
REMARK    2  A    between atoms: C_18  and  C_19
REMARK                            x       y       z     vdW  Elec       q    Type
REMARK                         _______ _______ _______ _____ _____    ______ ____
ROOT
ATOM      1  O   UNL     1       1.556   7.006  20.845  0.00  0.00    +0.000 OA
ATOM      2  C   UNL     1       1.892   7.773  19.948  0.00  0.00    +0.000 C 
ATOM      3  N   UNL     1       1.309   9.020  19.786  0.00  0.00    +0.000 N 
ATOM      4  C   UNL     1       0.366   9.511  20.775  0.00  0.00    +0.000 C 
ATOM      5  C   UNL     1      -0.795  10.056  19.963  0.00  0.00    +0.000 C 
ATOM      6  C   UNL     1      -0.150  10.532  18.659  0.00  0.00    +0.000 C 
ATOM      7  C   UNL     1       1.042   9.593  18.471  0.00  0.00    +0.000 C 
ENDROOT
BRANCH   2   8
ATOM      8  C   UNL     1       2.989   7.414  18.999  0.00  0.00    +0.000 C 
ATOM      9  C   UNL     1       2.609   7.025  17.597  0.00  0.00    +0.000 C 
ATOM     10  C   UNL     1       3.268   5.995  18.507  0.00  0.00    +0.000 C 
ATOM     11  C   UNL     1       4.666   5.590  18.090  0.00  0.00    +0.000 C 
ATOM     12  C   UNL     1       4.513   4.687  16.863  0.00  0.00    +0.000 C 
ATOM     13  O   UNL     1       3.699   3.523  17.067  0.00  0.00    +0.000 OA
ATOM     14  C   UNL     1       2.684   3.609  17.991  0.00  0.00    +0.000 A 
ATOM     15  C   UNL     1       1.915   2.449  18.132  0.00  0.00    +0.000 A 
ATOM     16  C   UNL     1       0.950   2.366  19.129  0.00  0.00    +0.000 A 
ATOM     17  C   UNL     1       0.789   3.425  20.013  0.00  0.00    +0.000 A 
ATOM     18  C   UNL     1       1.552   4.587  19.859  0.00  0.00    +0.000 A 
ATOM     19  C   UNL     1       2.464   4.740  18.803  0.00  0.00    +0.000 A 
ENDBRANCH   2   8
BRANCH   6  20
ATOM     20  C   UNL     1       0.234  11.971  18.676  0.00  0.00    +0.000 A 
ATOM     21  N   UNL     1      -0.544  12.972  19.030  0.00  0.00    +0.000 NA
ATOM     22  N   UNL     1       0.172  14.138  18.906  0.00  0.00    +0.000 NA
ATOM     23  C   UNL     1       1.371  13.825  18.476  0.00  0.00    +0.000 A 
ATOM     24  N   UNL     1       1.455  12.475  18.306  0.00  0.00    +0.000 N 
ATOM     25  H   UNL     1       2.253  11.960  17.969  0.00  0.00    +0.000 HD
ENDBRANCH   6  20
TORSDOF 2
ENDMDL
MODEL 4
REMARK VINA RESULT:      -6.7      4.279      6.817
REMARK  Name = 
REMARK  2 active torsions:
REMARK  status: ('A' for Active; 'I' for Inactive)
REMARK    1  A    between atoms: C_2  and  C_3
REMARK    2  A    between atoms: C_18  and  C_19
REMARK                            x       y       z     vdW  Elec       q    Type
REMARK                         _______ _______ _______ _____ _____    ______ ____
ROOT
ATOM      1  O   UNL     1       1.407   6.375  20.897  0.00  0.00    +0.000 OA
ATOM      2  C   UNL     1       1.848   7.350  20.296  0.00  0.00    +0.000 C 
ATOM      3  N   UNL     1       1.399   8.637  20.548  0.00  0.00    +0.000 N 
ATOM      4  C   UNL     1       0.478   8.880  21.644  0.00  0.00    +0.000 C 
ATOM      5  C   UNL     1      -0.594   9.778  21.054  0.00  0.00    +0.000 C 
ATOM      6  C   UNL     1       0.138  10.577  19.974  0.00  0.00    +0.000 C 
ATOM      7  C   UNL     1       1.235   9.628  19.489  0.00  0.00    +0.000 C 
ENDROOT
BRANCH   2   8
ATOM      8  C   UNL     1       2.933   7.202  19.280  0.00  0.00    +0.000 C 
ATOM      9  C   UNL     1       2.533   6.967  17.850  0.00  0.00    +0.000 C 
ATOM     10  C   UNL     1       3.298   5.884  18.601  0.00  0.00    +0.000 C 
ATOM     11  C   UNL     1       4.706   5.645  18.098  0.00  0.00    +0.000 C 
ATOM     12  C   UNL     1       4.577   4.897  16.768  0.00  0.00    +0.000 C 
ATOM     13  O   UNL     1       3.859   3.657  16.840  0.00  0.00    +0.000 OA
ATOM     14  C   UNL     1       2.874   3.545  17.794  0.00  0.00    +0.000 A 
ATOM     15  C   UNL     1       2.198   2.320  17.802  0.00  0.00    +0.000 A 
ATOM     16  C   UNL     1       1.278   2.035  18.805  0.00  0.00    +0.000 A 
ATOM     17  C   UNL     1       1.071   2.957  19.823  0.00  0.00    +0.000 A 
ATOM     18  C   UNL     1       1.741   4.185  19.802  0.00  0.00    +0.000 A 
ATOM     19  C   UNL     1       2.601   4.543  18.751  0.00  0.00    +0.000 A 
ENDBRANCH   2   8
BRANCH   6  20
ATOM     20  C   UNL     1       0.665  11.885  20.456  0.00  0.00    +0.000 A 
ATOM     21  N   UNL     1       0.427  12.426  21.632  0.00  0.00    +0.000 NA
ATOM     22  N   UNL     1       1.084  13.631  21.693  0.00  0.00    +0.000 NA
ATOM     23  C   UNL     1       1.708  13.801  20.552  0.00  0.00    +0.000 A 
ATOM     24  N   UNL     1       1.466  12.736  19.737  0.00  0.00    +0.000 N 
ATOM     25  H   UNL     1       1.803  12.610  18.796  0.00  0.00    +0.000 HD
ENDBRANCH   6  20
TORSDOF 2
ENDMDL
MODEL 5
REMARK VINA RESULT:      -6.6      3.419      5.669
REMARK  Name = 
REMARK  2 active torsions:
REMARK  status: ('A' for Active; 'I' for Inactive)
REMARK    1  A    between atoms: C_2  and  C_3
REMARK    2  A    between atoms: C_18  and  C_19
REMARK                            x       y       z     vdW  Elec       q    Type
REMARK                         _______ _______ _______ _____ _____    ______ ____
ROOT
ATOM      1  O   UNL     1       1.972   7.174  20.233  0.00  0.00    +0.000 OA
ATOM      2  C   UNL     1       2.305   7.373  19.069  0.00  0.00    +0.000 C 
ATOM      3  N   UNL     1       3.298   6.632  18.448  0.00  0.00    +0.000 N 
ATOM      4  C   UNL     1       3.881   5.490  19.131  0.00  0.00    +0.000 C 
ATOM      5  C   UNL     1       5.378   5.649  18.937  0.00  0.00    +0.000 C 
ATOM      6  C   UNL     1       5.508   6.370  17.593  0.00  0.00    +0.000 C 
ATOM      7  C   UNL     1       4.242   7.223  17.506  0.00  0.00    +0.000 C 
ENDROOT
BRANCH   2   8
ATOM      8  C   UNL     1       1.621   8.410  18.240  0.00  0.00    +0.000 C 
ATOM      9  C   UNL     1       2.049   9.842  18.407  0.00  0.00    +0.000 C 
ATOM     10  C   UNL     1       0.631   9.434  18.791  0.00  0.00    +0.000 C 
ATOM     11  C   UNL     1      -0.451  10.009  17.902  0.00  0.00    +0.000 C 
ATOM     12  C   UNL     1      -0.576  11.492  18.265  0.00  0.00    +0.000 C 
ATOM     13  O   UNL     1      -0.877  11.752  19.644  0.00  0.00    +0.000 OA
ATOM     14  C   UNL     1      -0.423  10.848  20.577  0.00  0.00    +0.000 A 
ATOM     15  C   UNL     1      -0.732  11.166  21.904  0.00  0.00    +0.000 A 
ATOM     16  C   UNL     1      -0.449  10.263  22.924  0.00  0.00    +0.000 A 
ATOM     17  C   UNL     1       0.099   9.027  22.608  0.00  0.00    +0.000 A 
ATOM     18  C   UNL     1       0.416   8.721  21.280  0.00  0.00    +0.000 A 
ATOM     19  C   UNL     1       0.234   9.647  20.241  0.00  0.00    +0.000 A 
ENDBRANCH   2   8
BRANCH   6  20
ATOM     20  C   UNL     1       5.674   5.446  16.436  0.00  0.00    +0.000 A 
ATOM     21  N   UNL     1       5.554   5.772  15.166  0.00  0.00    +0.000 NA
ATOM     22  N   UNL     1       5.775   4.646  14.411  0.00  0.00    +0.000 NA
ATOM     23  C   UNL     1       6.022   3.656  15.235  0.00  0.00    +0.000 A 
ATOM     24  N   UNL     1       5.959   4.107  16.519  0.00  0.00    +0.000 N 
ATOM     25  H   UNL     1       6.089   3.560  17.355  0.00  0.00    +0.000 HD
ENDBRANCH   6  20
TORSDOF 2
ENDMDL
MODEL 6
REMARK VINA RESULT:      -6.6      8.663     11.489
REMARK  Name = 
REMARK  2 active torsions:
REMARK  status: ('A' for Active; 'I' for Inactive)
REMARK    1  A    between atoms: C_2  and  C_3
REMARK    2  A    between atoms: C_18  and  C_19
REMARK                            x       y       z     vdW  Elec       q    Type
REMARK                         _______ _______ _______ _____ _____    ______ ____
ROOT
ATOM      1  O   UNL     1       1.414  13.723  21.720  0.00  0.00    +0.000 OA
ATOM      2  C   UNL     1       1.465  13.408  20.535  0.00  0.00    +0.000 C 
ATOM      3  N   UNL     1       0.491  12.623  19.938  0.00  0.00    +0.000 N 
ATOM      4  C   UNL     1      -0.704  12.263  20.681  0.00  0.00    +0.000 C 
ATOM      5  C   UNL     1      -0.879  10.776  20.430  0.00  0.00    +0.000 C 
ATOM      6  C   UNL     1      -0.288  10.558  19.035  0.00  0.00    +0.000 C 
ATOM      7  C   UNL     1       0.808  11.620  18.927  0.00  0.00    +0.000 C 
ENDROOT
BRANCH   2   8
ATOM      8  C   UNL     1       2.569  13.896  19.656  0.00  0.00    +0.000 C 
ATOM      9  C   UNL     1       3.268  15.170  20.043  0.00  0.00    +0.000 C 
ATOM     10  C   UNL     1       2.467  15.119  18.747  0.00  0.00    +0.000 C 
ATOM     11  C   UNL     1       3.303  15.209  17.488  0.00  0.00    +0.000 C 
ATOM     12  C   UNL     1       3.761  16.666  17.369  0.00  0.00    +0.000 C 
ATOM     13  O   UNL     1       2.700  17.631  17.331  0.00  0.00    +0.000 OA
ATOM     14  C   UNL     1       1.536  17.326  17.998  0.00  0.00    +0.000 A 
ATOM     15  C   UNL     1       0.547  18.313  17.939  0.00  0.00    +0.000 A 
ATOM     16  C   UNL     1      -0.720  18.066  18.456  0.00  0.00    +0.000 A 
ATOM     17  C   UNL     1      -1.009  16.815  18.987  0.00  0.00    +0.000 A 
ATOM     18  C   UNL     1      -0.012  15.837  19.053  0.00  0.00    +0.000 A 
ATOM     19  C   UNL     1       1.304  16.088  18.631  0.00  0.00    +0.000 A 
ENDBRANCH   2   8
BRANCH   6  20
ATOM     20  C   UNL     1      -1.296  10.644  17.941  0.00  0.00    +0.000 A 
ATOM     21  N   UNL     1      -2.005   9.641  17.466  0.00  0.00    +0.000 NA
ATOM     22  N   UNL     1      -2.815  10.122  16.467  0.00  0.00    +0.000 NA
ATOM     23  C   UNL     1      -2.583  11.408  16.351  0.00  0.00    +0.000 A 
ATOM     24  N   UNL     1      -1.628  11.780  17.249  0.00  0.00    +0.000 N 
ATOM     25  H   UNL     1      -1.243  12.704  17.369  0.00  0.00    +0.000 HD
ENDBRANCH   6  20
TORSDOF 2
ENDMDL
MODEL 7
REMARK VINA RESULT:      -6.6      9.433     12.516
REMARK  Name = 
REMARK  2 active torsions:
REMARK  status: ('A' for Active; 'I' for Inactive)
REMARK    1  A    between atoms: C_2  and  C_3
REMARK    2  A    between atoms: C_18  and  C_19
REMARK                            x       y       z     vdW  Elec       q    Type
REMARK                         _______ _______ _______ _____ _____    ______ ____
ROOT
ATOM      1  O   UNL     1      -1.280  15.095  20.519  0.00  0.00    +0.000 OA
ATOM      2  C   UNL     1      -1.612  14.275  21.369  0.00  0.00    +0.000 C 
ATOM      3  N   UNL     1      -2.874  14.277  21.942  0.00  0.00    +0.000 N 
ATOM      4  C   UNL     1      -3.895  15.179  21.440  0.00  0.00    +0.000 C 
ATOM      5  C   UNL     1      -4.509  15.795  22.685  0.00  0.00    +0.000 C 
ATOM      6  C   UNL     1      -4.364  14.708  23.752  0.00  0.00    +0.000 C 
ATOM      7  C   UNL     1      -3.093  13.959  23.350  0.00  0.00    +0.000 C 
ENDROOT
BRANCH   2   8
ATOM      8  C   UNL     1      -0.675  13.197  21.805  0.00  0.00    +0.000 C 
ATOM      9  C   UNL     1       0.558  12.957  20.977  0.00  0.00    +0.000 C 
ATOM     10  C   UNL     1      -0.501  11.865  21.076  0.00  0.00    +0.000 C 
ATOM     11  C   UNL     1      -0.062  10.630  21.833  0.00  0.00    +0.000 C 
ATOM     12  C   UNL     1       0.904   9.873  20.916  0.00  0.00    +0.000 C 
ATOM     13  O   UNL     1       0.361   9.507  19.639  0.00  0.00    +0.000 OA
ATOM     14  C   UNL     1      -0.608  10.321  19.100  0.00  0.00    +0.000 A 
ATOM     15  C   UNL     1      -1.084   9.921  17.847  0.00  0.00    +0.000 A 
ATOM     16  C   UNL     1      -2.159  10.583  17.263  0.00  0.00    +0.000 A 
ATOM     17  C   UNL     1      -2.784  11.612  17.955  0.00  0.00    +0.000 A 
ATOM     18  C   UNL     1      -2.295  12.015  19.202  0.00  0.00    +0.000 A 
ATOM     19  C   UNL     1      -1.152  11.433  19.774  0.00  0.00    +0.000 A 
ENDBRANCH   2   8
BRANCH   6  20
ATOM     20  C   UNL     1      -5.557  13.822  23.864  0.00  0.00    +0.000 A 
ATOM     21  N   UNL     1      -5.561  12.513  23.721  0.00  0.00    +0.000 NA
ATOM     22  N   UNL     1      -6.848  12.066  23.892  0.00  0.00    +0.000 NA
ATOM     23  C   UNL     1      -7.603  13.110  24.135  0.00  0.00    +0.000 A 
ATOM     24  N   UNL     1      -6.839  14.238  24.117  0.00  0.00    +0.000 N 
ATOM     25  H   UNL     1      -7.160  15.184  24.254  0.00  0.00    +0.000 HD
ENDBRANCH   6  20
TORSDOF 2
ENDMDL
MODEL 8
REMARK VINA RESULT:      -6.5      4.503      6.928
REMARK  Name = 
REMARK  2 active torsions:
REMARK  status: ('A' for Active; 'I' for Inactive)
REMARK    1  A    between atoms: C_2  and  C_3
REMARK    2  A    between atoms: C_18  and  C_19
REMARK                            x       y       z     vdW  Elec       q    Type
REMARK                         _______ _______ _______ _____ _____    ______ ____
ROOT
ATOM      1  O   UNL     1       3.883   8.091  18.028  0.00  0.00    +0.000 OA
ATOM      2  C   UNL     1       2.697   7.889  18.274  0.00  0.00    +0.000 C 
ATOM      3  N   UNL     1       1.751   8.900  18.224  0.00  0.00    +0.000 N 
ATOM      4  C   UNL     1       2.124  10.217  17.737  0.00  0.00    +0.000 C 
ATOM      5  C   UNL     1       1.530  11.182  18.747  0.00  0.00    +0.000 C 
ATOM      6  C   UNL     1       0.282  10.463  19.265  0.00  0.00    +0.000 C 
ATOM      7  C   UNL     1       0.642   8.980  19.169  0.00  0.00    +0.000 C 
ENDROOT
BRANCH   2   8
ATOM      8  C   UNL     1       2.203   6.519  18.602  0.00  0.00    +0.000 C 
ATOM      9  C   UNL     1       3.071   5.643  19.463  0.00  0.00    +0.000 C 
ATOM     10  C   UNL     1       2.789   5.233  18.022  0.00  0.00    +0.000 C 
ATOM     11  C   UNL     1       1.928   3.996  17.877  0.00  0.00    +0.000 C 
ATOM     12  C   UNL     1       2.813   2.800  18.245  0.00  0.00    +0.000 C 
ATOM     13  O   UNL     1       4.007   2.669  17.459  0.00  0.00    +0.000 OA
ATOM     14  C   UNL     1       4.573   3.820  16.962  0.00  0.00    +0.000 A 
ATOM     15  C   UNL     1       5.743   3.629  16.221  0.00  0.00    +0.000 A 
ATOM     16  C   UNL     1       6.332   4.697  15.553  0.00  0.00    +0.000 A 
ATOM     17  C   UNL     1       5.721   5.944  15.590  0.00  0.00    +0.000 A 
ATOM     18  C   UNL     1       4.558   6.131  16.344  0.00  0.00    +0.000 A 
ATOM     19  C   UNL     1       3.995   5.097  17.108  0.00  0.00    +0.000 A 
ENDBRANCH   2   8
BRANCH   6  20
ATOM     20  C   UNL     1      -0.960  10.815  18.519  0.00  0.00    +0.000 A 
ATOM     21  N   UNL     1      -1.904  11.631  18.937  0.00  0.00    +0.000 NA
ATOM     22  N   UNL     1      -2.880  11.689  17.972  0.00  0.00    +0.000 NA
ATOM     23  C   UNL     1      -2.512  10.905  16.987  0.00  0.00    +0.000 A 
ATOM     24  N   UNL     1      -1.317  10.325  17.289  0.00  0.00    +0.000 N 
ATOM     25  H   UNL     1      -0.809   9.665  16.722  0.00  0.00    +0.000 HD
ENDBRANCH   6  20
TORSDOF 2
ENDMDL
MODEL 9
REMARK VINA RESULT:      -6.5      9.412     12.579
REMARK  Name = 
REMARK  2 active torsions:
REMARK  status: ('A' for Active; 'I' for Inactive)
REMARK    1  A    between atoms: C_2  and  C_3
REMARK    2  A    between atoms: C_18  and  C_19
REMARK                            x       y       z     vdW  Elec       q    Type
REMARK                         _______ _______ _______ _____ _____    ______ ____
ROOT
ATOM      1  O   UNL     1      -2.017  15.210  20.572  0.00  0.00    +0.000 OA
ATOM      2  C   UNL     1      -2.290  14.189  21.197  0.00  0.00    +0.000 C 
ATOM      3  N   UNL     1      -3.582  13.897  21.605  0.00  0.00    +0.000 N 
ATOM      4  C   UNL     1      -4.684  14.739  21.175  0.00  0.00    +0.000 C 
ATOM      5  C   UNL     1      -5.494  14.986  22.434  0.00  0.00    +0.000 C 
ATOM      6  C   UNL     1      -5.275  13.725  23.274  0.00  0.00    +0.000 C 
ATOM      7  C   UNL     1      -3.871  13.258  22.884  0.00  0.00    +0.000 C 
ENDROOT
BRANCH   2   8
ATOM      8  C   UNL     1      -1.237  13.179  21.517  0.00  0.00    +0.000 C 
ATOM      9  C   UNL     1      -0.048  13.085  20.602  0.00  0.00    +0.000 C 
ATOM     10  C   UNL     1      -1.001  11.901  20.715  0.00  0.00    +0.000 C 
ATOM     11  C   UNL     1      -0.408  10.677  21.380  0.00  0.00    +0.000 C 
ATOM     12  C   UNL     1       0.554  10.050  20.366  0.00  0.00    +0.000 C 
ATOM     13  O   UNL     1      -0.042   9.692  19.110  0.00  0.00    +0.000 OA
ATOM     14  C   UNL     1      -1.111  10.441  18.676  0.00  0.00    +0.000 A 
ATOM     15  C   UNL     1      -1.636  10.056  17.438  0.00  0.00    +0.000 A 
ATOM     16  C   UNL     1      -2.801  10.645  16.957  0.00  0.00    +0.000 A 
ATOM     17  C   UNL     1      -3.462  11.584  17.738  0.00  0.00    +0.000 A 
ATOM     18  C   UNL     1      -2.925  11.974  18.969  0.00  0.00    +0.000 A 
ATOM     19  C   UNL     1      -1.701  11.471  19.437  0.00  0.00    +0.000 A 
ENDBRANCH   2   8
BRANCH   6  20
ATOM     20  C   UNL     1      -6.319  12.682  23.065  0.00  0.00    +0.000 A 
ATOM     21  N   UNL     1      -7.095  12.171  23.997  0.00  0.00    +0.000 NA
ATOM     22  N   UNL     1      -7.917  11.240  23.409  0.00  0.00    +0.000 NA
ATOM     23  C   UNL     1      -7.623  11.200  22.131  0.00  0.00    +0.000 A 
ATOM     24  N   UNL     1      -6.617  12.082  21.869  0.00  0.00    +0.000 N 
ATOM     25  H   UNL     1      -6.181  12.246  20.975  0.00  0.00    +0.000 HD
ENDBRANCH   6  20
TORSDOF 2
ENDMDL
