MODEL 1
REMARK VINA RESULT:      -8.4      0.000      0.000
REMARK  Name = 
REMARK  8 active torsions:
REMARK  status: ('A' for Active; 'I' for Inactive)
REMARK    1  A    between atoms: C_1  and  O_2
REMARK    2  A    between atoms: O_2  and  C_3
REMARK    3  A    between atoms: C_3  and  C_5
REMARK    4  A    between atoms: C_10  and  C_11
REMARK    5  A    between atoms: C_13  and  C_14
REMARK    6  A    between atoms: C_19  and  C_20
REMARK    7  A    between atoms: C_20  and  N_21
REMARK    8  A    between atoms: C_22  and  C_24
REMARK                            x       y       z     vdW  Elec       q    Type
REMARK                         _______ _______ _______ _____ _____    ______ ____
ROOT
ATOM      1  C   UNL     1       2.984   5.796  18.948  0.00  0.00    +0.000 A 
ATOM      2  C   UNL     1       2.214   6.986  18.916  0.00  0.00    +0.000 A 
ATOM      3  C   UNL     1       2.530   8.097  18.106  0.00  0.00    +0.000 A 
ATOM      4  C   UNL     1       1.548   9.214  17.914  0.00  0.00    +0.000 C 
ATOM      5  C   UNL     1       3.731   8.114  17.411  0.00  0.00    +0.000 A 
ATOM      6  C   UNL     1       4.551   7.010  17.511  0.00  0.00    +0.000 A 
ATOM      7  C   UNL     1       4.177   5.860  18.209  0.00  0.00    +0.000 A 
ATOM      8  O   UNL     1       5.113   4.854  18.030  0.00  0.00    +0.000 OA
ATOM      9  C   UNL     1       6.308   5.571  17.586  0.00  0.00    +0.000 C 
ATOM     10  C   UNL     1       5.865   6.830  16.857  0.00  0.00    +0.000 C 
ENDROOT
BRANCH   1  16
ATOM     11  C   UNL     1       1.951   3.434  19.264  0.00  0.00    +0.000 A 
ATOM     12  C   UNL     1       1.463   2.424  20.122  0.00  0.00    +0.000 A 
ATOM     13  C   UNL     1       1.548   2.561  21.502  0.00  0.00    +0.000 A 
ATOM     14  C   UNL     1       2.118   3.710  22.034  0.00  0.00    +0.000 A 
ATOM     15  C   UNL     1       2.592   4.724  21.189  0.00  0.00    +0.000 A 
ATOM     16  C   UNL     1       2.531   4.632  19.780  0.00  0.00    +0.000 A 
BRANCH  11  17
ATOM     17  C   UNL     1       1.856   3.126  17.808  0.00  0.00    +0.000 C 
ATOM     18  O   UNL     1       1.381   3.865  16.963  0.00  0.00    +0.000 OA
BRANCH  17  20
ATOM     19  C   UNL     1       3.755   1.738  17.822  0.00  0.00    +0.000 C 
ATOM     20  O   UNL     1       2.350   1.877  17.586  0.00  0.00    +0.000 OA
ENDBRANCH  17  20
ENDBRANCH  11  17
ENDBRANCH   1  16
BRANCH   9  21
ATOM     21  C   UNL     1       7.276   4.712  16.760  0.00  0.00    +0.000 C 
BRANCH  21  22
ATOM     22  N   UNL     1       7.145   4.825  15.312  0.00  0.00    +0.000 N 
ATOM     23  C   UNL     1       6.287   4.028  14.576  0.00  0.00    +0.000 C 
ATOM     24  O   UNL     1       5.615   3.137  15.089  0.00  0.00    +0.000 OA
ATOM     25  H   UNL     1       7.754   5.485  14.840  0.00  0.00    +0.000 HD
BRANCH  23  26
ATOM     26  C   UNL     1       6.172   4.402  13.099  0.00  0.00    +0.000 C 
ATOM     27  C   UNL     1       5.031   3.708  12.380  0.00  0.00    +0.000 C 
ATOM     28  C   UNL     1       5.662   2.428  11.874  0.00  0.00    +0.000 C 
ATOM     29  O   UNL     1       7.060   2.685  11.704  0.00  0.00    +0.000 OA
ATOM     30  C   UNL     1       7.374   3.955  12.293  0.00  0.00    +0.000 C 
ENDBRANCH  23  26
ENDBRANCH  21  22
ENDBRANCH   9  21
TORSDOF 6
ENDMDL
MODEL 2
REMARK VINA RESULT:      -8.2      3.289      7.996
REMARK  Name = 
REMARK  8 active torsions:
REMARK  status: ('A' for Active; 'I' for Inactive)
REMARK    1  A    between atoms: C_1  and  O_2
REMARK    2  A    between atoms: O_2  and  C_3
REMARK    3  A    between atoms: C_3  and  C_5
REMARK    4  A    between atoms: C_10  and  C_11
REMARK    5  A    between atoms: C_13  and  C_14
REMARK    6  A    between atoms: C_19  and  C_20
REMARK    7  A    between atoms: C_20  and  N_21
REMARK    8  A    between atoms: C_22  and  C_24
REMARK                            x       y       z     vdW  Elec       q    Type
REMARK                         _______ _______ _______ _____ _____    ______ ____
ROOT
ATOM      1  C   UNL     1       4.579   4.749  17.579  0.00  0.00    +0.000 A 
ATOM      2  C   UNL     1       4.654   3.685  18.513  0.00  0.00    +0.000 A 
ATOM      3  C   UNL     1       3.866   3.617  19.681  0.00  0.00    +0.000 A 
ATOM      4  C   UNL     1       3.794   2.356  20.489  0.00  0.00    +0.000 C 
ATOM      5  C   UNL     1       3.081   4.705  20.038  0.00  0.00    +0.000 A 
ATOM      6  C   UNL     1       3.073   5.799  19.199  0.00  0.00    +0.000 A 
ATOM      7  C   UNL     1       3.753   5.812  17.979  0.00  0.00    +0.000 A 
ATOM      8  O   UNL     1       3.463   6.967  17.271  0.00  0.00    +0.000 OA
ATOM      9  C   UNL     1       2.956   7.881  18.295  0.00  0.00    +0.000 C 
ATOM     10  C   UNL     1       2.314   7.052  19.397  0.00  0.00    +0.000 C 
ENDROOT
BRANCH   1  16
ATOM     11  C   UNL     1       6.605   5.430  16.103  0.00  0.00    +0.000 A 
ATOM     12  C   UNL     1       7.265   5.403  14.855  0.00  0.00    +0.000 A 
ATOM     13  C   UNL     1       6.762   4.650  13.800  0.00  0.00    +0.000 A 
ATOM     14  C   UNL     1       5.596   3.920  13.986  0.00  0.00    +0.000 A 
ATOM     15  C   UNL     1       4.926   3.953  15.218  0.00  0.00    +0.000 A 
ATOM     16  C   UNL     1       5.398   4.702  16.321  0.00  0.00    +0.000 A 
BRANCH  11  17
ATOM     17  C   UNL     1       7.290   6.225  17.162  0.00  0.00    +0.000 C 
ATOM     18  O   UNL     1       7.387   7.440  17.177  0.00  0.00    +0.000 OA
BRANCH  17  20
ATOM     19  C   UNL     1       7.638   5.776  19.445  0.00  0.00    +0.000 C 
ATOM     20  O   UNL     1       7.819   5.373  18.084  0.00  0.00    +0.000 OA
ENDBRANCH  17  20
ENDBRANCH  11  17
ENDBRANCH   1  16
BRANCH   9  21
ATOM     21  C   UNL     1       2.024   8.971  17.748  0.00  0.00    +0.000 C 
BRANCH  21  22
ATOM     22  N   UNL     1       1.355   9.794  18.748  0.00  0.00    +0.000 N 
ATOM     23  C   UNL     1       0.035  10.188  18.630  0.00  0.00    +0.000 C 
ATOM     24  O   UNL     1      -0.647   9.911  17.646  0.00  0.00    +0.000 OA
ATOM     25  H   UNL     1       1.914  10.122  19.529  0.00  0.00    +0.000 HD
BRANCH  23  26
ATOM     26  C   UNL     1      -0.532  10.909  19.851  0.00  0.00    +0.000 C 
ATOM     27  C   UNL     1      -0.548  12.420  19.714  0.00  0.00    +0.000 C 
ATOM     28  C   UNL     1       0.803  12.836  20.256  0.00  0.00    +0.000 C 
ATOM     29  O   UNL     1       1.211  11.832  21.191  0.00  0.00    +0.000 OA
ATOM     30  C   UNL     1       0.321  10.712  21.088  0.00  0.00    +0.000 C 
ENDBRANCH  23  26
ENDBRANCH  21  22
ENDBRANCH   9  21
TORSDOF 6
ENDMDL
MODEL 3
REMARK VINA RESULT:      -8.2      3.408      7.972
REMARK  Name = 
REMARK  8 active torsions:
REMARK  status: ('A' for Active; 'I' for Inactive)
REMARK    1  A    between atoms: C_1  and  O_2
REMARK    2  A    between atoms: O_2  and  C_3
REMARK    3  A    between atoms: C_3  and  C_5
REMARK    4  A    between atoms: C_10  and  C_11
REMARK    5  A    between atoms: C_13  and  C_14
REMARK    6  A    between atoms: C_19  and  C_20
REMARK    7  A    between atoms: C_20  and  N_21
REMARK    8  A    between atoms: C_22  and  C_24
REMARK                            x       y       z     vdW  Elec       q    Type
REMARK                         _______ _______ _______ _____ _____    ______ ____
ROOT
ATOM      1  C   UNL     1       4.071   4.903  18.462  0.00  0.00    +0.000 A 
ATOM      2  C   UNL     1       3.878   3.926  19.471  0.00  0.00    +0.000 A 
ATOM      3  C   UNL     1       2.888   4.024  20.471  0.00  0.00    +0.000 A 
ATOM      4  C   UNL     1       2.556   2.851  21.344  0.00  0.00    +0.000 C 
ATOM      5  C   UNL     1       2.153   5.196  20.590  0.00  0.00    +0.000 A 
ATOM      6  C   UNL     1       2.397   6.207  19.685  0.00  0.00    +0.000 A 
ATOM      7  C   UNL     1       3.286   6.057  18.617  0.00  0.00    +0.000 A 
ATOM      8  O   UNL     1       3.235   7.162  17.782  0.00  0.00    +0.000 OA
ATOM      9  C   UNL     1       2.635   8.200  18.620  0.00  0.00    +0.000 C 
ATOM     10  C   UNL     1       1.731   7.525  19.640  0.00  0.00    +0.000 C 
ENDROOT
BRANCH   1  16
ATOM     11  C   UNL     1       6.462   5.090  17.463  0.00  0.00    +0.000 A 
ATOM     12  C   UNL     1       7.340   4.925  16.370  0.00  0.00    +0.000 A 
ATOM     13  C   UNL     1       6.901   4.343  15.186  0.00  0.00    +0.000 A 
ATOM     14  C   UNL     1       5.582   3.923  15.088  0.00  0.00    +0.000 A 
ATOM     15  C   UNL     1       4.699   4.095  16.164  0.00  0.00    +0.000 A 
ATOM     16  C   UNL     1       5.097   4.680  17.389  0.00  0.00    +0.000 A 
BRANCH  11  17
ATOM     17  C   UNL     1       7.082   5.667  18.690  0.00  0.00    +0.000 C 
ATOM     18  O   UNL     1       6.892   5.271  19.827  0.00  0.00    +0.000 OA
BRANCH  17  20
ATOM     19  C   UNL     1       7.172   7.773  17.647  0.00  0.00    +0.000 C 
ATOM     20  O   UNL     1       7.862   6.726  18.337  0.00  0.00    +0.000 OA
ENDBRANCH  17  20
ENDBRANCH  11  17
ENDBRANCH   1  16
BRANCH   9  21
ATOM     21  C   UNL     1       1.922   9.303  17.826  0.00  0.00    +0.000 C 
BRANCH  21  22
ATOM     22  N   UNL     1       1.097  10.215  18.609  0.00  0.00    +0.000 N 
ATOM     23  C   UNL     1      -0.265  10.350  18.407  0.00  0.00    +0.000 C 
ATOM     24  O   UNL     1      -0.860   9.746  17.519  0.00  0.00    +0.000 OA
ATOM     25  H   UNL     1       1.569  10.802  19.289  0.00  0.00    +0.000 HD
BRANCH  23  26
ATOM     26  C   UNL     1      -0.980  11.233  19.428  0.00  0.00    +0.000 C 
ATOM     27  C   UNL     1      -1.478  12.546  18.857  0.00  0.00    +0.000 C 
ATOM     28  C   UNL     1      -0.307  13.484  19.058  0.00  0.00    +0.000 C 
ATOM     29  O   UNL     1       0.435  12.998  20.182  0.00  0.00    +0.000 OA
ATOM     30  C   UNL     1      -0.059  11.699  20.538  0.00  0.00    +0.000 C 
ENDBRANCH  23  26
ENDBRANCH  21  22
ENDBRANCH   9  21
TORSDOF 6
ENDMDL
MODEL 4
REMARK VINA RESULT:      -8.2      3.317      8.005
REMARK  Name = 
REMARK  8 active torsions:
REMARK  status: ('A' for Active; 'I' for Inactive)
REMARK    1  A    between atoms: C_1  and  O_2
REMARK    2  A    between atoms: O_2  and  C_3
REMARK    3  A    between atoms: C_3  and  C_5
REMARK    4  A    between atoms: C_10  and  C_11
REMARK    5  A    between atoms: C_13  and  C_14
REMARK    6  A    between atoms: C_19  and  C_20
REMARK    7  A    between atoms: C_20  and  N_21
REMARK    8  A    between atoms: C_22  and  C_24
REMARK                            x       y       z     vdW  Elec       q    Type
REMARK                         _______ _______ _______ _____ _____    ______ ____
ROOT
ATOM      1  C   UNL     1       4.452   4.481  16.978  0.00  0.00    +0.000 A 
ATOM      2  C   UNL     1       4.244   3.254  17.658  0.00  0.00    +0.000 A 
ATOM      3  C   UNL     1       3.275   3.079  18.667  0.00  0.00    +0.000 A 
ATOM      4  C   UNL     1       2.918   1.709  19.163  0.00  0.00    +0.000 C 
ATOM      5  C   UNL     1       2.581   4.181  19.146  0.00  0.00    +0.000 A 
ATOM      6  C   UNL     1       2.843   5.408  18.574  0.00  0.00    +0.000 A 
ATOM      7  C   UNL     1       3.709   5.558  17.487  0.00  0.00    +0.000 A 
ATOM      8  O   UNL     1       3.681   6.861  17.017  0.00  0.00    +0.000 OA
ATOM      9  C   UNL     1       3.130   7.620  18.140  0.00  0.00    +0.000 C 
ATOM     10  C   UNL     1       2.221   6.698  18.938  0.00  0.00    +0.000 C 
ENDROOT
BRANCH   1  16
ATOM     11  C   UNL     1       6.657   5.321  15.892  0.00  0.00    +0.000 A 
ATOM     12  C   UNL     1       7.498   5.415  14.761  0.00  0.00    +0.000 A 
ATOM     13  C   UNL     1       7.181   4.752  13.582  0.00  0.00    +0.000 A 
ATOM     14  C   UNL     1       6.021   3.991  13.524  0.00  0.00    +0.000 A 
ATOM     15  C   UNL     1       5.173   3.904  14.638  0.00  0.00    +0.000 A 
ATOM     16  C   UNL     1       5.452   4.558  15.860  0.00  0.00    +0.000 A 
BRANCH  11  17
ATOM     17  C   UNL     1       7.152   6.029  17.108  0.00  0.00    +0.000 C 
ATOM     18  O   UNL     1       7.617   5.487  18.095  0.00  0.00    +0.000 OA
BRANCH  17  20
ATOM     19  C   UNL     1       7.872   8.192  17.689  0.00  0.00    +0.000 C 
ATOM     20  O   UNL     1       6.965   7.368  16.948  0.00  0.00    +0.000 OA
ENDBRANCH  17  20
ENDBRANCH  11  17
ENDBRANCH   1  16
BRANCH   9  21
ATOM     21  C   UNL     1       2.439   8.927  17.725  0.00  0.00    +0.000 C 
BRANCH  21  22
ATOM     22  N   UNL     1       1.063   9.088  18.177  0.00  0.00    +0.000 N 
ATOM     23  C   UNL     1       0.632  10.201  18.877  0.00  0.00    +0.000 C 
ATOM     24  O   UNL     1       1.395  11.104  19.207  0.00  0.00    +0.000 OA
ATOM     25  H   UNL     1       0.424   8.318  18.006  0.00  0.00    +0.000 HD
BRANCH  23  26
ATOM     26  C   UNL     1      -0.874  10.260  19.123  0.00  0.00    +0.000 C 
ATOM     27  C   UNL     1      -1.702  10.251  17.852  0.00  0.00    +0.000 C 
ATOM     28  C   UNL     1      -1.831  11.719  17.506  0.00  0.00    +0.000 C 
ATOM     29  O   UNL     1      -1.726  12.453  18.731  0.00  0.00    +0.000 OA
ATOM     30  C   UNL     1      -1.305  11.560  19.772  0.00  0.00    +0.000 C 
ENDBRANCH  23  26
ENDBRANCH  21  22
ENDBRANCH   9  21
TORSDOF 6
ENDMDL
MODEL 5
REMARK VINA RESULT:      -8.1      3.188      7.979
REMARK  Name = 
REMARK  8 active torsions:
REMARK  status: ('A' for Active; 'I' for Inactive)
REMARK    1  A    between atoms: C_1  and  O_2
REMARK    2  A    between atoms: O_2  and  C_3
REMARK    3  A    between atoms: C_3  and  C_5
REMARK    4  A    between atoms: C_10  and  C_11
REMARK    5  A    between atoms: C_13  and  C_14
REMARK    6  A    between atoms: C_19  and  C_20
REMARK    7  A    between atoms: C_20  and  N_21
REMARK    8  A    between atoms: C_22  and  C_24
REMARK                            x       y       z     vdW  Elec       q    Type
REMARK                         _______ _______ _______ _____ _____    ______ ____
ROOT
ATOM      1  C   UNL     1       4.109   4.488  17.158  0.00  0.00    +0.000 A 
ATOM      2  C   UNL     1       3.779   3.275  17.815  0.00  0.00    +0.000 A 
ATOM      3  C   UNL     1       2.742   3.160  18.762  0.00  0.00    +0.000 A 
ATOM      4  C   UNL     1       2.267   1.815  19.225  0.00  0.00    +0.000 C 
ATOM      5  C   UNL     1       2.094   4.304  19.207  0.00  0.00    +0.000 A 
ATOM      6  C   UNL     1       2.470   5.513  18.661  0.00  0.00    +0.000 A 
ATOM      7  C   UNL     1       3.408   5.609  17.630  0.00  0.00    +0.000 A 
ATOM      8  O   UNL     1       3.494   6.913  17.169  0.00  0.00    +0.000 OA
ATOM      9  C   UNL     1       2.927   7.703  18.262  0.00  0.00    +0.000 C 
ATOM     10  C   UNL     1       1.913   6.840  18.997  0.00  0.00    +0.000 C 
ENDROOT
BRANCH   1  16
ATOM     11  C   UNL     1       6.522   4.936  16.307  0.00  0.00    +0.000 A 
ATOM     12  C   UNL     1       7.442   5.008  15.237  0.00  0.00    +0.000 A 
ATOM     13  C   UNL     1       7.065   4.643  13.950  0.00  0.00    +0.000 A 
ATOM     14  C   UNL     1       5.767   4.206  13.723  0.00  0.00    +0.000 A 
ATOM     15  C   UNL     1       4.844   4.145  14.777  0.00  0.00    +0.000 A 
ATOM     16  C   UNL     1       5.177   4.503  16.103  0.00  0.00    +0.000 A 
BRANCH  11  17
ATOM     17  C   UNL     1       7.078   5.294  17.643  0.00  0.00    +0.000 C 
ATOM     18  O   UNL     1       7.567   4.507  18.434  0.00  0.00    +0.000 OA
BRANCH  17  20
ATOM     19  C   UNL     1       8.065   7.298  18.381  0.00  0.00    +0.000 C 
ATOM     20  O   UNL     1       6.917   6.631  17.848  0.00  0.00    +0.000 OA
ENDBRANCH  17  20
ENDBRANCH  11  17
ENDBRANCH   1  16
BRANCH   9  21
ATOM     21  C   UNL     1       2.350   9.054  17.817  0.00  0.00    +0.000 C 
BRANCH  21  22
ATOM     22  N   UNL     1       1.612   9.794  18.833  0.00  0.00    +0.000 N 
ATOM     23  C   UNL     1       0.267  10.094  18.709  0.00  0.00    +0.000 C 
ATOM     24  O   UNL     1      -0.381   9.801  17.708  0.00  0.00    +0.000 OA
ATOM     25  H   UNL     1       2.136  10.137  19.632  0.00  0.00    +0.000 HD
BRANCH  23  26
ATOM     26  C   UNL     1      -0.364  10.733  19.944  0.00  0.00    +0.000 C 
ATOM     27  C   UNL     1      -0.578  12.229  19.816  0.00  0.00    +0.000 C 
ATOM     28  C   UNL     1       0.718  12.816  20.334  0.00  0.00    +0.000 C 
ATOM     29  O   UNL     1       1.270  11.870  21.256  0.00  0.00    +0.000 OA
ATOM     30  C   UNL     1       0.530  10.645  21.164  0.00  0.00    +0.000 C 
ENDBRANCH  23  26
ENDBRANCH  21  22
ENDBRANCH   9  21
TORSDOF 6
ENDMDL
MODEL 6
REMARK VINA RESULT:      -8.0      3.827      7.576
REMARK  Name = 
REMARK  8 active torsions:
REMARK  status: ('A' for Active; 'I' for Inactive)
REMARK    1  A    between atoms: C_1  and  O_2
REMARK    2  A    between atoms: O_2  and  C_3
REMARK    3  A    between atoms: C_3  and  C_5
REMARK    4  A    between atoms: C_10  and  C_11
REMARK    5  A    between atoms: C_13  and  C_14
REMARK    6  A    between atoms: C_19  and  C_20
REMARK    7  A    between atoms: C_20  and  N_21
REMARK    8  A    between atoms: C_22  and  C_24
REMARK                            x       y       z     vdW  Elec       q    Type
REMARK                         _______ _______ _______ _____ _____    ______ ____
ROOT
ATOM      1  C   UNL     1       3.284   5.860  18.675  0.00  0.00    +0.000 A 
ATOM      2  C   UNL     1       3.286   4.914  19.731  0.00  0.00    +0.000 A 
ATOM      3  C   UNL     1       2.450   5.009  20.863  0.00  0.00    +0.000 A 
ATOM      4  C   UNL     1       2.304   3.856  21.811  0.00  0.00    +0.000 C 
ATOM      5  C   UNL     1       1.687   6.152  21.054  0.00  0.00    +0.000 A 
ATOM      6  C   UNL     1       1.749   7.138  20.092  0.00  0.00    +0.000 A 
ATOM      7  C   UNL     1       2.478   6.986  18.909  0.00  0.00    +0.000 A 
ATOM      8  O   UNL     1       2.254   8.056  18.057  0.00  0.00    +0.000 OA
ATOM      9  C   UNL     1       1.736   9.099  18.943  0.00  0.00    +0.000 C 
ATOM     10  C   UNL     1       1.023   8.426  20.106  0.00  0.00    +0.000 C 
ENDROOT
BRANCH   1  16
ATOM     11  C   UNL     1       4.239   4.417  16.738  0.00  0.00    +0.000 A 
ATOM     12  C   UNL     1       5.150   4.263  15.670  0.00  0.00    +0.000 A 
ATOM     13  C   UNL     1       5.983   5.309  15.289  0.00  0.00    +0.000 A 
ATOM     14  C   UNL     1       5.911   6.514  15.974  0.00  0.00    +0.000 A 
ATOM     15  C   UNL     1       5.019   6.671  17.045  0.00  0.00    +0.000 A 
ATOM     16  C   UNL     1       4.150   5.640  17.469  0.00  0.00    +0.000 A 
BRANCH  11  17
ATOM     17  C   UNL     1       3.362   3.239  16.995  0.00  0.00    +0.000 C 
ATOM     18  O   UNL     1       2.168   3.185  16.754  0.00  0.00    +0.000 OA
BRANCH  17  20
ATOM     19  C   UNL     1       3.389   1.440  18.511  0.00  0.00    +0.000 C 
ATOM     20  O   UNL     1       4.102   2.253  17.574  0.00  0.00    +0.000 OA
ENDBRANCH  17  20
ENDBRANCH  11  17
ENDBRANCH   1  16
BRANCH   9  21
ATOM     21  C   UNL     1       0.864  10.141  18.229  0.00  0.00    +0.000 C 
BRANCH  21  22
ATOM     22  N   UNL     1      -0.475   9.699  17.858  0.00  0.00    +0.000 N 
ATOM     23  C   UNL     1      -1.581  10.528  17.928  0.00  0.00    +0.000 C 
ATOM     24  O   UNL     1      -1.514  11.677  18.356  0.00  0.00    +0.000 OA
ATOM     25  H   UNL     1      -0.586   8.727  17.589  0.00  0.00    +0.000 HD
BRANCH  23  26
ATOM     26  C   UNL     1      -2.863   9.936  17.348  0.00  0.00    +0.000 C 
ATOM     27  C   UNL     1      -2.808   9.708  15.849  0.00  0.00    +0.000 C 
ATOM     28  C   UNL     1      -3.305  11.018  15.276  0.00  0.00    +0.000 C 
ATOM     29  O   UNL     1      -4.167  11.608  16.256  0.00  0.00    +0.000 OA
ATOM     30  C   UNL     1      -4.047  10.873  17.482  0.00  0.00    +0.000 C 
ENDBRANCH  23  26
ENDBRANCH  21  22
ENDBRANCH   9  21
TORSDOF 6
ENDMDL
MODEL 7
REMARK VINA RESULT:      -8.0      3.347      8.057
REMARK  Name = 
REMARK  8 active torsions:
REMARK  status: ('A' for Active; 'I' for Inactive)
REMARK    1  A    between atoms: C_1  and  O_2
REMARK    2  A    between atoms: O_2  and  C_3
REMARK    3  A    between atoms: C_3  and  C_5
REMARK    4  A    between atoms: C_10  and  C_11
REMARK    5  A    between atoms: C_13  and  C_14
REMARK    6  A    between atoms: C_19  and  C_20
REMARK    7  A    between atoms: C_20  and  N_21
REMARK    8  A    between atoms: C_22  and  C_24
REMARK                            x       y       z     vdW  Elec       q    Type
REMARK                         _______ _______ _______ _____ _____    ______ ____
ROOT
ATOM      1  C   UNL     1       4.371   4.900  17.811  0.00  0.00    +0.000 A 
ATOM      2  C   UNL     1       4.304   3.870  18.783  0.00  0.00    +0.000 A 
ATOM      3  C   UNL     1       3.396   3.875  19.862  0.00  0.00    +0.000 A 
ATOM      4  C   UNL     1       3.188   2.649  20.700  0.00  0.00    +0.000 C 
ATOM      5  C   UNL     1       2.622   5.003  20.097  0.00  0.00    +0.000 A 
ATOM      6  C   UNL     1       2.746   6.065  19.226  0.00  0.00    +0.000 A 
ATOM      7  C   UNL     1       3.550   6.007  18.084  0.00  0.00    +0.000 A 
ATOM      8  O   UNL     1       3.383   7.144  17.311  0.00  0.00    +0.000 OA
ATOM      9  C   UNL     1       2.808   8.113  18.245  0.00  0.00    +0.000 C 
ATOM     10  C   UNL     1       2.021   7.351  19.299  0.00  0.00    +0.000 C 
ENDROOT
BRANCH   1  16
ATOM     11  C   UNL     1       6.532   5.505  16.503  0.00  0.00    +0.000 A 
ATOM     12  C   UNL     1       7.317   5.398  15.334  0.00  0.00    +0.000 A 
ATOM     13  C   UNL     1       6.930   4.565  14.291  0.00  0.00    +0.000 A 
ATOM     14  C   UNL     1       5.756   3.834  14.409  0.00  0.00    +0.000 A 
ATOM     15  C   UNL     1       4.964   3.944  15.562  0.00  0.00    +0.000 A 
ATOM     16  C   UNL     1       5.314   4.776  16.650  0.00  0.00    +0.000 A 
BRANCH  11  17
ATOM     17  C   UNL     1       7.099   6.383  17.567  0.00  0.00    +0.000 C 
ATOM     18  O   UNL     1       7.396   6.021  18.692  0.00  0.00    +0.000 OA
BRANCH  17  20
ATOM     19  C   UNL     1       8.005   8.531  17.876  0.00  0.00    +0.000 C 
ATOM     20  O   UNL     1       7.194   7.654  17.088  0.00  0.00    +0.000 OA
ENDBRANCH  17  20
ENDBRANCH  11  17
ENDBRANCH   1  16
BRANCH   9  21
ATOM     21  C   UNL     1       1.983   9.216  17.565  0.00  0.00    +0.000 C 
BRANCH  21  22
ATOM     22  N   UNL     1       1.126  10.000  18.445  0.00  0.00    +0.000 N 
ATOM     23  C   UNL     1       1.369  11.331  18.732  0.00  0.00    +0.000 C 
ATOM     24  O   UNL     1       2.355  11.925  18.303  0.00  0.00    +0.000 OA
ATOM     25  H   UNL     1       0.355   9.517  18.894  0.00  0.00    +0.000 HD
BRANCH  23  26
ATOM     26  C   UNL     1       0.276  12.023  19.543  0.00  0.00    +0.000 C 
ATOM     27  C   UNL     1       0.653  12.270  20.991  0.00  0.00    +0.000 C 
ATOM     28  C   UNL     1       0.198  11.009  21.694  0.00  0.00    +0.000 C 
ATOM     29  O   UNL     1      -0.884  10.466  20.929  0.00  0.00    +0.000 OA
ATOM     30  C   UNL     1      -0.970  11.170  19.682  0.00  0.00    +0.000 C 
ENDBRANCH  23  26
ENDBRANCH  21  22
ENDBRANCH   9  21
TORSDOF 6
ENDMDL
MODEL 8
REMARK VINA RESULT:      -8.0      3.602      8.044
REMARK  Name = 
REMARK  8 active torsions:
REMARK  status: ('A' for Active; 'I' for Inactive)
REMARK    1  A    between atoms: C_1  and  O_2
REMARK    2  A    between atoms: O_2  and  C_3
REMARK    3  A    between atoms: C_3  and  C_5
REMARK    4  A    between atoms: C_10  and  C_11
REMARK    5  A    between atoms: C_13  and  C_14
REMARK    6  A    between atoms: C_19  and  C_20
REMARK    7  A    between atoms: C_20  and  N_21
REMARK    8  A    between atoms: C_22  and  C_24
REMARK                            x       y       z     vdW  Elec       q    Type
REMARK                         _______ _______ _______ _____ _____    ______ ____
ROOT
ATOM      1  C   UNL     1       4.040   4.935  18.482  0.00  0.00    +0.000 A 
ATOM      2  C   UNL     1       3.830   3.972  19.501  0.00  0.00    +0.000 A 
ATOM      3  C   UNL     1       2.839   4.096  20.497  0.00  0.00    +0.000 A 
ATOM      4  C   UNL     1       2.487   2.937  21.382  0.00  0.00    +0.000 C 
ATOM      5  C   UNL     1       2.120   5.279  20.601  0.00  0.00    +0.000 A 
ATOM      6  C   UNL     1       2.382   6.276  19.686  0.00  0.00    +0.000 A 
ATOM      7  C   UNL     1       3.271   6.102  18.622  0.00  0.00    +0.000 A 
ATOM      8  O   UNL     1       3.239   7.198  17.775  0.00  0.00    +0.000 OA
ATOM      9  C   UNL     1       2.652   8.254  18.600  0.00  0.00    +0.000 C 
ATOM     10  C   UNL     1       1.735   7.604  19.624  0.00  0.00    +0.000 C 
ENDROOT
BRANCH   1  16
ATOM     11  C   UNL     1       6.437   5.074  17.490  0.00  0.00    +0.000 A 
ATOM     12  C   UNL     1       7.316   4.884  16.401  0.00  0.00    +0.000 A 
ATOM     13  C   UNL     1       6.871   4.299  15.221  0.00  0.00    +0.000 A 
ATOM     14  C   UNL     1       5.545   3.899  15.122  0.00  0.00    +0.000 A 
ATOM     15  C   UNL     1       4.662   4.096  16.194  0.00  0.00    +0.000 A 
ATOM     16  C   UNL     1       5.065   4.685  17.414  0.00  0.00    +0.000 A 
BRANCH  11  17
ATOM     17  C   UNL     1       7.062   5.652  18.713  0.00  0.00    +0.000 C 
ATOM     18  O   UNL     1       6.852   5.278  19.854  0.00  0.00    +0.000 OA
BRANCH  17  20
ATOM     19  C   UNL     1       7.208   7.761  17.682  0.00  0.00    +0.000 C 
ATOM     20  O   UNL     1       7.873   6.685  18.351  0.00  0.00    +0.000 OA
ENDBRANCH  17  20
ENDBRANCH  11  17
ENDBRANCH   1  16
BRANCH   9  21
ATOM     21  C   UNL     1       1.956   9.358  17.791  0.00  0.00    +0.000 C 
BRANCH  21  22
ATOM     22  N   UNL     1       1.313  10.407  18.574  0.00  0.00    +0.000 N 
ATOM     23  C   UNL     1       1.745  11.720  18.560  0.00  0.00    +0.000 C 
ATOM     24  O   UNL     1       2.733  12.079  17.926  0.00  0.00    +0.000 OA
ATOM     25  H   UNL     1       0.551  10.130  19.185  0.00  0.00    +0.000 HD
BRANCH  23  26
ATOM     26  C   UNL     1       0.849  12.699  19.317  0.00  0.00    +0.000 C 
ATOM     27  C   UNL     1       1.346  14.131  19.285  0.00  0.00    +0.000 C 
ATOM     28  C   UNL     1       2.247  14.219  20.498  0.00  0.00    +0.000 C 
ATOM     29  O   UNL     1       1.778  13.250  21.443  0.00  0.00    +0.000 OA
ATOM     30  C   UNL     1       0.804  12.413  20.804  0.00  0.00    +0.000 C 
ENDBRANCH  23  26
ENDBRANCH  21  22
ENDBRANCH   9  21
TORSDOF 6
ENDMDL
MODEL 9
REMARK VINA RESULT:      -8.0      3.474      8.057
REMARK  Name = 
REMARK  8 active torsions:
REMARK  status: ('A' for Active; 'I' for Inactive)
REMARK    1  A    between atoms: C_1  and  O_2
REMARK    2  A    between atoms: O_2  and  C_3
REMARK    3  A    between atoms: C_3  and  C_5
REMARK    4  A    between atoms: C_10  and  C_11
REMARK    5  A    between atoms: C_13  and  C_14
REMARK    6  A    between atoms: C_19  and  C_20
REMARK    7  A    between atoms: C_20  and  N_21
REMARK    8  A    between atoms: C_22  and  C_24
REMARK                            x       y       z     vdW  Elec       q    Type
REMARK                         _______ _______ _______ _____ _____    ______ ____
ROOT
ATOM      1  C   UNL     1       4.444   4.898  17.796  0.00  0.00    +0.000 A 
ATOM      2  C   UNL     1       4.420   3.863  18.766  0.00  0.00    +0.000 A 
ATOM      3  C   UNL     1       3.522   3.835  19.852  0.00  0.00    +0.000 A 
ATOM      4  C   UNL     1       3.363   2.600  20.689  0.00  0.00    +0.000 C 
ATOM      5  C   UNL     1       2.713   4.936  20.097  0.00  0.00    +0.000 A 
ATOM      6  C   UNL     1       2.794   6.003  19.228  0.00  0.00    +0.000 A 
ATOM      7  C   UNL     1       3.590   5.975  18.080  0.00  0.00    +0.000 A 
ATOM      8  O   UNL     1       3.377   7.109  17.312  0.00  0.00    +0.000 OA
ATOM      9  C   UNL     1       2.778   8.056  18.253  0.00  0.00    +0.000 C 
ATOM     10  C   UNL     1       2.026   7.264  19.311  0.00  0.00    +0.000 C 
ENDROOT
BRANCH   1  16
ATOM     11  C   UNL     1       6.604   5.532  16.501  0.00  0.00    +0.000 A 
ATOM     12  C   UNL     1       7.383   5.462  15.324  0.00  0.00    +0.000 A 
ATOM     13  C   UNL     1       6.984   4.670  14.254  0.00  0.00    +0.000 A 
ATOM     14  C   UNL     1       5.805   3.944  14.352  0.00  0.00    +0.000 A 
ATOM     15  C   UNL     1       5.019   4.019  15.511  0.00  0.00    +0.000 A 
ATOM     16  C   UNL     1       5.381   4.808  16.627  0.00  0.00    +0.000 A 
BRANCH  11  17
ATOM     17  C   UNL     1       7.183   6.367  17.592  0.00  0.00    +0.000 C 
ATOM     18  O   UNL     1       7.764   5.936  18.574  0.00  0.00    +0.000 OA
BRANCH  17  20
ATOM     19  C   UNL     1       7.989   8.575  17.664  0.00  0.00    +0.000 C 
ATOM     20  O   UNL     1       6.925   7.678  17.333  0.00  0.00    +0.000 OA
ENDBRANCH  17  20
ENDBRANCH  11  17
ENDBRANCH   1  16
BRANCH   9  21
ATOM     21  C   UNL     1       1.911   9.131  17.583  0.00  0.00    +0.000 C 
BRANCH  21  22
ATOM     22  N   UNL     1       1.773  10.382  18.319  0.00  0.00    +0.000 N 
ATOM     23  C   UNL     1       0.606  10.742  18.968  0.00  0.00    +0.000 C 
ATOM     24  O   UNL     1      -0.409  10.052  18.923  0.00  0.00    +0.000 OA
ATOM     25  H   UNL     1       2.560  11.023  18.299  0.00  0.00    +0.000 HD
BRANCH  23  26
ATOM     26  C   UNL     1       0.707  12.009  19.814  0.00  0.00    +0.000 C 
ATOM     27  C   UNL     1      -0.507  12.913  19.706  0.00  0.00    +0.000 C 
ATOM     28  C   UNL     1      -0.169  13.819  18.541  0.00  0.00    +0.000 C 
ATOM     29  O   UNL     1       1.259  13.901  18.470  0.00  0.00    +0.000 OA
ATOM     30  C   UNL     1       1.825  12.925  19.356  0.00  0.00    +0.000 C 
ENDBRANCH  23  26
ENDBRANCH  21  22
ENDBRANCH   9  21
TORSDOF 6
ENDMDL
