MODEL 1
REMARK VINA RESULT:      -7.9      0.000      0.000
REMARK  Name = 
REMARK  6 active torsions:
REMARK  status: ('A' for Active; 'I' for Inactive)
REMARK    1  A    between atoms: C_1  and  C_2
REMARK    2  A    between atoms: C_5  and  C_6
REMARK    3  A    between atoms: C_8  and  C_9
REMARK    4  A    between atoms: C_10  and  C_11
REMARK    5  A    between atoms: C_25  and  C_26
REMARK    6  A    between atoms: C_28  and  N_29
REMARK                            x       y       z     vdW  Elec       q    Type
REMARK                         _______ _______ _______ _____ _____    ______ ____
ROOT
ATOM      1  C   UNL     1       0.817  10.588  19.608  0.00  0.00    +0.000 C 
ATOM      2  C   UNL     1      -0.056  11.084  20.495  0.00  0.00    +0.000 C 
ATOM      3  C   UNL     1      -0.580  12.479  20.375  0.00  0.00    +0.000 C 
ATOM      4  C   UNL     1       0.185  13.300  19.364  0.00  0.00    +0.000 C 
ATOM      5  C   UNL     1       1.068  12.726  18.519  0.00  0.00    +0.000 C 
ATOM      6  O   UNL     1       1.338  11.360  18.579  0.00  0.00    +0.000 OA
ENDROOT
BRANCH   3   7
ATOM      7  C   UNL     1      -2.076  12.420  20.081  0.00  0.00    +0.000 A 
ATOM      8  C   UNL     1      -3.120  12.815  20.927  0.00  0.00    +0.000 A 
ATOM      9  N   UNL     1      -4.296  12.524  20.264  0.00  0.00    +0.000 N 
ATOM     10  C   UNL     1      -4.065  11.985  19.025  0.00  0.00    +0.000 A 
ATOM     11  C   UNL     1      -4.971  11.584  18.032  0.00  0.00    +0.000 A 
ATOM     12  C   UNL     1      -4.452  11.080  16.836  0.00  0.00    +0.000 A 
ATOM     13  C   UNL     1      -3.082  10.953  16.663  0.00  0.00    +0.000 A 
ATOM     14 CL   UNL     1      -2.452  10.352  15.176  0.00  0.00    +0.000 Cl
ATOM     15  C   UNL     1      -2.197  11.323  17.676  0.00  0.00    +0.000 A 
ATOM     16  C   UNL     1      -2.686  11.882  18.880  0.00  0.00    +0.000 A 
ATOM     17  H   UNL     1      -5.217  12.712  20.631  0.00  0.00    +0.000 HD
BRANCH   8  18
ATOM     18  C   UNL     1      -3.137  13.419  22.272  0.00  0.00    +0.000 A 
ATOM     19  C   UNL     1      -2.630  14.705  22.496  0.00  0.00    +0.000 A 
ATOM     20  C   UNL     1      -2.605  15.264  23.776  0.00  0.00    +0.000 A 
ATOM     21  C   UNL     1      -3.148  14.567  24.850  0.00  0.00    +0.000 A 
ATOM     22  C   UNL     1      -3.701  13.307  24.643  0.00  0.00    +0.000 A 
ATOM     23  C   UNL     1      -3.682  12.730  23.367  0.00  0.00    +0.000 A 
ENDBRANCH   8  18
ENDBRANCH   3   7
BRANCH   1  28
ATOM     24  C   UNL     1       2.661   5.096  19.833  0.00  0.00    +0.000 C 
ATOM     25  C   UNL     1       2.186   6.516  19.762  0.00  0.00    +0.000 A 
ATOM     26  C   UNL     1       2.379   7.279  18.610  0.00  0.00    +0.000 A 
ATOM     27  C   UNL     1       1.938   8.601  18.560  0.00  0.00    +0.000 A 
ATOM     28  C   UNL     1       1.279   9.189  19.653  0.00  0.00    +0.000 A 
ATOM     29  C   UNL     1       1.099   8.419  20.809  0.00  0.00    +0.000 A 
ATOM     30  C   UNL     1       1.547   7.097  20.863  0.00  0.00    +0.000 A 
ENDBRANCH   1  28
BRANCH   5  31
ATOM     31  N   UNL     1       1.725  13.365  17.489  0.00  0.00    +0.000 N 
ATOM     32  H   UNL     1       2.688  13.063  17.352  0.00  0.00    +0.000 HD
ATOM     33  H   UNL     1       1.657  14.377  17.592  0.00  0.00    +0.000 HD
ENDBRANCH   5  31
BRANCH   4  34
ATOM     34  C   UNL     1      -0.082  14.699  19.323  0.00  0.00    +0.000 C 
ATOM     35  N   UNL     1      -0.310  15.832  19.290  0.00  0.00    +0.000 NA
ENDBRANCH   4  34
TORSDOF 5
ENDMDL
MODEL 2
REMARK VINA RESULT:      -7.8      0.219      1.217
REMARK  Name = 
REMARK  6 active torsions:
REMARK  status: ('A' for Active; 'I' for Inactive)
REMARK    1  A    between atoms: C_1  and  C_2
REMARK    2  A    between atoms: C_5  and  C_6
REMARK    3  A    between atoms: C_8  and  C_9
REMARK    4  A    between atoms: C_10  and  C_11
REMARK    5  A    between atoms: C_25  and  C_26
REMARK    6  A    between atoms: C_28  and  N_29
REMARK                            x       y       z     vdW  Elec       q    Type
REMARK                         _______ _______ _______ _____ _____    ______ ____
ROOT
ATOM      1  C   UNL     1       0.940  10.498  19.644  0.00  0.00    +0.000 C 
ATOM      2  C   UNL     1       0.092  11.029  20.535  0.00  0.00    +0.000 C 
ATOM      3  C   UNL     1      -0.398  12.435  20.401  0.00  0.00    +0.000 C 
ATOM      4  C   UNL     1       0.373  13.222  19.368  0.00  0.00    +0.000 C 
ATOM      5  C   UNL     1       1.229  12.613  18.519  0.00  0.00    +0.000 C 
ATOM      6  O   UNL     1       1.466  11.242  18.596  0.00  0.00    +0.000 OA
ENDROOT
BRANCH   3   7
ATOM      7  C   UNL     1      -1.899  12.410  20.128  0.00  0.00    +0.000 A 
ATOM      8  C   UNL     1      -2.920  12.856  20.977  0.00  0.00    +0.000 A 
ATOM      9  N   UNL     1      -4.112  12.581  20.337  0.00  0.00    +0.000 N 
ATOM     10  C   UNL     1      -3.913  12.003  19.111  0.00  0.00    +0.000 A 
ATOM     11  C   UNL     1      -4.844  11.601  18.141  0.00  0.00    +0.000 A 
ATOM     12  C   UNL     1      -4.356  11.050  16.952  0.00  0.00    +0.000 A 
ATOM     13  C   UNL     1      -2.992  10.881  16.765  0.00  0.00    +0.000 A 
ATOM     14 CL   UNL     1      -2.400  10.222  15.287  0.00  0.00    +0.000 Cl
ATOM     15  C   UNL     1      -2.083  11.253  17.756  0.00  0.00    +0.000 A 
ATOM     16  C   UNL     1      -2.540  11.857  18.951  0.00  0.00    +0.000 A 
ATOM     17  H   UNL     1      -5.023  12.804  20.712  0.00  0.00    +0.000 HD
BRANCH   8  18
ATOM     18  C   UNL     1      -2.901  13.497  22.305  0.00  0.00    +0.000 A 
ATOM     19  C   UNL     1      -3.595  12.943  23.388  0.00  0.00    +0.000 A 
ATOM     20  C   UNL     1      -3.614  13.568  24.637  0.00  0.00    +0.000 A 
ATOM     21  C   UNL     1      -2.883  14.734  24.842  0.00  0.00    +0.000 A 
ATOM     22  C   UNL     1      -2.148  15.277  23.793  0.00  0.00    +0.000 A 
ATOM     23  C   UNL     1      -2.168  14.673  22.530  0.00  0.00    +0.000 A 
ENDBRANCH   8  18
ENDBRANCH   3   7
BRANCH   1  28
ATOM     24  C   UNL     1       2.596   4.946  19.828  0.00  0.00    +0.000 C 
ATOM     25  C   UNL     1       2.166   6.381  19.794  0.00  0.00    +0.000 A 
ATOM     26  C   UNL     1       1.557   6.973  20.901  0.00  0.00    +0.000 A 
ATOM     27  C   UNL     1       1.156   8.308  20.852  0.00  0.00    +0.000 A 
ATOM     28  C   UNL     1       1.367   9.089  19.703  0.00  0.00    +0.000 A 
ATOM     29  C   UNL     1       1.970   8.484  18.594  0.00  0.00    +0.000 A 
ATOM     30  C   UNL     1       2.366   7.144  18.638  0.00  0.00    +0.000 A 
ENDBRANCH   1  28
BRANCH   5  31
ATOM     31  N   UNL     1       1.888  13.220  17.471  0.00  0.00    +0.000 N 
ATOM     32  H   UNL     1       1.714  12.796  16.562  0.00  0.00    +0.000 HD
ATOM     33  H   UNL     1       2.886  13.294  17.668  0.00  0.00    +0.000 HD
ENDBRANCH   5  31
BRANCH   4  34
ATOM     34  C   UNL     1       0.141  14.626  19.310  0.00  0.00    +0.000 C 
ATOM     35  N   UNL     1      -0.049  15.765  19.252  0.00  0.00    +0.000 NA
ENDBRANCH   4  34
TORSDOF 5
ENDMDL
MODEL 3
REMARK VINA RESULT:      -7.3      2.904      5.398
REMARK  Name = 
REMARK  6 active torsions:
REMARK  status: ('A' for Active; 'I' for Inactive)
REMARK    1  A    between atoms: C_1  and  C_2
REMARK    2  A    between atoms: C_5  and  C_6
REMARK    3  A    between atoms: C_8  and  C_9
REMARK    4  A    between atoms: C_10  and  C_11
REMARK    5  A    between atoms: C_25  and  C_26
REMARK    6  A    between atoms: C_28  and  N_29
REMARK                            x       y       z     vdW  Elec       q    Type
REMARK                         _______ _______ _______ _____ _____    ______ ____
ROOT
ATOM      1  C   UNL     1       1.358   8.628  19.802  0.00  0.00    +0.000 C 
ATOM      2  C   UNL     1       0.302   9.218  19.226  0.00  0.00    +0.000 C 
ATOM      3  C   UNL     1      -0.541  10.203  19.970  0.00  0.00    +0.000 C 
ATOM      4  C   UNL     1      -0.247  10.216  21.452  0.00  0.00    +0.000 C 
ATOM      5  C   UNL     1       0.828   9.574  21.958  0.00  0.00    +0.000 C 
ATOM      6  O   UNL     1       1.682   8.840  21.136  0.00  0.00    +0.000 OA
ENDROOT
BRANCH   3   7
ATOM      7  C   UNL     1      -0.383  11.576  19.323  0.00  0.00    +0.000 A 
ATOM      8  C   UNL     1      -1.188  12.136  18.322  0.00  0.00    +0.000 A 
ATOM      9  N   UNL     1      -0.633  13.360  18.010  0.00  0.00    +0.000 N 
ATOM     10  C   UNL     1       0.474  13.630  18.773  0.00  0.00    +0.000 A 
ATOM     11  C   UNL     1       1.302  14.762  18.793  0.00  0.00    +0.000 A 
ATOM     12  C   UNL     1       2.365  14.781  19.701  0.00  0.00    +0.000 A 
ATOM     13  C   UNL     1       2.603  13.692  20.526  0.00  0.00    +0.000 A 
ATOM     14 CL   UNL     1       3.903  13.734  21.656  0.00  0.00    +0.000 Cl
ATOM     15  C   UNL     1       1.791  12.559  20.466  0.00  0.00    +0.000 A 
ATOM     16  C   UNL     1       0.678  12.526  19.593  0.00  0.00    +0.000 A 
ATOM     17  H   UNL     1      -1.010  13.997  17.324  0.00  0.00    +0.000 HD
BRANCH   8  18
ATOM     18  C   UNL     1      -2.399  11.654  17.633  0.00  0.00    +0.000 A 
ATOM     19  C   UNL     1      -2.333  11.113  16.343  0.00  0.00    +0.000 A 
ATOM     20  C   UNL     1      -3.483  10.694  15.669  0.00  0.00    +0.000 A 
ATOM     21  C   UNL     1      -4.719  10.750  16.304  0.00  0.00    +0.000 A 
ATOM     22  C   UNL     1      -4.803  11.238  17.604  0.00  0.00    +0.000 A 
ATOM     23  C   UNL     1      -3.655  11.701  18.259  0.00  0.00    +0.000 A 
ENDBRANCH   8  18
ENDBRANCH   3   7
BRANCH   1  28
ATOM     24  C   UNL     1       4.866   5.079  16.851  0.00  0.00    +0.000 C 
ATOM     25  C   UNL     1       3.959   5.988  17.624  0.00  0.00    +0.000 A 
ATOM     26  C   UNL     1       3.358   5.562  18.809  0.00  0.00    +0.000 A 
ATOM     27  C   UNL     1       2.511   6.417  19.515  0.00  0.00    +0.000 A 
ATOM     28  C   UNL     1       2.257   7.723  19.064  0.00  0.00    +0.000 A 
ATOM     29  C   UNL     1       2.856   8.139  17.869  0.00  0.00    +0.000 A 
ATOM     30  C   UNL     1       3.699   7.281  17.157  0.00  0.00    +0.000 A 
ENDBRANCH   1  28
BRANCH   5  31
ATOM     31  N   UNL     1       1.248   9.622  23.270  0.00  0.00    +0.000 N 
ATOM     32  H   UNL     1       2.249   9.488  23.398  0.00  0.00    +0.000 HD
ATOM     33  H   UNL     1       0.704   8.979  23.845  0.00  0.00    +0.000 HD
ENDBRANCH   5  31
BRANCH   4  34
ATOM     34  C   UNL     1      -1.135  10.952  22.287  0.00  0.00    +0.000 C 
ATOM     35  N   UNL     1      -1.848  11.552  22.972  0.00  0.00    +0.000 NA
ENDBRANCH   4  34
TORSDOF 5
ENDMDL
MODEL 4
REMARK VINA RESULT:      -7.2      2.911      5.374
REMARK  Name = 
REMARK  6 active torsions:
REMARK  status: ('A' for Active; 'I' for Inactive)
REMARK    1  A    between atoms: C_1  and  C_2
REMARK    2  A    between atoms: C_5  and  C_6
REMARK    3  A    between atoms: C_8  and  C_9
REMARK    4  A    between atoms: C_10  and  C_11
REMARK    5  A    between atoms: C_25  and  C_26
REMARK    6  A    between atoms: C_28  and  N_29
REMARK                            x       y       z     vdW  Elec       q    Type
REMARK                         _______ _______ _______ _____ _____    ______ ____
ROOT
ATOM      1  C   UNL     1       1.365   8.622  19.781  0.00  0.00    +0.000 C 
ATOM      2  C   UNL     1       0.307   9.211  19.210  0.00  0.00    +0.000 C 
ATOM      3  C   UNL     1      -0.535  10.194  19.959  0.00  0.00    +0.000 C 
ATOM      4  C   UNL     1      -0.235  10.204  21.440  0.00  0.00    +0.000 C 
ATOM      5  C   UNL     1       0.842   9.563  21.940  0.00  0.00    +0.000 C 
ATOM      6  O   UNL     1       1.694   8.831  21.114  0.00  0.00    +0.000 OA
ENDROOT
BRANCH   3   7
ATOM      7  C   UNL     1      -0.381  11.568  19.314  0.00  0.00    +0.000 A 
ATOM      8  C   UNL     1      -1.187  12.127  18.314  0.00  0.00    +0.000 A 
ATOM      9  N   UNL     1      -0.636  13.354  18.004  0.00  0.00    +0.000 N 
ATOM     10  C   UNL     1       0.470  13.626  18.767  0.00  0.00    +0.000 A 
ATOM     11  C   UNL     1       1.294  14.761  18.789  0.00  0.00    +0.000 A 
ATOM     12  C   UNL     1       2.357  14.781  19.698  0.00  0.00    +0.000 A 
ATOM     13  C   UNL     1       2.598  13.692  20.521  0.00  0.00    +0.000 A 
ATOM     14 CL   UNL     1       3.897  13.736  21.653  0.00  0.00    +0.000 Cl
ATOM     15  C   UNL     1       1.789  12.556  20.459  0.00  0.00    +0.000 A 
ATOM     16  C   UNL     1       0.677  12.521  19.586  0.00  0.00    +0.000 A 
ATOM     17  H   UNL     1      -1.015  13.990  17.318  0.00  0.00    +0.000 HD
BRANCH   8  18
ATOM     18  C   UNL     1      -2.396  11.642  17.623  0.00  0.00    +0.000 A 
ATOM     19  C   UNL     1      -3.659  11.725  18.223  0.00  0.00    +0.000 A 
ATOM     20  C   UNL     1      -4.801  11.228  17.589  0.00  0.00    +0.000 A 
ATOM     21  C   UNL     1      -4.707  10.693  16.310  0.00  0.00    +0.000 A 
ATOM     22  C   UNL     1      -3.471  10.643  15.674  0.00  0.00    +0.000 A 
ATOM     23  C   UNL     1      -2.321  11.100  16.330  0.00  0.00    +0.000 A 
ENDBRANCH   8  18
ENDBRANCH   3   7
BRANCH   1  28
ATOM     24  C   UNL     1       4.922   5.061  16.905  0.00  0.00    +0.000 C 
ATOM     25  C   UNL     1       4.003   5.989  17.638  0.00  0.00    +0.000 A 
ATOM     26  C   UNL     1       3.731   7.266  17.144  0.00  0.00    +0.000 A 
ATOM     27  C   UNL     1       2.878   8.122  17.841  0.00  0.00    +0.000 A 
ATOM     28  C   UNL     1       2.263   7.719  19.038  0.00  0.00    +0.000 A 
ATOM     29  C   UNL     1       2.548   6.440  19.531  0.00  0.00    +0.000 A 
ATOM     30  C   UNL     1       3.408   5.584  18.838  0.00  0.00    +0.000 A 
ENDBRANCH   1  28
BRANCH   5  31
ATOM     31  N   UNL     1       1.267   9.609  23.251  0.00  0.00    +0.000 N 
ATOM     32  H   UNL     1       1.368  10.549  23.629  0.00  0.00    +0.000 HD
ATOM     33  H   UNL     1       2.117   9.059  23.373  0.00  0.00    +0.000 HD
ENDBRANCH   5  31
BRANCH   4  34
ATOM     34  C   UNL     1      -1.121  10.938  22.280  0.00  0.00    +0.000 C 
ATOM     35  N   UNL     1      -1.842  11.540  22.953  0.00  0.00    +0.000 NA
ENDBRANCH   4  34
TORSDOF 5
ENDMDL
MODEL 5
REMARK VINA RESULT:      -7.0      2.520      6.455
REMARK  Name = 
REMARK  6 active torsions:
REMARK  status: ('A' for Active; 'I' for Inactive)
REMARK    1  A    between atoms: C_1  and  C_2
REMARK    2  A    between atoms: C_5  and  C_6
REMARK    3  A    between atoms: C_8  and  C_9
REMARK    4  A    between atoms: C_10  and  C_11
REMARK    5  A    between atoms: C_25  and  C_26
REMARK    6  A    between atoms: C_28  and  N_29
REMARK                            x       y       z     vdW  Elec       q    Type
REMARK                         _______ _______ _______ _____ _____    ______ ____
ROOT
ATOM      1  C   UNL     1      -2.740  14.318  20.492  0.00  0.00    +0.000 C 
ATOM      2  C   UNL     1      -2.513  13.057  20.099  0.00  0.00    +0.000 C 
ATOM      3  C   UNL     1      -1.143  12.596  19.716  0.00  0.00    +0.000 C 
ATOM      4  C   UNL     1      -0.172  13.740  19.550  0.00  0.00    +0.000 C 
ATOM      5  C   UNL     1      -0.486  14.990  19.950  0.00  0.00    +0.000 C 
ATOM      6  O   UNL     1      -1.738  15.279  20.492  0.00  0.00    +0.000 OA
ENDROOT
BRANCH   3   7
ATOM      7  C   UNL     1      -0.670  11.559  20.731  0.00  0.00    +0.000 A 
ATOM      8  C   UNL     1      -0.910  11.557  22.111  0.00  0.00    +0.000 A 
ATOM      9  N   UNL     1      -0.243  10.463  22.625  0.00  0.00    +0.000 N 
ATOM     10  C   UNL     1       0.395   9.747  21.646  0.00  0.00    +0.000 A 
ATOM     11  C   UNL     1       1.149   8.567  21.737  0.00  0.00    +0.000 A 
ATOM     12  C   UNL     1       1.675   8.032  20.557  0.00  0.00    +0.000 A 
ATOM     13  C   UNL     1       1.479   8.677  19.345  0.00  0.00    +0.000 A 
ATOM     14 CL   UNL     1       2.113   7.998  17.894  0.00  0.00    +0.000 Cl
ATOM     15  C   UNL     1       0.757   9.870  19.279  0.00  0.00    +0.000 A 
ATOM     16  C   UNL     1       0.171  10.413  20.446  0.00  0.00    +0.000 A 
ATOM     17  H   UNL     1      -0.246  10.202  23.600  0.00  0.00    +0.000 HD
BRANCH   8  18
ATOM     18  C   UNL     1      -1.679  12.458  22.989  0.00  0.00    +0.000 A 
ATOM     19  C   UNL     1      -2.971  12.127  23.417  0.00  0.00    +0.000 A 
ATOM     20  C   UNL     1      -3.719  12.997  24.214  0.00  0.00    +0.000 A 
ATOM     21  C   UNL     1      -3.160  14.193  24.651  0.00  0.00    +0.000 A 
ATOM     22  C   UNL     1      -1.861  14.522  24.277  0.00  0.00    +0.000 A 
ATOM     23  C   UNL     1      -1.131  13.669  23.440  0.00  0.00    +0.000 A 
ENDBRANCH   8  18
ENDBRANCH   3   7
BRANCH   1  28
ATOM     24  C   UNL     1      -7.913  16.126  22.380  0.00  0.00    +0.000 C 
ATOM     25  C   UNL     1      -6.582  15.648  21.886  0.00  0.00    +0.000 A 
ATOM     26  C   UNL     1      -6.438  14.376  21.331  0.00  0.00    +0.000 A 
ATOM     27  C   UNL     1      -5.191  13.942  20.881  0.00  0.00    +0.000 A 
ATOM     28  C   UNL     1      -4.061  14.774  20.959  0.00  0.00    +0.000 A 
ATOM     29  C   UNL     1      -4.212  16.044  21.527  0.00  0.00    +0.000 A 
ATOM     30  C   UNL     1      -5.459  16.478  21.984  0.00  0.00    +0.000 A 
ENDBRANCH   1  28
BRANCH   5  31
ATOM     31  N   UNL     1       0.368  16.072  19.951  0.00  0.00    +0.000 N 
ATOM     32  H   UNL     1       1.348  15.837  19.808  0.00  0.00    +0.000 HD
ATOM     33  H   UNL     1       0.234  16.636  20.790  0.00  0.00    +0.000 HD
ENDBRANCH   5  31
BRANCH   4  34
ATOM     34  C   UNL     1       1.098  13.440  18.976  0.00  0.00    +0.000 C 
ATOM     35  N   UNL     1       2.131  13.194  18.521  0.00  0.00    +0.000 NA
ENDBRANCH   4  34
TORSDOF 5
ENDMDL
MODEL 6
REMARK VINA RESULT:      -7.0      2.578      5.332
REMARK  Name = 
REMARK  6 active torsions:
REMARK  status: ('A' for Active; 'I' for Inactive)
REMARK    1  A    between atoms: C_1  and  C_2
REMARK    2  A    between atoms: C_5  and  C_6
REMARK    3  A    between atoms: C_8  and  C_9
REMARK    4  A    between atoms: C_10  and  C_11
REMARK    5  A    between atoms: C_25  and  C_26
REMARK    6  A    between atoms: C_28  and  N_29
REMARK                            x       y       z     vdW  Elec       q    Type
REMARK                         _______ _______ _______ _____ _____    ______ ____
ROOT
ATOM      1  C   UNL     1       0.088  13.808  18.959  0.00  0.00    +0.000 C 
ATOM      2  C   UNL     1      -0.696  14.008  20.027  0.00  0.00    +0.000 C 
ATOM      3  C   UNL     1      -1.969  13.246  20.212  0.00  0.00    +0.000 C 
ATOM      4  C   UNL     1      -2.378  12.492  18.968  0.00  0.00    +0.000 C 
ATOM      5  C   UNL     1      -1.536  12.355  17.923  0.00  0.00    +0.000 C 
ATOM      6  O   UNL     1      -0.272  12.943  17.934  0.00  0.00    +0.000 OA
ENDROOT
BRANCH   3   7
ATOM      7  C   UNL     1      -1.830  12.344  21.434  0.00  0.00    +0.000 A 
ATOM      8  C   UNL     1      -2.476  12.488  22.669  0.00  0.00    +0.000 A 
ATOM      9  N   UNL     1      -2.000  11.479  23.482  0.00  0.00    +0.000 N 
ATOM     10  C   UNL     1      -1.101  10.677  22.829  0.00  0.00    +0.000 A 
ATOM     11  C   UNL     1      -0.416   9.538  23.278  0.00  0.00    +0.000 A 
ATOM     12  C   UNL     1       0.439   8.891  22.380  0.00  0.00    +0.000 A 
ATOM     13  C   UNL     1       0.621   9.390  21.100  0.00  0.00    +0.000 A 
ATOM     14 CL   UNL     1       1.660   8.573  19.994  0.00  0.00    +0.000 Cl
ATOM     15  C   UNL     1      -0.040  10.546  20.683  0.00  0.00    +0.000 A 
ATOM     16  C   UNL     1      -0.949  11.198  21.549  0.00  0.00    +0.000 A 
ATOM     17  H   UNL     1      -2.299  11.328  24.434  0.00  0.00    +0.000 HD
BRANCH   8  18
ATOM     18  C   UNL     1      -3.469  13.458  23.165  0.00  0.00    +0.000 A 
ATOM     19  C   UNL     1      -4.840  13.263  22.960  0.00  0.00    +0.000 A 
ATOM     20  C   UNL     1      -5.782  14.201  23.392  0.00  0.00    +0.000 A 
ATOM     21  C   UNL     1      -5.369  15.327  24.095  0.00  0.00    +0.000 A 
ATOM     22  C   UNL     1      -4.015  15.518  24.353  0.00  0.00    +0.000 A 
ATOM     23  C   UNL     1      -3.070  14.600  23.879  0.00  0.00    +0.000 A 
ENDBRANCH   8  18
ENDBRANCH   3   7
BRANCH   1  28
ATOM     24  C   UNL     1       5.232  16.414  18.363  0.00  0.00    +0.000 C 
ATOM     25  C   UNL     1       3.897  15.752  18.517  0.00  0.00    +0.000 A 
ATOM     26  C   UNL     1       2.751  16.504  18.780  0.00  0.00    +0.000 A 
ATOM     27  C   UNL     1       1.515  15.873  18.927  0.00  0.00    +0.000 A 
ATOM     28  C   UNL     1       1.391  14.480  18.799  0.00  0.00    +0.000 A 
ATOM     29  C   UNL     1       2.547  13.733  18.544  0.00  0.00    +0.000 A 
ATOM     30  C   UNL     1       3.787  14.362  18.404  0.00  0.00    +0.000 A 
ENDBRANCH   1  28
BRANCH   5  31
ATOM     31  N   UNL     1      -1.768  11.592  16.798  0.00  0.00    +0.000 N 
ATOM     32  H   UNL     1      -1.434  12.006  15.930  0.00  0.00    +0.000 HD
ATOM     33  H   UNL     1      -2.753  11.332  16.738  0.00  0.00    +0.000 HD
ENDBRANCH   5  31
BRANCH   4  34
ATOM     34  C   UNL     1      -3.679  11.911  18.957  0.00  0.00    +0.000 C 
ATOM     35  N   UNL     1      -4.736  11.442  18.958  0.00  0.00    +0.000 NA
ENDBRANCH   4  34
TORSDOF 5
ENDMDL
MODEL 7
REMARK VINA RESULT:      -6.8      2.323      7.579
REMARK  Name = 
REMARK  6 active torsions:
REMARK  status: ('A' for Active; 'I' for Inactive)
REMARK    1  A    between atoms: C_1  and  C_2
REMARK    2  A    between atoms: C_5  and  C_6
REMARK    3  A    between atoms: C_8  and  C_9
REMARK    4  A    between atoms: C_10  and  C_11
REMARK    5  A    between atoms: C_25  and  C_26
REMARK    6  A    between atoms: C_28  and  N_29
REMARK                            x       y       z     vdW  Elec       q    Type
REMARK                         _______ _______ _______ _____ _____    ______ ____
ROOT
ATOM      1  C   UNL     1      -2.919  12.999  20.809  0.00  0.00    +0.000 C 
ATOM      2  C   UNL     1      -1.791  12.284  20.920  0.00  0.00    +0.000 C 
ATOM      3  C   UNL     1      -1.291  11.438  19.794  0.00  0.00    +0.000 C 
ATOM      4  C   UNL     1      -2.316  11.269  18.697  0.00  0.00    +0.000 C 
ATOM      5  C   UNL     1      -3.442  12.013  18.669  0.00  0.00    +0.000 C 
ATOM      6  O   UNL     1      -3.721  12.936  19.677  0.00  0.00    +0.000 OA
ENDROOT
BRANCH   3   7
ATOM      7  C   UNL     1       0.027  12.018  19.289  0.00  0.00    +0.000 A 
ATOM      8  C   UNL     1       1.205  11.316  19.003  0.00  0.00    +0.000 A 
ATOM      9  N   UNL     1       2.145  12.258  18.635  0.00  0.00    +0.000 N 
ATOM     10  C   UNL     1       1.629  13.527  18.645  0.00  0.00    +0.000 A 
ATOM     11  C   UNL     1       2.232  14.749  18.312  0.00  0.00    +0.000 A 
ATOM     12  C   UNL     1       1.453  15.908  18.393  0.00  0.00    +0.000 A 
ATOM     13  C   UNL     1       0.137  15.841  18.824  0.00  0.00    +0.000 A 
ATOM     14 CL   UNL     1      -0.820  17.272  18.899  0.00  0.00    +0.000 Cl
ATOM     15  C   UNL     1      -0.434  14.621  19.187  0.00  0.00    +0.000 A 
ATOM     16  C   UNL     1       0.309  13.424  19.072  0.00  0.00    +0.000 A 
ATOM     17  H   UNL     1       3.092  12.039  18.362  0.00  0.00    +0.000 HD
BRANCH   8  18
ATOM     18  C   UNL     1       1.543   9.882  19.044  0.00  0.00    +0.000 A 
ATOM     19  C   UNL     1       1.367   9.127  20.210  0.00  0.00    +0.000 A 
ATOM     20  C   UNL     1       1.725   7.777  20.265  0.00  0.00    +0.000 A 
ATOM     21  C   UNL     1       2.211   7.140  19.128  0.00  0.00    +0.000 A 
ATOM     22  C   UNL     1       2.349   7.858  17.945  0.00  0.00    +0.000 A 
ATOM     23  C   UNL     1       2.033   9.222  17.905  0.00  0.00    +0.000 A 
ENDBRANCH   8  18
ENDBRANCH   3   7
BRANCH   1  28
ATOM     24  C   UNL     1      -4.713  16.616  24.969  0.00  0.00    +0.000 C 
ATOM     25  C   UNL     1      -4.252  15.671  23.901  0.00  0.00    +0.000 A 
ATOM     26  C   UNL     1      -4.017  14.325  24.188  0.00  0.00    +0.000 A 
ATOM     27  C   UNL     1      -3.582  13.458  23.186  0.00  0.00    +0.000 A 
ATOM     28  C   UNL     1      -3.385  13.909  21.870  0.00  0.00    +0.000 A 
ATOM     29  C   UNL     1      -3.613  15.263  21.593  0.00  0.00    +0.000 A 
ATOM     30  C   UNL     1      -4.043  16.134  22.598  0.00  0.00    +0.000 A 
ENDBRANCH   1  28
BRANCH   5  31
ATOM     31  N   UNL     1      -4.376  12.018  17.656  0.00  0.00    +0.000 N 
ATOM     32  H   UNL     1      -4.215  11.323  16.929  0.00  0.00    +0.000 HD
ATOM     33  H   UNL     1      -4.478  12.955  17.265  0.00  0.00    +0.000 HD
ENDBRANCH   5  31
BRANCH   4  34
ATOM     34  C   UNL     1      -2.033  10.310  17.682  0.00  0.00    +0.000 C 
ATOM     35  N   UNL     1      -1.800   9.540  16.852  0.00  0.00    +0.000 NA
ENDBRANCH   4  34
TORSDOF 5
ENDMDL
MODEL 8
REMARK VINA RESULT:      -6.8      1.319      1.730
REMARK  Name = 
REMARK  6 active torsions:
REMARK  status: ('A' for Active; 'I' for Inactive)
REMARK    1  A    between atoms: C_1  and  C_2
REMARK    2  A    between atoms: C_5  and  C_6
REMARK    3  A    between atoms: C_8  and  C_9
REMARK    4  A    between atoms: C_10  and  C_11
REMARK    5  A    between atoms: C_25  and  C_26
REMARK    6  A    between atoms: C_28  and  N_29
REMARK                            x       y       z     vdW  Elec       q    Type
REMARK                         _______ _______ _______ _____ _____    ______ ____
ROOT
ATOM      1  C   UNL     1       0.175  11.445  19.995  0.00  0.00    +0.000 C 
ATOM      2  C   UNL     1      -0.893  11.640  20.780  0.00  0.00    +0.000 C 
ATOM      3  C   UNL     1      -1.584  12.964  20.840  0.00  0.00    +0.000 C 
ATOM      4  C   UNL     1      -0.790  14.063  20.174  0.00  0.00    +0.000 C 
ATOM      5  C   UNL     1       0.292  13.784  19.416  0.00  0.00    +0.000 C 
ATOM      6  O   UNL     1       0.741  12.475  19.255  0.00  0.00    +0.000 OA
ENDROOT
BRANCH   3   7
ATOM      7  C   UNL     1      -2.988  12.813  20.262  0.00  0.00    +0.000 A 
ATOM      8  C   UNL     1      -4.180  13.328  20.790  0.00  0.00    +0.000 A 
ATOM      9  N   UNL     1      -5.196  12.891  19.965  0.00  0.00    +0.000 N 
ATOM     10  C   UNL     1      -4.722  12.143  18.920  0.00  0.00    +0.000 A 
ATOM     11  C   UNL     1      -5.409  11.545  17.853  0.00  0.00    +0.000 A 
ATOM     12  C   UNL     1      -4.661  10.846  16.900  0.00  0.00    +0.000 A 
ATOM     13  C   UNL     1      -3.286  10.726  17.037  0.00  0.00    +0.000 A 
ATOM     14 CL   UNL     1      -2.371   9.882  15.846  0.00  0.00    +0.000 Cl
ATOM     15  C   UNL     1      -2.624  11.297  18.125  0.00  0.00    +0.000 A 
ATOM     16  C   UNL     1      -3.344  12.051  19.081  0.00  0.00    +0.000 A 
ATOM     17  H   UNL     1      -6.171  13.118  20.096  0.00  0.00    +0.000 HD
BRANCH   8  18
ATOM     18  C   UNL     1      -4.465  14.165  21.970  0.00  0.00    +0.000 A 
ATOM     19  C   UNL     1      -3.771  13.986  23.173  0.00  0.00    +0.000 A 
ATOM     20  C   UNL     1      -4.068  14.748  24.305  0.00  0.00    +0.000 A 
ATOM     21  C   UNL     1      -5.027  15.753  24.234  0.00  0.00    +0.000 A 
ATOM     22  C   UNL     1      -5.696  15.981  23.036  0.00  0.00    +0.000 A 
ATOM     23  C   UNL     1      -5.429  15.184  21.916  0.00  0.00    +0.000 A 
ENDBRANCH   8  18
ENDBRANCH   3   7
BRANCH   1  28
ATOM     24  C   UNL     1       2.678   6.252  19.380  0.00  0.00    +0.000 C 
ATOM     25  C   UNL     1       2.031   7.593  19.552  0.00  0.00    +0.000 A 
ATOM     26  C   UNL     1       1.507   7.982  20.786  0.00  0.00    +0.000 A 
ATOM     27  C   UNL     1       0.902   9.231  20.930  0.00  0.00    +0.000 A 
ATOM     28  C   UNL     1       0.819  10.127  19.850  0.00  0.00    +0.000 A 
ATOM     29  C   UNL     1       1.338   9.724  18.614  0.00  0.00    +0.000 A 
ATOM     30  C   UNL     1       1.938   8.471  18.467  0.00  0.00    +0.000 A 
ENDBRANCH   1  28
BRANCH   5  31
ATOM     31  N   UNL     1       1.010  14.699  18.675  0.00  0.00    +0.000 N 
ATOM     32  H   UNL     1       1.086  14.473  17.685  0.00  0.00    +0.000 HD
ATOM     33  H   UNL     1       1.924  14.864  19.096  0.00  0.00    +0.000 HD
ENDBRANCH   5  31
BRANCH   4  34
ATOM     34  C   UNL     1      -1.244  15.400  20.360  0.00  0.00    +0.000 C 
ATOM     35  N   UNL     1      -1.622  16.483  20.504  0.00  0.00    +0.000 NA
ENDBRANCH   4  34
TORSDOF 5
ENDMDL
MODEL 9
REMARK VINA RESULT:      -6.6      8.269     10.944
REMARK  Name = 
REMARK  6 active torsions:
REMARK  status: ('A' for Active; 'I' for Inactive)
REMARK    1  A    between atoms: C_1  and  C_2
REMARK    2  A    between atoms: C_5  and  C_6
REMARK    3  A    between atoms: C_8  and  C_9
REMARK    4  A    between atoms: C_10  and  C_11
REMARK    5  A    between atoms: C_25  and  C_26
REMARK    6  A    between atoms: C_28  and  N_29
REMARK                            x       y       z     vdW  Elec       q    Type
REMARK                         _______ _______ _______ _____ _____    ______ ____
ROOT
ATOM      1  C   UNL     1       5.761  14.898  21.264  0.00  0.00    +0.000 C 
ATOM      2  C   UNL     1       6.937  14.904  20.623  0.00  0.00    +0.000 C 
ATOM      3  C   UNL     1       8.222  15.126  21.354  0.00  0.00    +0.000 C 
ATOM      4  C   UNL     1       8.007  15.611  22.769  0.00  0.00    +0.000 C 
ATOM      5  C   UNL     1       6.782  15.595  23.336  0.00  0.00    +0.000 C 
ATOM      6  O   UNL     1       5.663  15.171  22.622  0.00  0.00    +0.000 OA
ENDROOT
BRANCH   3   7
ATOM      7  C   UNL     1       9.055  13.849  21.286  0.00  0.00    +0.000 A 
ATOM      8  C   UNL     1       8.977  12.742  22.141  0.00  0.00    +0.000 A 
ATOM      9  N   UNL     1       9.956  11.859  21.733  0.00  0.00    +0.000 N 
ATOM     10  C   UNL     1      10.645  12.327  20.645  0.00  0.00    +0.000 A 
ATOM     11  C   UNL     1      11.683  11.733  19.911  0.00  0.00    +0.000 A 
ATOM     12  C   UNL     1      12.197  12.436  18.816  0.00  0.00    +0.000 A 
ATOM     13  C   UNL     1      11.709  13.694  18.498  0.00  0.00    +0.000 A 
ATOM     14 CL   UNL     1      12.333  14.542  17.133  0.00  0.00    +0.000 Cl
ATOM     15  C   UNL     1      10.702  14.284  19.262  0.00  0.00    +0.000 A 
ATOM     16  C   UNL     1      10.127  13.582  20.346  0.00  0.00    +0.000 A 
ATOM     17  H   UNL     1      10.127  10.962  22.163  0.00  0.00    +0.000 HD
BRANCH   8  18
ATOM     18  C   UNL     1       8.102  12.430  23.287  0.00  0.00    +0.000 A 
ATOM     19  C   UNL     1       6.807  11.933  23.097  0.00  0.00    +0.000 A 
ATOM     20  C   UNL     1       5.960  11.675  24.179  0.00  0.00    +0.000 A 
ATOM     21  C   UNL     1       6.421  11.852  25.479  0.00  0.00    +0.000 A 
ATOM     22  C   UNL     1       7.721  12.300  25.693  0.00  0.00    +0.000 A 
ATOM     23  C   UNL     1       8.551  12.601  24.606  0.00  0.00    +0.000 A 
ENDBRANCH   8  18
ENDBRANCH   3   7
BRANCH   1  28
ATOM     24  C   UNL     1       0.765  13.650  18.602  0.00  0.00    +0.000 C 
ATOM     25  C   UNL     1       2.061  13.979  19.279  0.00  0.00    +0.000 A 
ATOM     26  C   UNL     1       3.127  14.523  18.561  0.00  0.00    +0.000 A 
ATOM     27  C   UNL     1       4.329  14.819  19.204  0.00  0.00    +0.000 A 
ATOM     28  C   UNL     1       4.491  14.594  20.581  0.00  0.00    +0.000 A 
ATOM     29  C   UNL     1       3.420  14.039  21.291  0.00  0.00    +0.000 A 
ATOM     30  C   UNL     1       2.217  13.736  20.648  0.00  0.00    +0.000 A 
ENDBRANCH   1  28
BRANCH   5  31
ATOM     31  N   UNL     1       6.502  15.905  24.650  0.00  0.00    +0.000 N 
ATOM     32  H   UNL     1       6.299  16.888  24.818  0.00  0.00    +0.000 HD
ATOM     33  H   UNL     1       7.240  15.561  25.265  0.00  0.00    +0.000 HD
ENDBRANCH   5  31
BRANCH   4  34
ATOM     34  C   UNL     1       9.153  16.063  23.485  0.00  0.00    +0.000 C 
ATOM     35  N   UNL     1      10.086  16.418  24.067  0.00  0.00    +0.000 NA
ENDBRANCH   4  34
TORSDOF 5
ENDMDL
