MODEL 1
REMARK VINA RESULT:      -7.7      0.000      0.000
REMARK  Name = 
REMARK  5 active torsions:
REMARK  status: ('A' for Active; 'I' for Inactive)
REMARK    1  A    between atoms: C_1  and  C_2
REMARK    2  A    between atoms: C_2  and  N_3
REMARK    3  A    between atoms: N_6  and  C_7
REMARK    4  A    between atoms: C_7  and  C_8
REMARK    5  A    between atoms: C_8  and  C_9
REMARK                            x       y       z     vdW  Elec       q    Type
REMARK                         _______ _______ _______ _____ _____    ______ ____
ROOT
ATOM      1  N   UNL     1       3.064   3.868  19.181  0.00  0.00    +0.000 N 
ATOM      2  C   UNL     1       3.755   3.363  18.060  0.00  0.00    +0.000 A 
ATOM      3  O   UNL     1       4.052   2.200  17.839  0.00  0.00    +0.000 OA
ATOM      4  N   UNL     1       4.034   4.475  17.233  0.00  0.00    +0.000 N 
ATOM      5  C   UNL     1       3.518   5.630  17.836  0.00  0.00    +0.000 A 
ATOM      6  C   UNL     1       3.546   6.946  17.420  0.00  0.00    +0.000 A 
ATOM      7  C   UNL     1       2.916   7.891  18.236  0.00  0.00    +0.000 A 
ATOM      8  C   UNL     1       2.285   7.508  19.435  0.00  0.00    +0.000 A 
ATOM      9  C   UNL     1       2.278   6.171  19.850  0.00  0.00    +0.000 A 
ATOM     10  C   UNL     1       2.902   5.252  19.033  0.00  0.00    +0.000 A 
ENDROOT
BRANCH   1  12
ATOM     11  C   UNL     1       1.109   2.754  20.172  0.00  0.00    +0.000 C 
ATOM     12  C   UNL     1       2.591   3.067  20.281  0.00  0.00    +0.000 C 
ENDBRANCH   1  12
BRANCH   4  13
ATOM     13  C   UNL     1       4.821   4.423  16.025  0.00  0.00    +0.000 C 
BRANCH  13  14
ATOM     14  C   UNL     1       6.276   4.052  16.290  0.00  0.00    +0.000 C 
BRANCH  14  15
ATOM     15  C   UNL     1       6.968   5.175  17.027  0.00  0.00    +0.000 C 
ATOM     16  O   UNL     1       7.337   6.205  16.465  0.00  0.00    +0.000 OA
ATOM     17  N   UNL     1       7.196   4.892  18.362  0.00  0.00    +0.000 N 
ATOM     18  C   UNL     1       7.756   5.703  19.308  0.00  0.00    +0.000 C 
ATOM     19  N   UNL     1       8.258   6.880  18.887  0.00  0.00    +0.000 N 
ATOM     20  O   UNL     1       7.799   5.366  20.488  0.00  0.00    +0.000 OA
ATOM     21  H   UNL     1       6.827   4.037  18.753  0.00  0.00    +0.000 HD
ATOM     22  H   UNL     1       8.135   7.173  17.921  0.00  0.00    +0.000 HD
ATOM     23  H   UNL     1       8.643   7.525  19.559  0.00  0.00    +0.000 HD
ENDBRANCH  14  15
ENDBRANCH  13  14
ENDBRANCH   4  13
TORSDOF 4
ENDMDL
MODEL 2
REMARK VINA RESULT:      -7.7      2.298      3.132
REMARK  Name = 
REMARK  5 active torsions:
REMARK  status: ('A' for Active; 'I' for Inactive)
REMARK    1  A    between atoms: C_1  and  C_2
REMARK    2  A    between atoms: C_2  and  N_3
REMARK    3  A    between atoms: N_6  and  C_7
REMARK    4  A    between atoms: C_7  and  C_8
REMARK    5  A    between atoms: C_8  and  C_9
REMARK                            x       y       z     vdW  Elec       q    Type
REMARK                         _______ _______ _______ _____ _____    ______ ____
ROOT
ATOM      1  N   UNL     1       3.256   4.608  19.987  0.00  0.00    +0.000 N 
ATOM      2  C   UNL     1       4.368   3.924  19.453  0.00  0.00    +0.000 A 
ATOM      3  O   UNL     1       4.802   2.838  19.802  0.00  0.00    +0.000 OA
ATOM      4  N   UNL     1       4.882   4.744  18.423  0.00  0.00    +0.000 N 
ATOM      5  C   UNL     1       4.095   5.900  18.328  0.00  0.00    +0.000 A 
ATOM      6  C   UNL     1       4.202   6.990  17.488  0.00  0.00    +0.000 A 
ATOM      7  C   UNL     1       3.240   7.997  17.616  0.00  0.00    +0.000 A 
ATOM      8  C   UNL     1       2.209   7.898  18.571  0.00  0.00    +0.000 A 
ATOM      9  C   UNL     1       2.123   6.792  19.426  0.00  0.00    +0.000 A 
ATOM     10  C   UNL     1       3.079   5.808  19.284  0.00  0.00    +0.000 A 
ENDROOT
BRANCH   1  12
ATOM     11  C   UNL     1       1.350   3.178  20.586  0.00  0.00    +0.000 C 
ATOM     12  C   UNL     1       2.437   4.123  21.067  0.00  0.00    +0.000 C 
ENDBRANCH   1  12
BRANCH   4  13
ATOM     13  C   UNL     1       6.087   4.470  17.678  0.00  0.00    +0.000 C 
BRANCH  13  14
ATOM     14  C   UNL     1       5.807   4.112  16.223  0.00  0.00    +0.000 C 
BRANCH  14  15
ATOM     15  C   UNL     1       6.801   4.807  15.322  0.00  0.00    +0.000 C 
ATOM     16  O   UNL     1       7.583   5.660  15.735  0.00  0.00    +0.000 OA
ATOM     17  N   UNL     1       6.685   4.434  13.994  0.00  0.00    +0.000 N 
ATOM     18  C   UNL     1       7.453   4.840  12.939  0.00  0.00    +0.000 C 
ATOM     19  N   UNL     1       8.362   5.805  13.178  0.00  0.00    +0.000 N 
ATOM     20  O   UNL     1       7.314   4.344  11.824  0.00  0.00    +0.000 OA
ATOM     21  H   UNL     1       6.041   3.698  13.744  0.00  0.00    +0.000 HD
ATOM     22  H   UNL     1       8.517   6.139  14.126  0.00  0.00    +0.000 HD
ATOM     23  H   UNL     1       8.977   6.104  12.437  0.00  0.00    +0.000 HD
ENDBRANCH  14  15
ENDBRANCH  13  14
ENDBRANCH   4  13
TORSDOF 4
ENDMDL
MODEL 3
REMARK VINA RESULT:      -7.6      1.437      2.976
REMARK  Name = 
REMARK  5 active torsions:
REMARK  status: ('A' for Active; 'I' for Inactive)
REMARK    1  A    between atoms: C_1  and  C_2
REMARK    2  A    between atoms: C_2  and  N_3
REMARK    3  A    between atoms: N_6  and  C_7
REMARK    4  A    between atoms: C_7  and  C_8
REMARK    5  A    between atoms: C_8  and  C_9
REMARK                            x       y       z     vdW  Elec       q    Type
REMARK                         _______ _______ _______ _____ _____    ______ ____
ROOT
ATOM      1  N   UNL     1       2.914   6.141  18.539  0.00  0.00    +0.000 N 
ATOM      2  C   UNL     1       3.902   6.253  17.538  0.00  0.00    +0.000 A 
ATOM      3  O   UNL     1       4.509   7.259  17.210  0.00  0.00    +0.000 OA
ATOM      4  N   UNL     1       4.058   4.960  16.988  0.00  0.00    +0.000 N 
ATOM      5  C   UNL     1       3.187   4.080  17.646  0.00  0.00    +0.000 A 
ATOM      6  C   UNL     1       2.971   2.729  17.461  0.00  0.00    +0.000 A 
ATOM      7  C   UNL     1       2.039   2.107  18.297  0.00  0.00    +0.000 A 
ATOM      8  C   UNL     1       1.348   2.838  19.284  0.00  0.00    +0.000 A 
ATOM      9  C   UNL     1       1.568   4.210  19.449  0.00  0.00    +0.000 A 
ATOM     10  C   UNL     1       2.492   4.807  18.617  0.00  0.00    +0.000 A 
ENDROOT
BRANCH   1  12
ATOM     11  C   UNL     1       1.944   8.399  18.517  0.00  0.00    +0.000 C 
ATOM     12  C   UNL     1       2.445   7.234  19.351  0.00  0.00    +0.000 C 
ENDBRANCH   1  12
BRANCH   4  13
ATOM     13  C   UNL     1       4.899   4.642  15.861  0.00  0.00    +0.000 C 
BRANCH  13  14
ATOM     14  C   UNL     1       6.268   4.119  16.280  0.00  0.00    +0.000 C 
BRANCH  14  15
ATOM     15  C   UNL     1       7.019   5.191  17.035  0.00  0.00    +0.000 C 
ATOM     16  O   UNL     1       7.494   6.180  16.480  0.00  0.00    +0.000 OA
ATOM     17  N   UNL     1       7.169   4.905  18.381  0.00  0.00    +0.000 N 
ATOM     18  C   UNL     1       7.756   5.680  19.342  0.00  0.00    +0.000 C 
ATOM     19  N   UNL     1       8.369   6.807  18.931  0.00  0.00    +0.000 N 
ATOM     20  O   UNL     1       7.724   5.355  20.526  0.00  0.00    +0.000 OA
ATOM     21  H   UNL     1       6.716   4.088  18.764  0.00  0.00    +0.000 HD
ATOM     22  H   UNL     1       8.309   7.097  17.959  0.00  0.00    +0.000 HD
ATOM     23  H   UNL     1       8.778   7.426  19.613  0.00  0.00    +0.000 HD
ENDBRANCH  14  15
ENDBRANCH  13  14
ENDBRANCH   4  13
TORSDOF 4
ENDMDL
MODEL 4
REMARK VINA RESULT:      -7.3      1.071      1.378
REMARK  Name = 
REMARK  5 active torsions:
REMARK  status: ('A' for Active; 'I' for Inactive)
REMARK    1  A    between atoms: C_1  and  C_2
REMARK    2  A    between atoms: C_2  and  N_3
REMARK    3  A    between atoms: N_6  and  C_7
REMARK    4  A    between atoms: C_7  and  C_8
REMARK    5  A    between atoms: C_8  and  C_9
REMARK                            x       y       z     vdW  Elec       q    Type
REMARK                         _______ _______ _______ _____ _____    ______ ____
ROOT
ATOM      1  N   UNL     1       3.212   3.813  18.890  0.00  0.00    +0.000 N 
ATOM      2  C   UNL     1       3.976   3.415  17.773  0.00  0.00    +0.000 A 
ATOM      3  O   UNL     1       4.330   2.282  17.488  0.00  0.00    +0.000 OA
ATOM      4  N   UNL     1       4.249   4.592  17.040  0.00  0.00    +0.000 N 
ATOM      5  C   UNL     1       3.658   5.682  17.694  0.00  0.00    +0.000 A 
ATOM      6  C   UNL     1       3.652   7.024  17.372  0.00  0.00    +0.000 A 
ATOM      7  C   UNL     1       2.946   7.885  18.219  0.00  0.00    +0.000 A 
ATOM      8  C   UNL     1       2.274   7.394  19.355  0.00  0.00    +0.000 A 
ATOM      9  C   UNL     1       2.302   6.031  19.676  0.00  0.00    +0.000 A 
ATOM     10  C   UNL     1       3.001   5.197  18.829  0.00  0.00    +0.000 A 
ENDROOT
BRANCH   1  12
ATOM     11  C   UNL     1       1.319   2.415  19.603  0.00  0.00    +0.000 C 
ATOM     12  C   UNL     1       2.720   2.918  19.906  0.00  0.00    +0.000 C 
ENDBRANCH   1  12
BRANCH   4  13
ATOM     13  C   UNL     1       5.094   4.656  15.873  0.00  0.00    +0.000 C 
BRANCH  13  14
ATOM     14  C   UNL     1       6.500   4.128  16.139  0.00  0.00    +0.000 C 
BRANCH  14  15
ATOM     15  C   UNL     1       7.167   4.959  17.210  0.00  0.00    +0.000 C 
ATOM     16  O   UNL     1       7.576   4.475  18.263  0.00  0.00    +0.000 OA
ATOM     17  N   UNL     1       7.201   6.310  16.909  0.00  0.00    +0.000 N 
ATOM     18  C   UNL     1       7.765   7.318  17.639  0.00  0.00    +0.000 C 
ATOM     19  N   UNL     1       8.251   6.997  18.854  0.00  0.00    +0.000 N 
ATOM     20  O   UNL     1       7.822   8.464  17.201  0.00  0.00    +0.000 OA
ATOM     21  H   UNL     1       6.875   6.621  16.006  0.00  0.00    +0.000 HD
ATOM     22  H   UNL     1       8.269   6.027  19.158  0.00  0.00    +0.000 HD
ATOM     23  H   UNL     1       8.712   7.703  19.407  0.00  0.00    +0.000 HD
ENDBRANCH  14  15
ENDBRANCH  13  14
ENDBRANCH   4  13
TORSDOF 4
ENDMDL
MODEL 5
REMARK VINA RESULT:      -7.3      2.381      4.219
REMARK  Name = 
REMARK  5 active torsions:
REMARK  status: ('A' for Active; 'I' for Inactive)
REMARK    1  A    between atoms: C_1  and  C_2
REMARK    2  A    between atoms: C_2  and  N_3
REMARK    3  A    between atoms: N_6  and  C_7
REMARK    4  A    between atoms: C_7  and  C_8
REMARK    5  A    between atoms: C_8  and  C_9
REMARK                            x       y       z     vdW  Elec       q    Type
REMARK                         _______ _______ _______ _____ _____    ______ ____
ROOT
ATOM      1  N   UNL     1       3.043   6.408  18.854  0.00  0.00    +0.000 N 
ATOM      2  C   UNL     1       4.250   6.238  18.145  0.00  0.00    +0.000 A 
ATOM      3  O   UNL     1       4.912   7.106  17.597  0.00  0.00    +0.000 OA
ATOM      4  N   UNL     1       4.551   4.858  18.196  0.00  0.00    +0.000 N 
ATOM      5  C   UNL     1       3.549   4.203  18.926  0.00  0.00    +0.000 A 
ATOM      6  C   UNL     1       3.398   2.867  19.240  0.00  0.00    +0.000 A 
ATOM      7  C   UNL     1       2.290   2.511  20.015  0.00  0.00    +0.000 A 
ATOM      8  C   UNL     1       1.367   3.482  20.451  0.00  0.00    +0.000 A 
ATOM      9  C   UNL     1       1.527   4.831  20.112  0.00  0.00    +0.000 A 
ATOM     10  C   UNL     1       2.626   5.164  19.349  0.00  0.00    +0.000 A 
ENDROOT
BRANCH   1  12
ATOM     11  C   UNL     1       1.896   8.271  17.734  0.00  0.00    +0.000 C 
ATOM     12  C   UNL     1       2.375   7.669  19.044  0.00  0.00    +0.000 C 
ENDBRANCH   1  12
BRANCH   4  13
ATOM     13  C   UNL     1       5.651   4.230  17.507  0.00  0.00    +0.000 C 
BRANCH  13  14
ATOM     14  C   UNL     1       5.408   4.104  16.007  0.00  0.00    +0.000 C 
BRANCH  14  15
ATOM     15  C   UNL     1       6.529   4.773  15.246  0.00  0.00    +0.000 C 
ATOM     16  O   UNL     1       7.305   5.566  15.775  0.00  0.00    +0.000 OA
ATOM     17  N   UNL     1       6.541   4.452  13.900  0.00  0.00    +0.000 N 
ATOM     18  C   UNL     1       7.439   4.850  12.950  0.00  0.00    +0.000 C 
ATOM     19  N   UNL     1       8.366   5.754  13.324  0.00  0.00    +0.000 N 
ATOM     20  O   UNL     1       7.397   4.401  11.808  0.00  0.00    +0.000 OA
ATOM     21  H   UNL     1       5.889   3.763  13.552  0.00  0.00    +0.000 HD
ATOM     22  H   UNL     1       8.434   6.046  14.295  0.00  0.00    +0.000 HD
ATOM     23  H   UNL     1       9.072   6.043  12.665  0.00  0.00    +0.000 HD
ENDBRANCH  14  15
ENDBRANCH  13  14
ENDBRANCH   4  13
TORSDOF 4
ENDMDL
MODEL 6
REMARK VINA RESULT:      -7.3      1.642      3.271
REMARK  Name = 
REMARK  5 active torsions:
REMARK  status: ('A' for Active; 'I' for Inactive)
REMARK    1  A    between atoms: C_1  and  C_2
REMARK    2  A    between atoms: C_2  and  N_3
REMARK    3  A    between atoms: N_6  and  C_7
REMARK    4  A    between atoms: C_7  and  C_8
REMARK    5  A    between atoms: C_8  and  C_9
REMARK                            x       y       z     vdW  Elec       q    Type
REMARK                         _______ _______ _______ _____ _____    ______ ____
ROOT
ATOM      1  N   UNL     1       2.930   6.241  18.428  0.00  0.00    +0.000 N 
ATOM      2  C   UNL     1       3.989   6.388  17.508  0.00  0.00    +0.000 A 
ATOM      3  O   UNL     1       4.596   7.413  17.241  0.00  0.00    +0.000 OA
ATOM      4  N   UNL     1       4.217   5.107  16.956  0.00  0.00    +0.000 N 
ATOM      5  C   UNL     1       3.318   4.198  17.532  0.00  0.00    +0.000 A 
ATOM      6  C   UNL     1       3.149   2.846  17.314  0.00  0.00    +0.000 A 
ATOM      7  C   UNL     1       2.169   2.192  18.068  0.00  0.00    +0.000 A 
ATOM      8  C   UNL     1       1.388   2.893  19.007  0.00  0.00    +0.000 A 
ATOM      9  C   UNL     1       1.563   4.268  19.207  0.00  0.00    +0.000 A 
ATOM     10  C   UNL     1       2.534   4.896  18.456  0.00  0.00    +0.000 A 
ENDROOT
BRANCH   1  12
ATOM     11  C   UNL     1       1.812   8.428  18.354  0.00  0.00    +0.000 C 
ATOM     12  C   UNL     1       2.374   7.311  19.215  0.00  0.00    +0.000 C 
ENDBRANCH   1  12
BRANCH   4  13
ATOM     13  C   UNL     1       5.149   4.824  15.893  0.00  0.00    +0.000 C 
BRANCH  13  14
ATOM     14  C   UNL     1       6.383   4.072  16.381  0.00  0.00    +0.000 C 
BRANCH  14  15
ATOM     15  C   UNL     1       7.101   4.888  17.430  0.00  0.00    +0.000 C 
ATOM     16  O   UNL     1       7.450   4.416  18.510  0.00  0.00    +0.000 OA
ATOM     17  N   UNL     1       7.257   6.217  17.074  0.00  0.00    +0.000 N 
ATOM     18  C   UNL     1       7.895   7.203  17.772  0.00  0.00    +0.000 C 
ATOM     19  N   UNL     1       8.330   6.895  19.009  0.00  0.00    +0.000 N 
ATOM     20  O   UNL     1       8.057   8.320  17.288  0.00  0.00    +0.000 OA
ATOM     21  H   UNL     1       6.975   6.515  16.151  0.00  0.00    +0.000 HD
ATOM     22  H   UNL     1       8.260   5.941  19.354  0.00  0.00    +0.000 HD
ATOM     23  H   UNL     1       8.842   7.582  19.541  0.00  0.00    +0.000 HD
ENDBRANCH  14  15
ENDBRANCH  13  14
ENDBRANCH   4  13
TORSDOF 4
ENDMDL
MODEL 7
REMARK VINA RESULT:      -7.2      1.123      1.123
REMARK  Name = 
REMARK  5 active torsions:
REMARK  status: ('A' for Active; 'I' for Inactive)
REMARK    1  A    between atoms: C_1  and  C_2
REMARK    2  A    between atoms: C_2  and  N_3
REMARK    3  A    between atoms: N_6  and  C_7
REMARK    4  A    between atoms: C_7  and  C_8
REMARK    5  A    between atoms: C_8  and  C_9
REMARK                            x       y       z     vdW  Elec       q    Type
REMARK                         _______ _______ _______ _____ _____    ______ ____
ROOT
ATOM      1  N   UNL     1       2.971   3.745  19.771  0.00  0.00    +0.000 N 
ATOM      2  C   UNL     1       3.497   3.170  18.596  0.00  0.00    +0.000 A 
ATOM      3  O   UNL     1       3.811   2.003  18.423  0.00  0.00    +0.000 OA
ATOM      4  N   UNL     1       3.586   4.214  17.648  0.00  0.00    +0.000 N 
ATOM      5  C   UNL     1       3.118   5.399  18.232  0.00  0.00    +0.000 A 
ATOM      6  C   UNL     1       3.015   6.674  17.713  0.00  0.00    +0.000 A 
ATOM      7  C   UNL     1       2.479   7.663  18.544  0.00  0.00    +0.000 A 
ATOM      8  C   UNL     1       2.067   7.364  19.857  0.00  0.00    +0.000 A 
ATOM      9  C   UNL     1       2.191   6.069  20.373  0.00  0.00    +0.000 A 
ATOM     10  C   UNL     1       2.720   5.105  19.541  0.00  0.00    +0.000 A 
ENDROOT
BRANCH   1  12
ATOM     11  C   UNL     1       1.240   2.769  21.217  0.00  0.00    +0.000 C 
ATOM     12  C   UNL     1       2.720   3.026  20.993  0.00  0.00    +0.000 C 
ENDBRANCH   1  12
BRANCH   4  13
ATOM     13  C   UNL     1       4.171   4.085  16.336  0.00  0.00    +0.000 C 
BRANCH  13  14
ATOM     14  C   UNL     1       5.696   4.073  16.373  0.00  0.00    +0.000 C 
BRANCH  14  15
ATOM     15  C   UNL     1       6.220   5.489  16.433  0.00  0.00    +0.000 C 
ATOM     16  O   UNL     1       5.962   6.326  15.572  0.00  0.00    +0.000 OA
ATOM     17  N   UNL     1       7.063   5.712  17.508  0.00  0.00    +0.000 N 
ATOM     18  C   UNL     1       7.666   6.883  17.873  0.00  0.00    +0.000 C 
ATOM     19  N   UNL     1       7.529   7.929  17.035  0.00  0.00    +0.000 N 
ATOM     20  O   UNL     1       8.304   6.969  18.918  0.00  0.00    +0.000 OA
ATOM     21  H   UNL     1       7.194   4.979  18.191  0.00  0.00    +0.000 HD
ATOM     22  H   UNL     1       6.926   7.857  16.220  0.00  0.00    +0.000 HD
ATOM     23  H   UNL     1       7.924   8.822  17.287  0.00  0.00    +0.000 HD
ENDBRANCH  14  15
ENDBRANCH  13  14
ENDBRANCH   4  13
TORSDOF 4
ENDMDL
MODEL 8
REMARK VINA RESULT:      -7.2      2.068      2.914
REMARK  Name = 
REMARK  5 active torsions:
REMARK  status: ('A' for Active; 'I' for Inactive)
REMARK    1  A    between atoms: C_1  and  C_2
REMARK    2  A    between atoms: C_2  and  N_3
REMARK    3  A    between atoms: N_6  and  C_7
REMARK    4  A    between atoms: C_7  and  C_8
REMARK    5  A    between atoms: C_8  and  C_9
REMARK                            x       y       z     vdW  Elec       q    Type
REMARK                         _______ _______ _______ _____ _____    ______ ____
ROOT
ATOM      1  N   UNL     1       2.386   3.410  19.411  0.00  0.00    +0.000 N 
ATOM      2  C   UNL     1       3.130   3.029  18.276  0.00  0.00    +0.000 A 
ATOM      3  O   UNL     1       3.359   1.893  17.891  0.00  0.00    +0.000 OA
ATOM      4  N   UNL     1       3.561   4.227  17.662  0.00  0.00    +0.000 N 
ATOM      5  C   UNL     1       3.082   5.315  18.405  0.00  0.00    +0.000 A 
ATOM      6  C   UNL     1       3.243   6.672  18.211  0.00  0.00    +0.000 A 
ATOM      7  C   UNL     1       2.617   7.529  19.122  0.00  0.00    +0.000 A 
ATOM      8  C   UNL     1       1.860   7.020  20.195  0.00  0.00    +0.000 A 
ATOM      9  C   UNL     1       1.718   5.640  20.386  0.00  0.00    +0.000 A 
ATOM     10  C   UNL     1       2.340   4.809  19.478  0.00  0.00    +0.000 A 
ENDROOT
BRANCH   1  12
ATOM     11  C   UNL     1       2.393   2.541  21.710  0.00  0.00    +0.000 C 
ATOM     12  C   UNL     1       1.763   2.491  20.329  0.00  0.00    +0.000 C 
ENDBRANCH   1  12
BRANCH   4  13
ATOM     13  C   UNL     1       4.442   4.296  16.522  0.00  0.00    +0.000 C 
BRANCH  13  14
ATOM     14  C   UNL     1       5.913   4.324  16.920  0.00  0.00    +0.000 C 
BRANCH  14  15
ATOM     15  C   UNL     1       6.741   4.887  15.789  0.00  0.00    +0.000 C 
ATOM     16  O   UNL     1       7.523   5.824  15.945  0.00  0.00    +0.000 OA
ATOM     17  N   UNL     1       6.475   4.291  14.569  0.00  0.00    +0.000 N 
ATOM     18  C   UNL     1       7.075   4.536  13.366  0.00  0.00    +0.000 C 
ATOM     19  N   UNL     1       7.952   5.557  13.316  0.00  0.00    +0.000 N 
ATOM     20  O   UNL     1       6.819   3.853  12.378  0.00  0.00    +0.000 OA
ATOM     21  H   UNL     1       5.845   3.503  14.534  0.00  0.00    +0.000 HD
ATOM     22  H   UNL     1       8.211   6.052  14.165  0.00  0.00    +0.000 HD
ATOM     23  H   UNL     1       8.448   5.745  12.458  0.00  0.00    +0.000 HD
ENDBRANCH  14  15
ENDBRANCH  13  14
ENDBRANCH   4  13
TORSDOF 4
ENDMDL
MODEL 9
REMARK VINA RESULT:      -7.1      2.651      4.488
REMARK  Name = 
REMARK  5 active torsions:
REMARK  status: ('A' for Active; 'I' for Inactive)
REMARK    1  A    between atoms: C_1  and  C_2
REMARK    2  A    between atoms: C_2  and  N_3
REMARK    3  A    between atoms: N_6  and  C_7
REMARK    4  A    between atoms: C_7  and  C_8
REMARK    5  A    between atoms: C_8  and  C_9
REMARK                            x       y       z     vdW  Elec       q    Type
REMARK                         _______ _______ _______ _____ _____    ______ ____
ROOT
ATOM      1  N   UNL     1       2.909   6.000  18.406  0.00  0.00    +0.000 N 
ATOM      2  C   UNL     1       3.985   5.893  17.499  0.00  0.00    +0.000 A 
ATOM      3  O   UNL     1       4.710   6.793  17.105  0.00  0.00    +0.000 OA
ATOM      4  N   UNL     1       4.064   4.529  17.137  0.00  0.00    +0.000 N 
ATOM      5  C   UNL     1       3.061   3.821  17.814  0.00  0.00    +0.000 A 
ATOM      6  C   UNL     1       2.736   2.480  17.783  0.00  0.00    +0.000 A 
ATOM      7  C   UNL     1       1.681   2.056  18.598  0.00  0.00    +0.000 A 
ATOM      8  C   UNL     1       0.981   2.969  19.412  0.00  0.00    +0.000 A 
ATOM      9  C   UNL     1       1.315   4.328  19.421  0.00  0.00    +0.000 A 
ATOM     10  C   UNL     1       2.358   4.728  18.613  0.00  0.00    +0.000 A 
ENDROOT
BRANCH   1  12
ATOM     11  C   UNL     1       1.687   8.106  18.069  0.00  0.00    +0.000 C 
ATOM     12  C   UNL     1       2.478   7.228  19.023  0.00  0.00    +0.000 C 
ENDBRANCH   1  12
BRANCH   4  13
ATOM     13  C   UNL     1       4.964   3.993  16.145  0.00  0.00    +0.000 C 
BRANCH  13  14
ATOM     14  C   UNL     1       6.274   4.769  16.063  0.00  0.00    +0.000 C 
BRANCH  14  15
ATOM     15  C   UNL     1       6.816   4.715  14.654  0.00  0.00    +0.000 C 
ATOM     16  O   UNL     1       7.767   5.401  14.284  0.00  0.00    +0.000 OA
ATOM     17  N   UNL     1       6.091   3.877  13.824  0.00  0.00    +0.000 N 
ATOM     18  C   UNL     1       6.339   3.573  12.515  0.00  0.00    +0.000 C 
ATOM     19  N   UNL     1       7.335   4.248  11.907  0.00  0.00    +0.000 N 
ATOM     20  O   UNL     1       5.678   2.724  11.924  0.00  0.00    +0.000 OA
ATOM     21  H   UNL     1       5.345   3.321  14.216  0.00  0.00    +0.000 HD
ATOM     22  H   UNL     1       7.922   4.884  12.440  0.00  0.00    +0.000 HD
ATOM     23  H   UNL     1       7.577   4.025  10.954  0.00  0.00    +0.000 HD
ENDBRANCH  14  15
ENDBRANCH  13  14
ENDBRANCH   4  13
TORSDOF 4
ENDMDL
