MODEL 1
REMARK VINA RESULT:      -9.5      0.000      0.000
REMARK  Name = 
REMARK  3 active torsions:
REMARK  status: ('A' for Active; 'I' for Inactive)
REMARK    1  A    between atoms: C_5  and  C_6
REMARK    2  A    between atoms: C_9  and  C_10
REMARK    3  A    between atoms: C_12  and  N_13
REMARK                            x       y       z     vdW  Elec       q    Type
REMARK                         _______ _______ _______ _____ _____    ______ ____
ROOT
ATOM      1  C   UNL     1       2.716   7.179  18.313  0.00  0.00    +0.000 A 
ATOM      2  C   UNL     1       3.906   7.160  17.630  0.00  0.00    +0.000 A 
ATOM      3  C   UNL     1       4.542   5.947  17.520  0.00  0.00    +0.000 A 
ATOM      4  N   UNL     1       4.018   4.844  18.090  0.00  0.00    +0.000 NA
ATOM      5  C   UNL     1       2.867   4.936  18.780  0.00  0.00    +0.000 A 
ATOM      6  N   UNL     1       2.331   3.803  19.344  0.00  0.00    +0.000 N 
ATOM      7  C   UNL     1       1.085   3.851  20.112  0.00  0.00    +0.000 C 
ATOM      8  C   UNL     1       1.351   3.529  21.591  0.00  0.00    +0.000 C 
ATOM      9  O   UNL     1       2.065   2.289  21.744  0.00  0.00    +0.000 OA
ATOM     10  C   UNL     1       3.330   2.360  21.064  0.00  0.00    +0.000 C 
ATOM     11  C   UNL     1       3.151   2.612  19.557  0.00  0.00    +0.000 C 
ATOM     12  N   UNL     1       2.198   6.085  18.904  0.00  0.00    +0.000 NA
ENDROOT
BRANCH   3  13
ATOM     13  N   UNL     1       5.704   5.833  16.787  0.00  0.00    +0.000 N 
ATOM     14  C   UNL     1       5.665   5.515  15.359  0.00  0.00    +0.000 C 
ATOM     15  C   UNL     1       6.497   4.260  15.065  0.00  0.00    +0.000 C 
ATOM     16  O   UNL     1       7.834   4.376  15.589  0.00  0.00    +0.000 OA
ATOM     17  C   UNL     1       7.792   4.560  17.013  0.00  0.00    +0.000 C 
ATOM     18  C   UNL     1       7.033   5.841  17.401  0.00  0.00    +0.000 C 
ENDBRANCH   3  13
BRANCH   1  22
ATOM     19  C   UNL     1       0.624   9.820  19.511  0.00  0.00    +0.000 A 
ATOM     20  C   UNL     1       0.739  10.284  18.214  0.00  0.00    +0.000 A 
ATOM     21  C   UNL     1       1.541   9.355  17.513  0.00  0.00    +0.000 A 
ATOM     22  C   UNL     1       1.889   8.371  18.415  0.00  0.00    +0.000 A 
ATOM     23  O   UNL     1       1.325   8.649  19.633  0.00  0.00    +0.000 OA
BRANCH  19  28
ATOM     24  C   UNL     1      -2.952  12.902  23.255  0.00  0.00    +0.000 A 
ATOM     25  C   UNL     1      -2.499  12.994  21.959  0.00  0.00    +0.000 A 
ATOM     26  C   UNL     1      -1.612  11.907  21.732  0.00  0.00    +0.000 A 
ATOM     27  C   UNL     1      -0.868  11.466  20.618  0.00  0.00    +0.000 A 
ATOM     28  C   UNL     1      -0.082  10.300  20.699  0.00  0.00    +0.000 A 
ATOM     29  C   UNL     1      -0.023   9.614  21.920  0.00  0.00    +0.000 A 
ATOM     30  C   UNL     1      -0.745  10.036  23.047  0.00  0.00    +0.000 A 
ATOM     31  C   UNL     1      -1.539  11.179  22.917  0.00  0.00    +0.000 A 
ATOM     32  N   UNL     1      -2.363  11.805  23.826  0.00  0.00    +0.000 N 
ATOM     33  H   UNL     1      -2.514  11.488  24.775  0.00  0.00    +0.000 HD
ENDBRANCH  19  28
ENDBRANCH   1  22
TORSDOF 3
ENDMDL
MODEL 2
REMARK VINA RESULT:      -9.2      2.438      2.989
REMARK  Name = 
REMARK  3 active torsions:
REMARK  status: ('A' for Active; 'I' for Inactive)
REMARK    1  A    between atoms: C_5  and  C_6
REMARK    2  A    between atoms: C_9  and  C_10
REMARK    3  A    between atoms: C_12  and  N_13
REMARK                            x       y       z     vdW  Elec       q    Type
REMARK                         _______ _______ _______ _____ _____    ______ ____
ROOT
ATOM      1  C   UNL     1       2.659   7.456  18.220  0.00  0.00    +0.000 A 
ATOM      2  C   UNL     1       3.792   7.440  17.445  0.00  0.00    +0.000 A 
ATOM      3  C   UNL     1       4.384   6.218  17.233  0.00  0.00    +0.000 A 
ATOM      4  N   UNL     1       3.877   5.104  17.796  0.00  0.00    +0.000 NA
ATOM      5  C   UNL     1       2.785   5.192  18.577  0.00  0.00    +0.000 A 
ATOM      6  N   UNL     1       2.264   4.048  19.133  0.00  0.00    +0.000 N 
ATOM      7  C   UNL     1       1.083   4.091  19.997  0.00  0.00    +0.000 C 
ATOM      8  C   UNL     1       1.454   3.697  21.435  0.00  0.00    +0.000 C 
ATOM      9  O   UNL     1       2.144   2.435  21.479  0.00  0.00    +0.000 OA
ATOM     10  C   UNL     1       3.354   2.506  20.705  0.00  0.00    +0.000 C 
ATOM     11  C   UNL     1       3.066   2.829  19.230  0.00  0.00    +0.000 C 
ATOM     12  N   UNL     1       2.159   6.350  18.802  0.00  0.00    +0.000 NA
ENDROOT
BRANCH   3  13
ATOM     13  N   UNL     1       5.482   6.110  16.408  0.00  0.00    +0.000 N 
ATOM     14  C   UNL     1       5.324   5.881  14.971  0.00  0.00    +0.000 C 
ATOM     15  C   UNL     1       6.083   4.619  14.542  0.00  0.00    +0.000 C 
ATOM     16  O   UNL     1       7.458   4.658  14.966  0.00  0.00    +0.000 OA
ATOM     17  C   UNL     1       7.531   4.756  16.397  0.00  0.00    +0.000 C 
ATOM     18  C   UNL     1       6.853   6.036  16.916  0.00  0.00    +0.000 C 
ENDBRANCH   3  13
BRANCH   1  22
ATOM     19  C   UNL     1       0.041   9.890  18.277  0.00  0.00    +0.000 A 
ATOM     20  C   UNL     1       0.958  10.628  19.001  0.00  0.00    +0.000 A 
ATOM     21  C   UNL     1       2.132   9.846  19.098  0.00  0.00    +0.000 A 
ATOM     22  C   UNL     1       1.875   8.662  18.437  0.00  0.00    +0.000 A 
ATOM     23  O   UNL     1       0.602   8.690  17.930  0.00  0.00    +0.000 OA
BRANCH  19  28
ATOM     24  C   UNL     1      -5.585  11.986  17.757  0.00  0.00    +0.000 A 
ATOM     25  C   UNL     1      -4.558  12.017  18.673  0.00  0.00    +0.000 A 
ATOM     26  C   UNL     1      -3.486  11.246  18.147  0.00  0.00    +0.000 A 
ATOM     27  C   UNL     1      -2.190  10.930  18.604  0.00  0.00    +0.000 A 
ATOM     28  C   UNL     1      -1.325  10.145  17.817  0.00  0.00    +0.000 A 
ATOM     29  C   UNL     1      -1.795   9.650  16.592  0.00  0.00    +0.000 A 
ATOM     30  C   UNL     1      -3.084   9.940  16.118  0.00  0.00    +0.000 A 
ATOM     31  C   UNL     1      -3.900  10.750  16.913  0.00  0.00    +0.000 A 
ATOM     32  N   UNL     1      -5.179  11.214  16.700  0.00  0.00    +0.000 N 
ATOM     33  H   UNL     1      -5.730  11.019  15.875  0.00  0.00    +0.000 HD
ENDBRANCH  19  28
ENDBRANCH   1  22
TORSDOF 3
ENDMDL
MODEL 3
REMARK VINA RESULT:      -9.1      0.696      1.081
REMARK  Name = 
REMARK  3 active torsions:
REMARK  status: ('A' for Active; 'I' for Inactive)
REMARK    1  A    between atoms: C_5  and  C_6
REMARK    2  A    between atoms: C_9  and  C_10
REMARK    3  A    between atoms: C_12  and  N_13
REMARK                            x       y       z     vdW  Elec       q    Type
REMARK                         _______ _______ _______ _____ _____    ______ ____
ROOT
ATOM      1  C   UNL     1       3.034   6.657  18.394  0.00  0.00    +0.000 A 
ATOM      2  C   UNL     1       4.207   6.485  17.702  0.00  0.00    +0.000 A 
ATOM      3  C   UNL     1       4.711   5.208  17.640  0.00  0.00    +0.000 A 
ATOM      4  N   UNL     1       4.082   4.191  18.262  0.00  0.00    +0.000 NA
ATOM      5  C   UNL     1       2.956   4.433  18.957  0.00  0.00    +0.000 A 
ATOM      6  N   UNL     1       2.312   3.387  19.575  0.00  0.00    +0.000 N 
ATOM      7  C   UNL     1       1.088   3.598  20.350  0.00  0.00    +0.000 C 
ATOM      8  C   UNL     1       1.338   3.313  21.839  0.00  0.00    +0.000 C 
ATOM      9  O   UNL     1       1.921   2.012  22.040  0.00  0.00    +0.000 OA
ATOM     10  C   UNL     1       3.177   1.921  21.347  0.00  0.00    +0.000 C 
ATOM     11  C   UNL     1       3.006   2.126  19.832  0.00  0.00    +0.000 C 
ATOM     12  N   UNL     1       2.412   5.650  19.037  0.00  0.00    +0.000 NA
ENDROOT
BRANCH   3  13
ATOM     13  N   UNL     1       5.845   4.942  16.903  0.00  0.00    +0.000 N 
ATOM     14  C   UNL     1       7.066   5.725  17.093  0.00  0.00    +0.000 C 
ATOM     15  C   UNL     1       7.518   6.346  15.765  0.00  0.00    +0.000 C 
ATOM     16  O   UNL     1       7.631   5.353  14.728  0.00  0.00    +0.000 OA
ATOM     17  C   UNL     1       6.361   4.717  14.513  0.00  0.00    +0.000 C 
ATOM     18  C   UNL     1       5.860   4.003  15.780  0.00  0.00    +0.000 C 
ENDBRANCH   3  13
BRANCH   1  22
ATOM     19  C   UNL     1       1.131   9.490  19.460  0.00  0.00    +0.000 A 
ATOM     20  C   UNL     1       1.433   9.968  18.199  0.00  0.00    +0.000 A 
ATOM     21  C   UNL     1       2.198   8.970  17.552  0.00  0.00    +0.000 A 
ATOM     22  C   UNL     1       2.337   7.932  18.451  0.00  0.00    +0.000 A 
ATOM     23  O   UNL     1       1.682   8.245  19.613  0.00  0.00    +0.000 OA
BRANCH  19  28
ATOM     24  C   UNL     1      -2.689  12.687  22.850  0.00  0.00    +0.000 A 
ATOM     25  C   UNL     1      -2.181  12.715  21.572  0.00  0.00    +0.000 A 
ATOM     26  C   UNL     1      -1.257  11.642  21.450  0.00  0.00    +0.000 A 
ATOM     27  C   UNL     1      -0.452  11.157  20.399  0.00  0.00    +0.000 A 
ATOM     28  C   UNL     1       0.360  10.021  20.585  0.00  0.00    +0.000 A 
ATOM     29  C   UNL     1       0.382   9.411  21.847  0.00  0.00    +0.000 A 
ATOM     30  C   UNL     1      -0.400   9.879  22.914  0.00  0.00    +0.000 A 
ATOM     31  C   UNL     1      -1.217  10.989  22.679  0.00  0.00    +0.000 A 
ATOM     32  N   UNL     1      -2.097  11.644  23.513  0.00  0.00    +0.000 N 
ATOM     33  H   UNL     1      -2.283  11.381  24.471  0.00  0.00    +0.000 HD
ENDBRANCH  19  28
ENDBRANCH   1  22
TORSDOF 3
ENDMDL
MODEL 4
REMARK VINA RESULT:      -8.8      2.376      3.214
REMARK  Name = 
REMARK  3 active torsions:
REMARK  status: ('A' for Active; 'I' for Inactive)
REMARK    1  A    between atoms: C_5  and  C_6
REMARK    2  A    between atoms: C_9  and  C_10
REMARK    3  A    between atoms: C_12  and  N_13
REMARK                            x       y       z     vdW  Elec       q    Type
REMARK                         _______ _______ _______ _____ _____    ______ ____
ROOT
ATOM      1  C   UNL     1       2.576   7.251  19.191  0.00  0.00    +0.000 A 
ATOM      2  C   UNL     1       3.583   7.489  18.289  0.00  0.00    +0.000 A 
ATOM      3  C   UNL     1       4.277   6.396  17.828  0.00  0.00    +0.000 A 
ATOM      4  N   UNL     1       3.985   5.160  18.277  0.00  0.00    +0.000 NA
ATOM      5  C   UNL     1       3.010   4.997  19.190  0.00  0.00    +0.000 A 
ATOM      6  N   UNL     1       2.707   3.730  19.629  0.00  0.00    +0.000 N 
ATOM      7  C   UNL     1       1.662   3.501  20.629  0.00  0.00    +0.000 C 
ATOM      8  C   UNL     1       2.273   2.974  21.936  0.00  0.00    +0.000 C 
ATOM      9  O   UNL     1       3.103   1.821  21.707  0.00  0.00    +0.000 OA
ATOM     10  C   UNL     1       4.177   2.154  20.811  0.00  0.00    +0.000 C 
ATOM     11  C   UNL     1       3.650   2.628  19.446  0.00  0.00    +0.000 C 
ATOM     12  N   UNL     1       2.293   6.021  19.659  0.00  0.00    +0.000 NA
ENDROOT
BRANCH   3  13
ATOM     13  N   UNL     1       5.254   6.545  16.868  0.00  0.00    +0.000 N 
ATOM     14  C   UNL     1       5.026   6.111  15.489  0.00  0.00    +0.000 C 
ATOM     15  C   UNL     1       6.107   5.113  15.055  0.00  0.00    +0.000 C 
ATOM     16  O   UNL     1       7.431   5.636  15.278  0.00  0.00    +0.000 OA
ATOM     17  C   UNL     1       7.620   5.920  16.673  0.00  0.00    +0.000 C 
ATOM     18  C   UNL     1       6.618   6.970  17.183  0.00  0.00    +0.000 C 
ENDBRANCH   3  13
BRANCH   1  22
ATOM     19  C   UNL     1       0.002   9.715  19.495  0.00  0.00    +0.000 A 
ATOM     20  C   UNL     1       0.510   9.858  20.772  0.00  0.00    +0.000 A 
ATOM     21  C   UNL     1       1.596   8.960  20.887  0.00  0.00    +0.000 A 
ATOM     22  C   UNL     1       1.696   8.302  19.679  0.00  0.00    +0.000 A 
ATOM     23  O   UNL     1       0.728   8.765  18.826  0.00  0.00    +0.000 OA
BRANCH  19  28
ATOM     24  C   UNL     1      -4.095  11.154  15.318  0.00  0.00    +0.000 A 
ATOM     25  C   UNL     1      -3.006  10.323  15.444  0.00  0.00    +0.000 A 
ATOM     26  C   UNL     1      -2.454  10.527  16.738  0.00  0.00    +0.000 A 
ATOM     27  C   UNL     1      -1.368   9.964  17.440  0.00  0.00    +0.000 A 
ATOM     28  C   UNL     1      -1.083  10.365  18.759  0.00  0.00    +0.000 A 
ATOM     29  C   UNL     1      -1.875  11.364  19.343  0.00  0.00    +0.000 A 
ATOM     30  C   UNL     1      -2.955  11.949  18.665  0.00  0.00    +0.000 A 
ATOM     31  C   UNL     1      -3.225  11.500  17.368  0.00  0.00    +0.000 A 
ATOM     32  N   UNL     1      -4.216  11.865  16.483  0.00  0.00    +0.000 N 
ATOM     33  H   UNL     1      -4.934  12.551  16.677  0.00  0.00    +0.000 HD
ENDBRANCH  19  28
ENDBRANCH   1  22
TORSDOF 3
ENDMDL
MODEL 5
REMARK VINA RESULT:      -8.6      3.736      9.702
REMARK  Name = 
REMARK  3 active torsions:
REMARK  status: ('A' for Active; 'I' for Inactive)
REMARK    1  A    between atoms: C_5  and  C_6
REMARK    2  A    between atoms: C_9  and  C_10
REMARK    3  A    between atoms: C_12  and  N_13
REMARK                            x       y       z     vdW  Elec       q    Type
REMARK                         _______ _______ _______ _____ _____    ______ ____
ROOT
ATOM      1  C   UNL     1       0.401  10.327  19.441  0.00  0.00    +0.000 A 
ATOM      2  C   UNL     1      -0.829  10.372  18.835  0.00  0.00    +0.000 A 
ATOM      3  C   UNL     1      -1.224  11.581  18.315  0.00  0.00    +0.000 A 
ATOM      4  N   UNL     1      -0.436  12.668  18.433  0.00  0.00    +0.000 NA
ATOM      5  C   UNL     1       0.743  12.567  19.073  0.00  0.00    +0.000 A 
ATOM      6  N   UNL     1       1.548  13.677  19.173  0.00  0.00    +0.000 N 
ATOM      7  C   UNL     1       2.836  13.622  19.868  0.00  0.00    +0.000 C 
ATOM      8  C   UNL     1       2.800  14.485  21.138  0.00  0.00    +0.000 C 
ATOM      9  O   UNL     1       2.363  15.827  20.856  0.00  0.00    +0.000 OA
ATOM     10  C   UNL     1       1.043  15.808  20.288  0.00  0.00    +0.000 C 
ATOM     11  C   UNL     1       1.004  15.018  18.969  0.00  0.00    +0.000 C 
ATOM     12  N   UNL     1       1.184  11.414  19.582  0.00  0.00    +0.000 NA
ENDROOT
BRANCH   3  13
ATOM     13  N   UNL     1      -2.414  11.689  17.628  0.00  0.00    +0.000 N 
ATOM     14  C   UNL     1      -3.675  11.910  18.337  0.00  0.00    +0.000 C 
ATOM     15  C   UNL     1      -4.687  10.812  17.987  0.00  0.00    +0.000 C 
ATOM     16  O   UNL     1      -4.848  10.674  16.563  0.00  0.00    +0.000 OA
ATOM     17  C   UNL     1      -3.593  10.333  15.954  0.00  0.00    +0.000 C 
ATOM     18  C   UNL     1      -2.529  11.419  16.194  0.00  0.00    +0.000 C 
ENDBRANCH   3  13
BRANCH   1  22
ATOM     19  C   UNL     1       2.252   7.285  19.766  0.00  0.00    +0.000 A 
ATOM     20  C   UNL     1       1.742   7.298  21.051  0.00  0.00    +0.000 A 
ATOM     21  C   UNL     1       0.928   8.449  21.160  0.00  0.00    +0.000 A 
ATOM     22  C   UNL     1       0.985   9.092  19.940  0.00  0.00    +0.000 A 
ATOM     23  O   UNL     1       1.787   8.380  19.087  0.00  0.00    +0.000 OA
BRANCH  19  28
ATOM     24  C   UNL     1       6.001   4.872  15.713  0.00  0.00    +0.000 A 
ATOM     25  C   UNL     1       5.244   6.012  15.861  0.00  0.00    +0.000 A 
ATOM     26  C   UNL     1       4.539   5.906  17.091  0.00  0.00    +0.000 A 
ATOM     27  C   UNL     1       3.643   6.748  17.782  0.00  0.00    +0.000 A 
ATOM     28  C   UNL     1       3.121   6.365  19.032  0.00  0.00    +0.000 A 
ATOM     29  C   UNL     1       3.477   5.113  19.553  0.00  0.00    +0.000 A 
ATOM     30  C   UNL     1       4.357   4.250  18.882  0.00  0.00    +0.000 A 
ATOM     31  C   UNL     1       4.880   4.682  17.659  0.00  0.00    +0.000 A 
ATOM     32  N   UNL     1       5.770   4.073  16.802  0.00  0.00    +0.000 N 
ATOM     33  H   UNL     1       6.196   3.170  16.964  0.00  0.00    +0.000 HD
ENDBRANCH  19  28
ENDBRANCH   1  22
TORSDOF 3
ENDMDL
MODEL 6
REMARK VINA RESULT:      -8.4      2.663      3.356
REMARK  Name = 
REMARK  3 active torsions:
REMARK  status: ('A' for Active; 'I' for Inactive)
REMARK    1  A    between atoms: C_5  and  C_6
REMARK    2  A    between atoms: C_9  and  C_10
REMARK    3  A    between atoms: C_12  and  N_13
REMARK                            x       y       z     vdW  Elec       q    Type
REMARK                         _______ _______ _______ _____ _____    ______ ____
ROOT
ATOM      1  C   UNL     1       2.619   7.361  18.091  0.00  0.00    +0.000 A 
ATOM      2  C   UNL     1       3.822   7.365  17.432  0.00  0.00    +0.000 A 
ATOM      3  C   UNL     1       4.473   6.160  17.318  0.00  0.00    +0.000 A 
ATOM      4  N   UNL     1       3.950   5.044  17.862  0.00  0.00    +0.000 NA
ATOM      5  C   UNL     1       2.784   5.114  18.529  0.00  0.00    +0.000 A 
ATOM      6  N   UNL     1       2.249   3.967  19.066  0.00  0.00    +0.000 N 
ATOM      7  C   UNL     1       0.988   3.992  19.809  0.00  0.00    +0.000 C 
ATOM      8  C   UNL     1       1.227   3.651  21.288  0.00  0.00    +0.000 C 
ATOM      9  O   UNL     1       1.951   2.416  21.438  0.00  0.00    +0.000 OA
ATOM     10  C   UNL     1       3.228   2.510  20.785  0.00  0.00    +0.000 C 
ATOM     11  C   UNL     1       3.077   2.782  19.279  0.00  0.00    +0.000 C 
ATOM     12  N   UNL     1       2.101   6.254  18.656  0.00  0.00    +0.000 NA
ENDROOT
BRANCH   3  13
ATOM     13  N   UNL     1       5.651   6.069  16.607  0.00  0.00    +0.000 N 
ATOM     14  C   UNL     1       5.642   5.837  15.162  0.00  0.00    +0.000 C 
ATOM     15  C   UNL     1       6.460   4.587  14.814  0.00  0.00    +0.000 C 
ATOM     16  O   UNL     1       7.785   4.648  15.375  0.00  0.00    +0.000 OA
ATOM     17  C   UNL     1       7.711   4.747  16.806  0.00  0.00    +0.000 C 
ATOM     18  C   UNL     1       6.964   6.016  17.252  0.00  0.00    +0.000 C 
ENDBRANCH   3  13
BRANCH   1  22
ATOM     19  C   UNL     1       1.417  10.696  18.560  0.00  0.00    +0.000 A 
ATOM     20  C   UNL     1       0.205  10.141  18.196  0.00  0.00    +0.000 A 
ATOM     21  C   UNL     1       0.433   8.764  17.969  0.00  0.00    +0.000 A 
ATOM     22  C   UNL     1       1.777   8.543  18.193  0.00  0.00    +0.000 A 
ATOM     23  O   UNL     1       2.377   9.719  18.560  0.00  0.00    +0.000 OA
BRANCH  19  28
ATOM     24  C   UNL     1       3.629  16.300  18.487  0.00  0.00    +0.000 A 
ATOM     25  C   UNL     1       3.604  15.196  17.667  0.00  0.00    +0.000 A 
ATOM     26  C   UNL     1       2.918  14.160  18.358  0.00  0.00    +0.000 A 
ATOM     27  C   UNL     1       2.564  12.833  18.033  0.00  0.00    +0.000 A 
ATOM     28  C   UNL     1       1.837  12.044  18.945  0.00  0.00    +0.000 A 
ATOM     29  C   UNL     1       1.510  12.590  20.194  0.00  0.00    +0.000 A 
ATOM     30  C   UNL     1       1.858  13.902  20.547  0.00  0.00    +0.000 A 
ATOM     31  C   UNL     1       2.552  14.665  19.602  0.00  0.00    +0.000 A 
ATOM     32  N   UNL     1       2.996  15.968  19.656  0.00  0.00    +0.000 N 
ATOM     33  H   UNL     1       2.861  16.588  20.443  0.00  0.00    +0.000 HD
ENDBRANCH  19  28
ENDBRANCH   1  22
TORSDOF 3
ENDMDL
MODEL 7
REMARK VINA RESULT:      -8.3      2.667      3.255
REMARK  Name = 
REMARK  3 active torsions:
REMARK  status: ('A' for Active; 'I' for Inactive)
REMARK    1  A    between atoms: C_5  and  C_6
REMARK    2  A    between atoms: C_9  and  C_10
REMARK    3  A    between atoms: C_12  and  N_13
REMARK                            x       y       z     vdW  Elec       q    Type
REMARK                         _______ _______ _______ _____ _____    ______ ____
ROOT
ATOM      1  C   UNL     1       2.414   7.685  18.686  0.00  0.00    +0.000 A 
ATOM      2  C   UNL     1       3.526   7.810  17.892  0.00  0.00    +0.000 A 
ATOM      3  C   UNL     1       4.166   6.649  17.529  0.00  0.00    +0.000 A 
ATOM      4  N   UNL     1       3.721   5.455  17.968  0.00  0.00    +0.000 NA
ATOM      5  C   UNL     1       2.646   5.403  18.776  0.00  0.00    +0.000 A 
ATOM      6  N   UNL     1       2.189   4.180  19.205  0.00  0.00    +0.000 N 
ATOM      7  C   UNL     1       1.029   4.070  20.092  0.00  0.00    +0.000 C 
ATOM      8  C   UNL     1       1.451   3.530  21.467  0.00  0.00    +0.000 C 
ATOM      9  O   UNL     1       2.196   2.304  21.350  0.00  0.00    +0.000 OA
ATOM     10  C   UNL     1       3.383   2.519  20.567  0.00  0.00    +0.000 C 
ATOM     11  C   UNL     1       3.045   2.996  19.145  0.00  0.00    +0.000 C 
ATOM     12  N   UNL     1       1.976   6.498  19.146  0.00  0.00    +0.000 NA
ENDROOT
BRANCH   3  13
ATOM     13  N   UNL     1       5.247   6.687  16.675  0.00  0.00    +0.000 N 
ATOM     14  C   UNL     1       5.126   6.236  15.288  0.00  0.00    +0.000 C 
ATOM     15  C   UNL     1       6.154   5.137  14.989  0.00  0.00    +0.000 C 
ATOM     16  O   UNL     1       7.488   5.549  15.342  0.00  0.00    +0.000 OA
ATOM     17  C   UNL     1       7.555   5.852  16.745  0.00  0.00    +0.000 C 
ATOM     18  C   UNL     1       6.604   6.999  17.126  0.00  0.00    +0.000 C 
ENDBRANCH   3  13
BRANCH   1  22
ATOM     19  C   UNL     1       1.069  10.973  19.096  0.00  0.00    +0.000 A 
ATOM     20  C   UNL     1       0.049  10.303  19.744  0.00  0.00    +0.000 A 
ATOM     21  C   UNL     1       0.381   8.929  19.725  0.00  0.00    +0.000 A 
ATOM     22  C   UNL     1       1.583   8.821  19.056  0.00  0.00    +0.000 A 
ATOM     23  O   UNL     1       2.008  10.067  18.677  0.00  0.00    +0.000 OA
BRANCH  19  28
ATOM     24  C   UNL     1       0.603  16.965  18.665  0.00  0.00    +0.000 A 
ATOM     25  C   UNL     1      -0.195  15.894  18.997  0.00  0.00    +0.000 A 
ATOM     26  C   UNL     1       0.578  14.712  18.835  0.00  0.00    +0.000 A 
ATOM     27  C   UNL     1       0.323  13.340  19.036  0.00  0.00    +0.000 A 
ATOM     28  C   UNL     1       1.332  12.384  18.810  0.00  0.00    +0.000 A 
ATOM     29  C   UNL     1       2.579  12.822  18.342  0.00  0.00    +0.000 A 
ATOM     30  C   UNL     1       2.857  14.180  18.123  0.00  0.00    +0.000 A 
ATOM     31  C   UNL     1       1.838  15.101  18.390  0.00  0.00    +0.000 A 
ATOM     32  N   UNL     1       1.828  16.475  18.295  0.00  0.00    +0.000 N 
ATOM     33  H   UNL     1       2.617  17.036  18.004  0.00  0.00    +0.000 HD
ENDBRANCH  19  28
ENDBRANCH   1  22
TORSDOF 3
ENDMDL
MODEL 8
REMARK VINA RESULT:      -8.3      2.293      2.910
REMARK  Name = 
REMARK  3 active torsions:
REMARK  status: ('A' for Active; 'I' for Inactive)
REMARK    1  A    between atoms: C_5  and  C_6
REMARK    2  A    between atoms: C_9  and  C_10
REMARK    3  A    between atoms: C_12  and  N_13
REMARK                            x       y       z     vdW  Elec       q    Type
REMARK                         _______ _______ _______ _____ _____    ______ ____
ROOT
ATOM      1  C   UNL     1       2.434   7.192  18.873  0.00  0.00    +0.000 A 
ATOM      2  C   UNL     1       3.566   7.465  18.148  0.00  0.00    +0.000 A 
ATOM      3  C   UNL     1       4.118   6.424  17.440  0.00  0.00    +0.000 A 
ATOM      4  N   UNL     1       3.573   5.192  17.495  0.00  0.00    +0.000 NA
ATOM      5  C   UNL     1       2.484   4.982  18.255  0.00  0.00    +0.000 A 
ATOM      6  N   UNL     1       1.924   3.726  18.292  0.00  0.00    +0.000 N 
ATOM      7  C   UNL     1       0.744   3.443  19.111  0.00  0.00    +0.000 C 
ATOM      8  C   UNL     1       1.099   2.475  20.250  0.00  0.00    +0.000 C 
ATOM      9  O   UNL     1       1.747   1.289  19.756  0.00  0.00    +0.000 OA
ATOM     10  C   UNL     1       2.960   1.637  19.068  0.00  0.00    +0.000 C 
ATOM     11  C   UNL     1       2.685   2.554  17.864  0.00  0.00    +0.000 C 
ATOM     12  N   UNL     1       1.896   5.960  18.949  0.00  0.00    +0.000 NA
ENDROOT
BRANCH   3  13
ATOM     13  N   UNL     1       5.214   6.634  16.631  0.00  0.00    +0.000 N 
ATOM     14  C   UNL     1       5.272   6.070  15.282  0.00  0.00    +0.000 C 
ATOM     15  C   UNL     1       6.526   5.203  15.116  0.00  0.00    +0.000 C 
ATOM     16  O   UNL     1       7.719   5.919  15.489  0.00  0.00    +0.000 OA
ATOM     17  C   UNL     1       7.640   6.329  16.863  0.00  0.00    +0.000 C 
ATOM     18  C   UNL     1       6.445   7.266  17.110  0.00  0.00    +0.000 C 
ENDBRANCH   3  13
BRANCH   1  22
ATOM     19  C   UNL     1       0.068   9.716  19.778  0.00  0.00    +0.000 A 
ATOM     20  C   UNL     1       0.753   9.703  20.978  0.00  0.00    +0.000 A 
ATOM     21  C   UNL     1       1.793   8.754  20.850  0.00  0.00    +0.000 A 
ATOM     22  C   UNL     1       1.689   8.222  19.581  0.00  0.00    +0.000 A 
ATOM     23  O   UNL     1       0.642   8.812  18.923  0.00  0.00    +0.000 OA
BRANCH  19  28
ATOM     24  C   UNL     1      -4.644  11.599  16.529  0.00  0.00    +0.000 A 
ATOM     25  C   UNL     1      -3.655  10.646  16.446  0.00  0.00    +0.000 A 
ATOM     26  C   UNL     1      -2.816  10.793  17.585  0.00  0.00    +0.000 A 
ATOM     27  C   UNL     1      -1.676  10.110  18.056  0.00  0.00    +0.000 A 
ATOM     28  C   UNL     1      -1.069  10.484  19.271  0.00  0.00    +0.000 A 
ATOM     29  C   UNL     1      -1.598  11.574  19.977  0.00  0.00    +0.000 A 
ATOM     30  C   UNL     1      -2.725  12.277  19.527  0.00  0.00    +0.000 A 
ATOM     31  C   UNL     1      -3.318  11.854  18.333  0.00  0.00    +0.000 A 
ATOM     32  N   UNL     1      -4.429  12.327  17.669  0.00  0.00    +0.000 N 
ATOM     33  H   UNL     1      -5.005  13.094  17.989  0.00  0.00    +0.000 HD
ENDBRANCH  19  28
ENDBRANCH   1  22
TORSDOF 3
ENDMDL
MODEL 9
REMARK VINA RESULT:      -8.3      3.650     10.023
REMARK  Name = 
REMARK  3 active torsions:
REMARK  status: ('A' for Active; 'I' for Inactive)
REMARK    1  A    between atoms: C_5  and  C_6
REMARK    2  A    between atoms: C_9  and  C_10
REMARK    3  A    between atoms: C_12  and  N_13
REMARK                            x       y       z     vdW  Elec       q    Type
REMARK                         _______ _______ _______ _____ _____    ______ ____
ROOT
ATOM      1  C   UNL     1       0.262  10.558  19.603  0.00  0.00    +0.000 A 
ATOM      2  C   UNL     1      -1.093  10.697  19.434  0.00  0.00    +0.000 A 
ATOM      3  C   UNL     1      -1.544  11.924  19.008  0.00  0.00    +0.000 A 
ATOM      4  N   UNL     1      -0.682  12.938  18.801  0.00  0.00    +0.000 NA
ATOM      5  C   UNL     1       0.632  12.747  19.021  0.00  0.00    +0.000 A 
ATOM      6  N   UNL     1       1.507  13.783  18.791  0.00  0.00    +0.000 N 
ATOM      7  C   UNL     1       2.944  13.629  19.024  0.00  0.00    +0.000 C 
ATOM      8  C   UNL     1       3.400  14.525  20.187  0.00  0.00    +0.000 C 
ATOM      9  O   UNL     1       2.998  15.893  19.992  0.00  0.00    +0.000 OA
ATOM     10  C   UNL     1       1.566  15.978  19.892  0.00  0.00    +0.000 C 
ATOM     11  C   UNL     1       1.031  15.162  18.704  0.00  0.00    +0.000 C 
ATOM     12  N   UNL     1       1.127  11.573  19.418  0.00  0.00    +0.000 NA
ENDROOT
BRANCH   3  13
ATOM     13  N   UNL     1      -2.883  12.121  18.746  0.00  0.00    +0.000 N 
ATOM     14  C   UNL     1      -3.754  12.769  19.727  0.00  0.00    +0.000 C 
ATOM     15  C   UNL     1      -4.945  11.865  20.069  0.00  0.00    +0.000 C 
ATOM     16  O   UNL     1      -5.640  11.434  18.884  0.00  0.00    +0.000 OA
ATOM     17  C   UNL     1      -4.750  10.696  18.030  0.00  0.00    +0.000 C 
ATOM     18  C   UNL     1      -3.555  11.552  17.577  0.00  0.00    +0.000 C 
ENDBRANCH   3  13
BRANCH   1  22
ATOM     19  C   UNL     1       2.043   7.460  19.492  0.00  0.00    +0.000 A 
ATOM     20  C   UNL     1       1.759   7.430  20.844  0.00  0.00    +0.000 A 
ATOM     21  C   UNL     1       1.012   8.595  21.134  0.00  0.00    +0.000 A 
ATOM     22  C   UNL     1       0.882   9.288  19.947  0.00  0.00    +0.000 A 
ATOM     23  O   UNL     1       1.505   8.594  18.943  0.00  0.00    +0.000 OA
BRANCH  19  28
ATOM     24  C   UNL     1       5.871   5.136  15.460  0.00  0.00    +0.000 A 
ATOM     25  C   UNL     1       5.529   6.372  15.957  0.00  0.00    +0.000 A 
ATOM     26  C   UNL     1       4.474   6.186  16.891  0.00  0.00    +0.000 A 
ATOM     27  C   UNL     1       3.736   7.055  17.722  0.00  0.00    +0.000 A 
ATOM     28  C   UNL     1       2.745   6.550  18.586  0.00  0.00    +0.000 A 
ATOM     29  C   UNL     1       2.481   5.173  18.571  0.00  0.00    +0.000 A 
ATOM     30  C   UNL     1       3.192   4.287  17.748  0.00  0.00    +0.000 A 
ATOM     31  C   UNL     1       4.190   4.824  16.928  0.00  0.00    +0.000 A 
ATOM     32  N   UNL     1       5.053   4.208  16.049  0.00  0.00    +0.000 N 
ATOM     33  H   UNL     1       5.081   3.212  15.877  0.00  0.00    +0.000 HD
ENDBRANCH  19  28
ENDBRANCH   1  22
TORSDOF 3
ENDMDL
