MODEL 1
REMARK VINA RESULT:      -7.9      0.000      0.000
REMARK  Name = 
REMARK  1 active torsions:
REMARK  status: ('A' for Active; 'I' for Inactive)
REMARK    1  A    between atoms: C_10  and  N_11
REMARK                            x       y       z     vdW  Elec       q    Type
REMARK                         _______ _______ _______ _____ _____    ______ ____
ROOT
ATOM      1  N   UNL     1       2.921   7.362  18.057  0.00  0.00    +0.000 N 
ATOM      2  C   UNL     1       2.163   8.046  18.937  0.00  0.00    +0.000 A 
ATOM      3  N   UNL     1       1.998   7.836  20.220  0.00  0.00    +0.000 NA
ATOM      4  C   UNL     1       1.128   8.812  20.648  0.00  0.00    +0.000 A 
ATOM      5  C   UNL     1       0.625   9.069  21.931  0.00  0.00    +0.000 A 
ATOM      6  C   UNL     1      -0.298  10.111  22.096  0.00  0.00    +0.000 A 
ATOM      7  C   UNL     1      -0.706  10.883  21.005  0.00  0.00    +0.000 A 
ATOM      8  C   UNL     1      -0.198  10.656  19.721  0.00  0.00    +0.000 A 
ATOM      9  C   UNL     1       0.724   9.615  19.587  0.00  0.00    +0.000 A 
ATOM     10  N   UNL     1       1.422   9.121  18.517  0.00  0.00    +0.000 N 
ATOM     11  H   UNL     1       3.000   7.630  17.084  0.00  0.00    +0.000 HD
ATOM     12  H   UNL     1       1.371   9.454  17.569  0.00  0.00    +0.000 HD
ENDROOT
BRANCH   1  22
ATOM     13  C   UNL     1       6.714   4.762  16.034  0.00  0.00    +0.000 A 
ATOM     14  C   UNL     1       6.698   5.976  16.714  0.00  0.00    +0.000 A 
ATOM     15  C   UNL     1       5.569   6.349  17.442  0.00  0.00    +0.000 A 
ATOM     16  C   UNL     1       4.430   5.525  17.489  0.00  0.00    +0.000 A 
ATOM     17  C   UNL     1       4.468   4.279  16.829  0.00  0.00    +0.000 A 
ATOM     18  C   UNL     1       5.607   3.919  16.091  0.00  0.00    +0.000 A 
ATOM     19  C   UNL     1       3.297   3.328  16.853  0.00  0.00    +0.000 C 
ATOM     20  C   UNL     1       2.297   3.635  17.963  0.00  0.00    +0.000 C 
ATOM     21  C   UNL     1       1.971   5.121  17.980  0.00  0.00    +0.000 C 
ATOM     22  C   UNL     1       3.222   5.956  18.316  0.00  0.00    +0.000 C 
ENDBRANCH   1  22
TORSDOF 1
ENDMDL
MODEL 2
REMARK VINA RESULT:      -7.7      1.319      1.977
REMARK  Name = 
REMARK  1 active torsions:
REMARK  status: ('A' for Active; 'I' for Inactive)
REMARK    1  A    between atoms: C_10  and  N_11
REMARK                            x       y       z     vdW  Elec       q    Type
REMARK                         _______ _______ _______ _____ _____    ______ ____
ROOT
ATOM      1  N   UNL     1       2.293   7.447  19.543  0.00  0.00    +0.000 N 
ATOM      2  C   UNL     1       1.533   8.248  20.317  0.00  0.00    +0.000 A 
ATOM      3  N   UNL     1       1.284   8.160  21.600  0.00  0.00    +0.000 NA
ATOM      4  C   UNL     1       0.458   9.218  21.893  0.00  0.00    +0.000 A 
ATOM      5  C   UNL     1      -0.098   9.614  23.118  0.00  0.00    +0.000 A 
ATOM      6  C   UNL     1      -0.959  10.720  23.141  0.00  0.00    +0.000 A 
ATOM      7  C   UNL     1      -1.256  11.418  21.967  0.00  0.00    +0.000 A 
ATOM      8  C   UNL     1      -0.695  11.052  20.739  0.00  0.00    +0.000 A 
ATOM      9  C   UNL     1       0.165   9.950  20.748  0.00  0.00    +0.000 A 
ATOM     10  N   UNL     1       0.887   9.325  19.765  0.00  0.00    +0.000 N 
ATOM     11  H   UNL     1       2.442   7.625  18.557  0.00  0.00    +0.000 HD
ATOM     12  H   UNL     1       0.910   9.578  18.792  0.00  0.00    +0.000 HD
ENDROOT
BRANCH   1  22
ATOM     13  C   UNL     1       4.285   3.850  16.656  0.00  0.00    +0.000 A 
ATOM     14  C   UNL     1       4.756   5.113  16.999  0.00  0.00    +0.000 A 
ATOM     15  C   UNL     1       4.169   5.812  18.052  0.00  0.00    +0.000 A 
ATOM     16  C   UNL     1       3.088   5.269  18.772  0.00  0.00    +0.000 A 
ATOM     17  C   UNL     1       2.641   3.972  18.445  0.00  0.00    +0.000 A 
ATOM     18  C   UNL     1       3.234   3.283  17.375  0.00  0.00    +0.000 A 
ATOM     19  C   UNL     1       1.506   3.310  19.185  0.00  0.00    +0.000 C 
ATOM     20  C   UNL     1       1.203   3.964  20.529  0.00  0.00    +0.000 C 
ATOM     21  C   UNL     1       1.128   5.476  20.372  0.00  0.00    +0.000 C 
ATOM     22  C   UNL     1       2.488   6.053  19.935  0.00  0.00    +0.000 C 
ENDBRANCH   1  22
TORSDOF 1
ENDMDL
MODEL 3
REMARK VINA RESULT:      -7.5      3.611      7.754
REMARK  Name = 
REMARK  1 active torsions:
REMARK  status: ('A' for Active; 'I' for Inactive)
REMARK    1  A    between atoms: C_10  and  N_11
REMARK                            x       y       z     vdW  Elec       q    Type
REMARK                         _______ _______ _______ _____ _____    ______ ____
ROOT
ATOM      1  N   UNL     1       4.961   3.652  17.189  0.00  0.00    +0.000 N 
ATOM      2  C   UNL     1       5.620   3.970  16.056  0.00  0.00    +0.000 A 
ATOM      3  N   UNL     1       6.465   4.948  15.841  0.00  0.00    +0.000 NA
ATOM      4  C   UNL     1       6.845   4.829  14.525  0.00  0.00    +0.000 A 
ATOM      5  C   UNL     1       7.746   5.599  13.776  0.00  0.00    +0.000 A 
ATOM      6  C   UNL     1       7.925   5.294  12.420  0.00  0.00    +0.000 A 
ATOM      7  C   UNL     1       7.224   4.242  11.825  0.00  0.00    +0.000 A 
ATOM      8  C   UNL     1       6.337   3.449  12.561  0.00  0.00    +0.000 A 
ATOM      9  C   UNL     1       6.183   3.771  13.912  0.00  0.00    +0.000 A 
ATOM     10  N   UNL     1       5.431   3.226  14.920  0.00  0.00    +0.000 N 
ATOM     11  H   UNL     1       4.346   2.851  17.254  0.00  0.00    +0.000 HD
ATOM     12  H   UNL     1       4.809   2.440  14.838  0.00  0.00    +0.000 HD
ENDROOT
BRANCH   1  22
ATOM     13  C   UNL     1       2.327   3.062  21.426  0.00  0.00    +0.000 A 
ATOM     14  C   UNL     1       3.414   2.357  20.920  0.00  0.00    +0.000 A 
ATOM     15  C   UNL     1       4.163   2.892  19.872  0.00  0.00    +0.000 A 
ATOM     16  C   UNL     1       3.827   4.133  19.300  0.00  0.00    +0.000 A 
ATOM     17  C   UNL     1       2.748   4.860  19.844  0.00  0.00    +0.000 A 
ATOM     18  C   UNL     1       1.996   4.305  20.892  0.00  0.00    +0.000 A 
ATOM     19  C   UNL     1       2.342   6.209  19.303  0.00  0.00    +0.000 C 
ATOM     20  C   UNL     1       3.426   6.867  18.456  0.00  0.00    +0.000 C 
ATOM     21  C   UNL     1       3.986   5.868  17.453  0.00  0.00    +0.000 C 
ATOM     22  C   UNL     1       4.685   4.698  18.172  0.00  0.00    +0.000 C 
ENDBRANCH   1  22
TORSDOF 1
ENDMDL
MODEL 4
REMARK VINA RESULT:      -7.4      1.877      7.330
REMARK  Name = 
REMARK  1 active torsions:
REMARK  status: ('A' for Active; 'I' for Inactive)
REMARK    1  A    between atoms: C_10  and  N_11
REMARK                            x       y       z     vdW  Elec       q    Type
REMARK                         _______ _______ _______ _____ _____    ______ ____
ROOT
ATOM      1  N   UNL     1       1.557   6.867  20.829  0.00  0.00    +0.000 N 
ATOM      2  C   UNL     1       2.072   5.839  20.126  0.00  0.00    +0.000 A 
ATOM      3  N   UNL     1       3.128   5.818  19.349  0.00  0.00    +0.000 NA
ATOM      4  C   UNL     1       3.216   4.531  18.875  0.00  0.00    +0.000 A 
ATOM      5  C   UNL     1       4.165   3.949  18.022  0.00  0.00    +0.000 A 
ATOM      6  C   UNL     1       4.000   2.609  17.647  0.00  0.00    +0.000 A 
ATOM      7  C   UNL     1       2.915   1.863  18.116  0.00  0.00    +0.000 A 
ATOM      8  C   UNL     1       1.970   2.420  18.984  0.00  0.00    +0.000 A 
ATOM      9  C   UNL     1       2.162   3.756  19.346  0.00  0.00    +0.000 A 
ATOM     10  N   UNL     1       1.467   4.609  20.163  0.00  0.00    +0.000 N 
ATOM     11  H   UNL     1       0.745   6.766  21.425  0.00  0.00    +0.000 HD
ATOM     12  H   UNL     1       0.627   4.391  20.673  0.00  0.00    +0.000 HD
ENDROOT
BRANCH   1  22
ATOM     13  C   UNL     1      -0.914  10.948  22.404  0.00  0.00    +0.000 A 
ATOM     14  C   UNL     1      -0.256   9.948  23.112  0.00  0.00    +0.000 A 
ATOM     15  C   UNL     1       0.610   9.081  22.447  0.00  0.00    +0.000 A 
ATOM     16  C   UNL     1       0.820   9.186  21.060  0.00  0.00    +0.000 A 
ATOM     17  C   UNL     1       0.180  10.227  20.355  0.00  0.00    +0.000 A 
ATOM     18  C   UNL     1      -0.697  11.087  21.035  0.00  0.00    +0.000 A 
ATOM     19  C   UNL     1       0.374  10.422  18.872  0.00  0.00    +0.000 C 
ATOM     20  C   UNL     1       1.603   9.701  18.327  0.00  0.00    +0.000 C 
ATOM     21  C   UNL     1       1.641   8.268  18.839  0.00  0.00    +0.000 C 
ATOM     22  C   UNL     1       1.795   8.235  20.372  0.00  0.00    +0.000 C 
ENDBRANCH   1  22
TORSDOF 1
ENDMDL
MODEL 5
REMARK VINA RESULT:      -7.3      1.626      3.117
REMARK  Name = 
REMARK  1 active torsions:
REMARK  status: ('A' for Active; 'I' for Inactive)
REMARK    1  A    between atoms: C_10  and  N_11
REMARK                            x       y       z     vdW  Elec       q    Type
REMARK                         _______ _______ _______ _____ _____    ______ ____
ROOT
ATOM      1  N   UNL     1       3.772   4.240  18.935  0.00  0.00    +0.000 N 
ATOM      2  C   UNL     1       3.162   5.441  18.990  0.00  0.00    +0.000 A 
ATOM      3  N   UNL     1       2.971   6.313  18.030  0.00  0.00    +0.000 NA
ATOM      4  C   UNL     1       2.303   7.365  18.611  0.00  0.00    +0.000 A 
ATOM      5  C   UNL     1       1.832   8.557  18.041  0.00  0.00    +0.000 A 
ATOM      6  C   UNL     1       1.215   9.502  18.871  0.00  0.00    +0.000 A 
ATOM      7  C   UNL     1       1.066   9.262  20.240  0.00  0.00    +0.000 A 
ATOM      8  C   UNL     1       1.510   8.070  20.823  0.00  0.00    +0.000 A 
ATOM      9  C   UNL     1       2.116   7.143  19.971  0.00  0.00    +0.000 A 
ATOM     10  N   UNL     1       2.648   5.897  20.177  0.00  0.00    +0.000 N 
ATOM     11  H   UNL     1       3.841   3.628  19.739  0.00  0.00    +0.000 HD
ATOM     12  H   UNL     1       2.699   5.411  21.055  0.00  0.00    +0.000 HD
ENDROOT
BRANCH   1  22
ATOM     13  C   UNL     1       8.071   6.792  18.446  0.00  0.00    +0.000 A 
ATOM     14  C   UNL     1       7.513   6.144  19.543  0.00  0.00    +0.000 A 
ATOM     15  C   UNL     1       6.457   5.252  19.360  0.00  0.00    +0.000 A 
ATOM     16  C   UNL     1       5.929   5.005  18.079  0.00  0.00    +0.000 A 
ATOM     17  C   UNL     1       6.527   5.634  16.967  0.00  0.00    +0.000 A 
ATOM     18  C   UNL     1       7.582   6.539  17.167  0.00  0.00    +0.000 A 
ATOM     19  C   UNL     1       6.036   5.401  15.560  0.00  0.00    +0.000 C 
ATOM     20  C   UNL     1       5.172   4.151  15.424  0.00  0.00    +0.000 C 
ATOM     21  C   UNL     1       4.126   4.115  16.529  0.00  0.00    +0.000 C 
ATOM     22  C   UNL     1       4.790   4.003  17.914  0.00  0.00    +0.000 C 
ENDBRANCH   1  22
TORSDOF 1
ENDMDL
MODEL 6
REMARK VINA RESULT:      -7.2      1.154      1.419
REMARK  Name = 
REMARK  1 active torsions:
REMARK  status: ('A' for Active; 'I' for Inactive)
REMARK    1  A    between atoms: C_10  and  N_11
REMARK                            x       y       z     vdW  Elec       q    Type
REMARK                         _______ _______ _______ _____ _____    ______ ____
ROOT
ATOM      1  N   UNL     1       2.566   8.038  17.744  0.00  0.00    +0.000 N 
ATOM      2  C   UNL     1       1.716   8.852  18.402  0.00  0.00    +0.000 A 
ATOM      3  N   UNL     1       1.616   9.072  19.690  0.00  0.00    +0.000 NA
ATOM      4  C   UNL     1       0.595   9.982  19.834  0.00  0.00    +0.000 A 
ATOM      5  C   UNL     1       0.080  10.580  20.993  0.00  0.00    +0.000 A 
ATOM      6  C   UNL     1      -1.010  11.452  20.872  0.00  0.00    +0.000 A 
ATOM      7  C   UNL     1      -1.571  11.726  19.622  0.00  0.00    +0.000 A 
ATOM      8  C   UNL     1      -1.057  11.156  18.452  0.00  0.00    +0.000 A 
ATOM      9  C   UNL     1       0.033  10.295  18.602  0.00  0.00    +0.000 A 
ATOM     10  N   UNL     1       0.787   9.582  17.706  0.00  0.00    +0.000 N 
ATOM     11  H   UNL     1       2.576   7.964  16.734  0.00  0.00    +0.000 HD
ATOM     12  H   UNL     1       0.658   9.557  16.709  0.00  0.00    +0.000 HD
ENDROOT
BRANCH   1  22
ATOM     13  C   UNL     1       5.459   4.501  15.656  0.00  0.00    +0.000 A 
ATOM     14  C   UNL     1       5.578   5.886  15.673  0.00  0.00    +0.000 A 
ATOM     15  C   UNL     1       4.819   6.638  16.569  0.00  0.00    +0.000 A 
ATOM     16  C   UNL     1       3.914   6.020  17.451  0.00  0.00    +0.000 A 
ATOM     17  C   UNL     1       3.826   4.613  17.456  0.00  0.00    +0.000 A 
ATOM     18  C   UNL     1       4.589   3.868  16.542  0.00  0.00    +0.000 A 
ATOM     19  C   UNL     1       2.899   3.874  18.389  0.00  0.00    +0.000 C 
ATOM     20  C   UNL     1       2.424   4.726  19.561  0.00  0.00    +0.000 C 
ATOM     21  C   UNL     1       1.954   6.086  19.065  0.00  0.00    +0.000 C 
ATOM     22  C   UNL     1       3.118   6.874  18.434  0.00  0.00    +0.000 C 
ENDBRANCH   1  22
TORSDOF 1
ENDMDL
MODEL 7
REMARK VINA RESULT:      -7.1      1.190      7.309
REMARK  Name = 
REMARK  1 active torsions:
REMARK  status: ('A' for Active; 'I' for Inactive)
REMARK    1  A    between atoms: C_10  and  N_11
REMARK                            x       y       z     vdW  Elec       q    Type
REMARK                         _______ _______ _______ _____ _____    ______ ____
ROOT
ATOM      1  N   UNL     1       2.091   7.448  19.595  0.00  0.00    +0.000 N 
ATOM      2  C   UNL     1       2.899   6.887  18.674  0.00  0.00    +0.000 A 
ATOM      3  N   UNL     1       3.759   7.464  17.871  0.00  0.00    +0.000 NA
ATOM      4  C   UNL     1       4.321   6.447  17.135  0.00  0.00    +0.000 A 
ATOM      5  C   UNL     1       5.313   6.496  16.145  0.00  0.00    +0.000 A 
ATOM      6  C   UNL     1       5.683   5.305  15.504  0.00  0.00    +0.000 A 
ATOM      7  C   UNL     1       5.080   4.092  15.847  0.00  0.00    +0.000 A 
ATOM      8  C   UNL     1       4.104   4.020  16.847  0.00  0.00    +0.000 A 
ATOM      9  C   UNL     1       3.759   5.222  17.473  0.00  0.00    +0.000 A 
ATOM     10  N   UNL     1       2.877   5.530  18.476  0.00  0.00    +0.000 N 
ATOM     11  H   UNL     1       1.478   6.900  20.187  0.00  0.00    +0.000 HD
ATOM     12  H   UNL     1       2.278   4.883  18.959  0.00  0.00    +0.000 HD
ENDROOT
BRANCH   1  22
ATOM     13  C   UNL     1      -0.551  10.133  22.919  0.00  0.00    +0.000 A 
ATOM     14  C   UNL     1       0.622   9.399  23.063  0.00  0.00    +0.000 A 
ATOM     15  C   UNL     1       1.326   8.987  21.932  0.00  0.00    +0.000 A 
ATOM     16  C   UNL     1       0.861   9.285  20.638  0.00  0.00    +0.000 A 
ATOM     17  C   UNL     1      -0.308  10.062  20.501  0.00  0.00    +0.000 A 
ATOM     18  C   UNL     1      -1.013  10.462  21.647  0.00  0.00    +0.000 A 
ATOM     19  C   UNL     1      -0.857  10.444  19.149  0.00  0.00    +0.000 C 
ATOM     20  C   UNL     1       0.161  10.294  18.023  0.00  0.00    +0.000 C 
ATOM     21  C   UNL     1       0.857   8.944  18.122  0.00  0.00    +0.000 C 
ATOM     22  C   UNL     1       1.672   8.838  19.425  0.00  0.00    +0.000 C 
ENDBRANCH   1  22
TORSDOF 1
ENDMDL
MODEL 8
REMARK VINA RESULT:      -7.1      6.268      9.289
REMARK  Name = 
REMARK  1 active torsions:
REMARK  status: ('A' for Active; 'I' for Inactive)
REMARK    1  A    between atoms: C_10  and  N_11
REMARK                            x       y       z     vdW  Elec       q    Type
REMARK                         _______ _______ _______ _____ _____    ______ ____
ROOT
ATOM      1  N   UNL     1       8.602  10.415  18.225  0.00  0.00    +0.000 N 
ATOM      2  C   UNL     1       8.266   9.110  18.184  0.00  0.00    +0.000 A 
ATOM      3  N   UNL     1       8.684   8.127  18.943  0.00  0.00    +0.000 NA
ATOM      4  C   UNL     1       8.038   7.002  18.485  0.00  0.00    +0.000 A 
ATOM      5  C   UNL     1       8.098   5.679  18.947  0.00  0.00    +0.000 A 
ATOM      6  C   UNL     1       7.368   4.696  18.267  0.00  0.00    +0.000 A 
ATOM      7  C   UNL     1       6.590   5.025  17.153  0.00  0.00    +0.000 A 
ATOM      8  C   UNL     1       6.501   6.343  16.691  0.00  0.00    +0.000 A 
ATOM      9  C   UNL     1       7.235   7.303  17.392  0.00  0.00    +0.000 A 
ATOM     10  N   UNL     1       7.378   8.658  17.241  0.00  0.00    +0.000 N 
ATOM     11  H   UNL     1       8.194  11.101  17.602  0.00  0.00    +0.000 HD
ATOM     12  H   UNL     1       6.945   9.226  16.533  0.00  0.00    +0.000 HD
ENDROOT
BRANCH   1  22
ATOM     13  C   UNL     1       9.332  13.325  22.255  0.00  0.00    +0.000 A 
ATOM     14  C   UNL     1       8.564  12.178  22.083  0.00  0.00    +0.000 A 
ATOM     15  C   UNL     1       8.754  11.377  20.958  0.00  0.00    +0.000 A 
ATOM     16  C   UNL     1       9.704  11.716  19.976  0.00  0.00    +0.000 A 
ATOM     17  C   UNL     1      10.506  12.858  20.177  0.00  0.00    +0.000 A 
ATOM     18  C   UNL     1      10.298  13.663  21.309  0.00  0.00    +0.000 A 
ATOM     19  C   UNL     1      11.563  13.274  19.184  0.00  0.00    +0.000 C 
ATOM     20  C   UNL     1      11.957  12.157  18.222  0.00  0.00    +0.000 C 
ATOM     21  C   UNL     1      10.712  11.489  17.657  0.00  0.00    +0.000 C 
ATOM     22  C   UNL     1       9.901  10.801  18.772  0.00  0.00    +0.000 C 
ENDBRANCH   1  22
TORSDOF 1
ENDMDL
MODEL 9
REMARK VINA RESULT:      -7.0      3.771      5.222
REMARK  Name = 
REMARK  1 active torsions:
REMARK  status: ('A' for Active; 'I' for Inactive)
REMARK    1  A    between atoms: C_10  and  N_11
REMARK                            x       y       z     vdW  Elec       q    Type
REMARK                         _______ _______ _______ _____ _____    ______ ____
ROOT
ATOM      1  N   UNL     1       5.459   2.862  17.023  0.00  0.00    +0.000 N 
ATOM      2  C   UNL     1       4.466   3.159  17.884  0.00  0.00    +0.000 A 
ATOM      3  N   UNL     1       3.560   4.103  17.803  0.00  0.00    +0.000 NA
ATOM      4  C   UNL     1       2.788   3.976  18.934  0.00  0.00    +0.000 A 
ATOM      5  C   UNL     1       1.668   4.712  19.347  0.00  0.00    +0.000 A 
ATOM      6  C   UNL     1       1.081   4.408  20.582  0.00  0.00    +0.000 A 
ATOM      7  C   UNL     1       1.597   3.389  21.387  0.00  0.00    +0.000 A 
ATOM      8  C   UNL     1       2.700   2.629  20.983  0.00  0.00    +0.000 A 
ATOM      9  C   UNL     1       3.261   2.950  19.744  0.00  0.00    +0.000 A 
ATOM     10  N   UNL     1       4.313   2.430  19.035  0.00  0.00    +0.000 N 
ATOM     11  H   UNL     1       6.093   2.086  17.171  0.00  0.00    +0.000 HD
ATOM     12  H   UNL     1       4.906   1.671  19.324  0.00  0.00    +0.000 HD
ENDROOT
BRANCH   1  22
ATOM     13  C   UNL     1       7.911   6.963  18.578  0.00  0.00    +0.000 A 
ATOM     14  C   UNL     1       8.123   5.614  18.846  0.00  0.00    +0.000 A 
ATOM     15  C   UNL     1       7.499   4.644  18.063  0.00  0.00    +0.000 A 
ATOM     16  C   UNL     1       6.638   5.003  17.009  0.00  0.00    +0.000 A 
ATOM     17  C   UNL     1       6.459   6.371  16.718  0.00  0.00    +0.000 A 
ATOM     18  C   UNL     1       7.085   7.339  17.521  0.00  0.00    +0.000 A 
ATOM     19  C   UNL     1       5.573   6.837  15.590  0.00  0.00    +0.000 C 
ATOM     20  C   UNL     1       5.263   5.739  14.578  0.00  0.00    +0.000 C 
ATOM     21  C   UNL     1       4.841   4.466  15.298  0.00  0.00    +0.000 C 
ATOM     22  C   UNL     1       5.993   3.913  16.159  0.00  0.00    +0.000 C 
ENDBRANCH   1  22
TORSDOF 1
ENDMDL
