MODEL 1
REMARK VINA RESULT:      -8.2      0.000      0.000
REMARK  Name = 
REMARK  10 active torsions:
REMARK  status: ('A' for Active; 'I' for Inactive)
REMARK    1  A    between atoms: C_1  and  O_2
REMARK    2  A    between atoms: O_2  and  C_3
REMARK    3  A    between atoms: C_3  and  C_4
REMARK    4  A    between atoms: C_4  and  N_5
REMARK    5  A    between atoms: C_6  and  C_8
REMARK    6  A    between atoms: C_9  and  O_10
REMARK    7  A    between atoms: C_14  and  C_15
REMARK    8  A    between atoms: C_15  and  C_16
REMARK    9  A    between atoms: N_25  and  C_26
REMARK   10  A    between atoms: C_26  and  C_27
REMARK                            x       y       z     vdW  Elec       q    Type
REMARK                         _______ _______ _______ _____ _____    ______ ____
ROOT
ATOM      1  C   UNL     1       3.967   3.385  18.749  0.00  0.00    +0.000 A 
ATOM      2  C   UNL     1       3.193   4.167  19.528  0.00  0.00    +0.000 A 
ATOM      3  C   UNL     1       2.973   5.582  19.180  0.00  0.00    +0.000 A 
ATOM      4  N   UNL     1       2.208   6.310  20.035  0.00  0.00    +0.000 NA
ATOM      5  C   UNL     1       1.997   7.606  19.735  0.00  0.00    +0.000 A 
ATOM      6  C   UNL     1       2.501   8.229  18.605  0.00  0.00    +0.000 A 
ATOM      7  C   UNL     1       3.262   7.449  17.724  0.00  0.00    +0.000 A 
ATOM      8  C   UNL     1       3.532   6.106  18.010  0.00  0.00    +0.000 A 
ATOM      9  N   UNL     1       4.335   5.273  17.175  0.00  0.00    +0.000 N 
ATOM     10  C   UNL     1       4.574   3.941  17.504  0.00  0.00    +0.000 A 
ATOM     11  O   UNL     1       5.241   3.203  16.776  0.00  0.00    +0.000 OA
ENDROOT
BRANCH   1  13
ATOM     12  N   UNL     1       5.032   1.771  20.226  0.00  0.00    +0.000 N 
ATOM     13  C   UNL     1       4.185   1.960  19.172  0.00  0.00    +0.000 C 
ATOM     14  O   UNL     1       3.606   1.028  18.608  0.00  0.00    +0.000 OA
ATOM     15  H   UNL     1       5.613   2.556  20.524  0.00  0.00    +0.000 HD
BRANCH  12  16
ATOM     16  C   UNL     1       5.389   0.472  20.763  0.00  0.00    +0.000 C 
BRANCH  16  17
ATOM     17  C   UNL     1       6.125   0.590  22.097  0.00  0.00    +0.000 C 
BRANCH  17  19
ATOM     18  C   UNL     1       7.422  -1.379  22.210  0.00  0.00    +0.000 C 
ATOM     19  O   UNL     1       6.255  -0.716  22.672  0.00  0.00    +0.000 OA
ENDBRANCH  17  19
ENDBRANCH  16  17
ENDBRANCH  12  16
ENDBRANCH   1  13
BRANCH   2  20
ATOM     20  O   UNL     1       2.560   3.740  20.689  0.00  0.00    +0.000 OA
ATOM     21  H   UNL     1       1.629   4.053  20.681  0.00  0.00    +0.000 HD
ENDBRANCH   2  20
BRANCH   6  22
ATOM     22  C   UNL     1       2.260   9.690  18.351  0.00  0.00    +0.000 C 
BRANCH  22  23
ATOM     23  C   UNL     1       0.839  10.145  18.587  0.00  0.00    +0.000 A 
ATOM     24  C   UNL     1       0.543  11.052  19.618  0.00  0.00    +0.000 A 
ATOM     25  C   UNL     1      -0.754  11.541  19.779  0.00  0.00    +0.000 A 
ATOM     26  C   UNL     1      -1.759  11.114  18.920  0.00  0.00    +0.000 A 
ATOM     27  F   UNL     1      -2.995  11.610  19.052  0.00  0.00    +0.000 F 
ATOM     28  C   UNL     1      -1.497  10.186  17.919  0.00  0.00    +0.000 A 
ATOM     29  C   UNL     1      -0.200   9.695  17.755  0.00  0.00    +0.000 A 
ENDBRANCH  22  23
ENDBRANCH   6  22
BRANCH   9  30
ATOM     30  C   UNL     1       4.825   5.743  15.873  0.00  0.00    +0.000 C 
BRANCH  30  31
ATOM     31  C   UNL     1       6.299   5.509  15.473  0.00  0.00    +0.000 C 
ATOM     32  O   UNL     1       7.251   5.917  16.135  0.00  0.00    +0.000 OA
ATOM     33  N   UNL     1       6.478   4.940  14.218  0.00  0.00    +0.000 N 
ATOM     34  C   UNL     1       7.767   4.915  13.558  0.00  0.00    +0.000 C 
ATOM     35  C   UNL     1       7.425   4.495  12.136  0.00  0.00    +0.000 C 
ATOM     36  C   UNL     1       6.261   3.529  12.322  0.00  0.00    +0.000 C 
ATOM     37  C   UNL     1       5.551   4.018  13.580  0.00  0.00    +0.000 C 
ENDBRANCH  30  31
ENDBRANCH   9  30
TORSDOF 9
ENDMDL
MODEL 2
REMARK VINA RESULT:      -8.1      5.920     10.800
REMARK  Name = 
REMARK  10 active torsions:
REMARK  status: ('A' for Active; 'I' for Inactive)
REMARK    1  A    between atoms: C_1  and  O_2
REMARK    2  A    between atoms: O_2  and  C_3
REMARK    3  A    between atoms: C_3  and  C_4
REMARK    4  A    between atoms: C_4  and  N_5
REMARK    5  A    between atoms: C_6  and  C_8
REMARK    6  A    between atoms: C_9  and  O_10
REMARK    7  A    between atoms: C_14  and  C_15
REMARK    8  A    between atoms: C_15  and  C_16
REMARK    9  A    between atoms: N_25  and  C_26
REMARK   10  A    between atoms: C_26  and  C_27
REMARK                            x       y       z     vdW  Elec       q    Type
REMARK                         _______ _______ _______ _____ _____    ______ ____
ROOT
ATOM      1  C   UNL     1      -0.972  11.734  22.067  0.00  0.00    +0.000 A 
ATOM      2  C   UNL     1      -0.414  10.530  22.301  0.00  0.00    +0.000 A 
ATOM      3  C   UNL     1       0.344   9.840  21.243  0.00  0.00    +0.000 A 
ATOM      4  N   UNL     1       0.846   8.615  21.548  0.00  0.00    +0.000 NA
ATOM      5  C   UNL     1       1.540   7.968  20.593  0.00  0.00    +0.000 A 
ATOM      6  C   UNL     1       1.781   8.485  19.330  0.00  0.00    +0.000 A 
ATOM      7  C   UNL     1       1.278   9.762  19.050  0.00  0.00    +0.000 A 
ATOM      8  C   UNL     1       0.526  10.458  20.002  0.00  0.00    +0.000 A 
ATOM      9  N   UNL     1      -0.049  11.743  19.760  0.00  0.00    +0.000 N 
ATOM     10  C   UNL     1      -0.789  12.396  20.742  0.00  0.00    +0.000 A 
ATOM     11  O   UNL     1      -1.265  13.518  20.557  0.00  0.00    +0.000 OA
ENDROOT
BRANCH   1  13
ATOM     12  N   UNL     1      -3.005  11.852  23.400  0.00  0.00    +0.000 N 
ATOM     13  C   UNL     1      -1.764  12.374  23.173  0.00  0.00    +0.000 C 
ATOM     14  O   UNL     1      -1.297  13.298  23.844  0.00  0.00    +0.000 OA
ATOM     15  H   UNL     1      -3.398  11.222  22.700  0.00  0.00    +0.000 HD
BRANCH  12  16
ATOM     16  C   UNL     1      -3.927  12.349  24.402  0.00  0.00    +0.000 C 
BRANCH  16  17
ATOM     17  C   UNL     1      -5.126  13.057  23.772  0.00  0.00    +0.000 C 
BRANCH  17  19
ATOM     18  C   UNL     1      -7.471  13.077  24.049  0.00  0.00    +0.000 C 
ATOM     19  O   UNL     1      -6.302  12.271  24.002  0.00  0.00    +0.000 OA
ENDBRANCH  17  19
ENDBRANCH  16  17
ENDBRANCH  12  16
ENDBRANCH   1  13
BRANCH   2  20
ATOM     20  O   UNL     1      -0.499   9.844  23.507  0.00  0.00    +0.000 OA
ATOM     21  H   UNL     1      -0.235   8.909  23.364  0.00  0.00    +0.000 HD
ENDBRANCH   2  20
BRANCH   6  22
ATOM     22  C   UNL     1       2.530   7.692  18.296  0.00  0.00    +0.000 C 
BRANCH  22  23
ATOM     23  C   UNL     1       2.587   6.205  18.561  0.00  0.00    +0.000 A 
ATOM     24  C   UNL     1       3.544   5.675  19.442  0.00  0.00    +0.000 A 
ATOM     25  C   UNL     1       3.538   4.315  19.756  0.00  0.00    +0.000 A 
ATOM     26  C   UNL     1       2.588   3.482  19.179  0.00  0.00    +0.000 A 
ATOM     27  F   UNL     1       2.561   2.184  19.508  0.00  0.00    +0.000 F 
ATOM     28  C   UNL     1       1.658   3.978  18.273  0.00  0.00    +0.000 A 
ATOM     29  C   UNL     1       1.660   5.339  17.958  0.00  0.00    +0.000 A 
ENDBRANCH  22  23
ENDBRANCH   6  22
BRANCH   9  30
ATOM     30  C   UNL     1       0.233  12.485  18.525  0.00  0.00    +0.000 C 
BRANCH  30  31
ATOM     31  C   UNL     1       1.555  13.273  18.383  0.00  0.00    +0.000 C 
ATOM     32  O   UNL     1       2.631  12.745  18.113  0.00  0.00    +0.000 OA
ATOM     33  N   UNL     1       1.474  14.612  18.745  0.00  0.00    +0.000 N 
ATOM     34  C   UNL     1       2.652  15.428  18.956  0.00  0.00    +0.000 C 
ATOM     35  C   UNL     1       2.098  16.681  19.617  0.00  0.00    +0.000 C 
ATOM     36  C   UNL     1       0.737  16.859  18.954  0.00  0.00    +0.000 C 
ATOM     37  C   UNL     1       0.286  15.443  18.613  0.00  0.00    +0.000 C 
ENDBRANCH  30  31
ENDBRANCH   9  30
TORSDOF 9
ENDMDL
MODEL 3
REMARK VINA RESULT:      -7.9      5.869     10.714
REMARK  Name = 
REMARK  10 active torsions:
REMARK  status: ('A' for Active; 'I' for Inactive)
REMARK    1  A    between atoms: C_1  and  O_2
REMARK    2  A    between atoms: O_2  and  C_3
REMARK    3  A    between atoms: C_3  and  C_4
REMARK    4  A    between atoms: C_4  and  N_5
REMARK    5  A    between atoms: C_6  and  C_8
REMARK    6  A    between atoms: C_9  and  O_10
REMARK    7  A    between atoms: C_14  and  C_15
REMARK    8  A    between atoms: C_15  and  C_16
REMARK    9  A    between atoms: N_25  and  C_26
REMARK   10  A    between atoms: C_26  and  C_27
REMARK                            x       y       z     vdW  Elec       q    Type
REMARK                         _______ _______ _______ _____ _____    ______ ____
ROOT
ATOM      1  C   UNL     1      -0.916  11.729  22.003  0.00  0.00    +0.000 A 
ATOM      2  C   UNL     1      -0.407  10.500  22.218  0.00  0.00    +0.000 A 
ATOM      3  C   UNL     1       0.352   9.811  21.159  0.00  0.00    +0.000 A 
ATOM      4  N   UNL     1       0.802   8.561  21.443  0.00  0.00    +0.000 NA
ATOM      5  C   UNL     1       1.497   7.915  20.488  0.00  0.00    +0.000 A 
ATOM      6  C   UNL     1       1.787   8.456  19.246  0.00  0.00    +0.000 A 
ATOM      7  C   UNL     1       1.338   9.758  18.988  0.00  0.00    +0.000 A 
ATOM      8  C   UNL     1       0.586  10.455  19.941  0.00  0.00    +0.000 A 
ATOM      9  N   UNL     1       0.064  11.765  19.720  0.00  0.00    +0.000 N 
ATOM     10  C   UNL     1      -0.677  12.419  20.701  0.00  0.00    +0.000 A 
ATOM     11  O   UNL     1      -1.108  13.561  20.535  0.00  0.00    +0.000 OA
ENDROOT
BRANCH   1  13
ATOM     12  N   UNL     1      -2.964  11.862  23.312  0.00  0.00    +0.000 N 
ATOM     13  C   UNL     1      -1.713  12.368  23.106  0.00  0.00    +0.000 C 
ATOM     14  O   UNL     1      -1.240  13.277  23.794  0.00  0.00    +0.000 OA
ATOM     15  H   UNL     1      -3.358  11.246  22.599  0.00  0.00    +0.000 HD
BRANCH  12  16
ATOM     16  C   UNL     1      -3.891  12.361  24.309  0.00  0.00    +0.000 C 
BRANCH  16  17
ATOM     17  C   UNL     1      -5.071  13.095  23.672  0.00  0.00    +0.000 C 
BRANCH  17  19
ATOM     18  C   UNL     1      -5.978  12.930  21.498  0.00  0.00    +0.000 C 
ATOM     19  O   UNL     1      -5.683  12.236  22.702  0.00  0.00    +0.000 OA
ENDBRANCH  17  19
ENDBRANCH  16  17
ENDBRANCH  12  16
ENDBRANCH   1  13
BRANCH   2  20
ATOM     20  O   UNL     1      -0.547   9.786  23.402  0.00  0.00    +0.000 OA
ATOM     21  H   UNL     1      -0.723  10.413  24.136  0.00  0.00    +0.000 HD
ENDBRANCH   2  20
BRANCH   6  22
ATOM     22  C   UNL     1       2.534   7.664  18.209  0.00  0.00    +0.000 C 
BRANCH  22  23
ATOM     23  C   UNL     1       2.656   6.188  18.510  0.00  0.00    +0.000 A 
ATOM     24  C   UNL     1       1.733   5.273  17.976  0.00  0.00    +0.000 A 
ATOM     25  C   UNL     1       1.899   3.903  18.181  0.00  0.00    +0.000 A 
ATOM     26  C   UNL     1       2.975   3.446  18.930  0.00  0.00    +0.000 A 
ATOM     27  F   UNL     1       3.153   2.130  19.096  0.00  0.00    +0.000 F 
ATOM     28  C   UNL     1       3.876   4.336  19.503  0.00  0.00    +0.000 A 
ATOM     29  C   UNL     1       3.714   5.708  19.300  0.00  0.00    +0.000 A 
ENDBRANCH  22  23
ENDBRANCH   6  22
BRANCH   9  30
ATOM     30  C   UNL     1       0.403  12.529  18.513  0.00  0.00    +0.000 C 
BRANCH  30  31
ATOM     31  C   UNL     1       1.766  13.251  18.414  0.00  0.00    +0.000 C 
ATOM     32  O   UNL     1       2.818  12.674  18.146  0.00  0.00    +0.000 OA
ATOM     33  N   UNL     1       1.748  14.582  18.811  0.00  0.00    +0.000 N 
ATOM     34  C   UNL     1       2.963  15.329  19.064  0.00  0.00    +0.000 C 
ATOM     35  C   UNL     1       2.464  16.591  19.750  0.00  0.00    +0.000 C 
ATOM     36  C   UNL     1       1.125  16.858  19.072  0.00  0.00    +0.000 C 
ATOM     37  C   UNL     1       0.608  15.477  18.684  0.00  0.00    +0.000 C 
ENDBRANCH  30  31
ENDBRANCH   9  30
TORSDOF 9
ENDMDL
MODEL 4
REMARK VINA RESULT:      -7.9      3.752      7.630
REMARK  Name = 
REMARK  10 active torsions:
REMARK  status: ('A' for Active; 'I' for Inactive)
REMARK    1  A    between atoms: C_1  and  O_2
REMARK    2  A    between atoms: O_2  and  C_3
REMARK    3  A    between atoms: C_3  and  C_4
REMARK    4  A    between atoms: C_4  and  N_5
REMARK    5  A    between atoms: C_6  and  C_8
REMARK    6  A    between atoms: C_9  and  O_10
REMARK    7  A    between atoms: C_14  and  C_15
REMARK    8  A    between atoms: C_15  and  C_16
REMARK    9  A    between atoms: N_25  and  C_26
REMARK   10  A    between atoms: C_26  and  C_27
REMARK                            x       y       z     vdW  Elec       q    Type
REMARK                         _______ _______ _______ _____ _____    ______ ____
ROOT
ATOM      1  C   UNL     1       1.829   8.043  19.364  0.00  0.00    +0.000 A 
ATOM      2  C   UNL     1       1.352   7.965  20.622  0.00  0.00    +0.000 A 
ATOM      3  C   UNL     1       0.679   9.122  21.239  0.00  0.00    +0.000 A 
ATOM      4  N   UNL     1       0.258   8.973  22.522  0.00  0.00    +0.000 NA
ATOM      5  C   UNL     1      -0.358  10.019  23.103  0.00  0.00    +0.000 A 
ATOM      6  C   UNL     1      -0.596  11.226  22.465  0.00  0.00    +0.000 A 
ATOM      7  C   UNL     1      -0.179  11.345  21.133  0.00  0.00    +0.000 A 
ATOM      8  C   UNL     1       0.492  10.293  20.498  0.00  0.00    +0.000 A 
ATOM      9  N   UNL     1       0.980  10.370  19.159  0.00  0.00    +0.000 N 
ATOM     10  C   UNL     1       1.641   9.294  18.572  0.00  0.00    +0.000 A 
ATOM     11  O   UNL     1       2.040   9.336  17.406  0.00  0.00    +0.000 OA
ENDROOT
BRANCH   1  13
ATOM     12  N   UNL     1       3.636   7.106  18.030  0.00  0.00    +0.000 N 
ATOM     13  C   UNL     1       2.539   6.845  18.800  0.00  0.00    +0.000 C 
ATOM     14  O   UNL     1       2.157   5.698  19.049  0.00  0.00    +0.000 OA
ATOM     15  H   UNL     1       3.787   8.065  17.716  0.00  0.00    +0.000 HD
BRANCH  12  16
ATOM     16  C   UNL     1       4.435   6.086  17.378  0.00  0.00    +0.000 C 
BRANCH  16  17
ATOM     17  C   UNL     1       5.126   6.620  16.124  0.00  0.00    +0.000 C 
BRANCH  17  19
ATOM     18  C   UNL     1       6.613   5.041  15.192  0.00  0.00    +0.000 C 
ATOM     19  O   UNL     1       6.472   6.131  16.091  0.00  0.00    +0.000 OA
ENDBRANCH  17  19
ENDBRANCH  16  17
ENDBRANCH  12  16
ENDBRANCH   1  13
BRANCH   2  20
ATOM     20  O   UNL     1       1.449   6.840  21.432  0.00  0.00    +0.000 OA
ATOM     21  H   UNL     1       0.559   6.442  21.538  0.00  0.00    +0.000 HD
ENDBRANCH   2  20
BRANCH   6  22
ATOM     22  C   UNL     1      -1.254  12.369  23.186  0.00  0.00    +0.000 C 
BRANCH  22  23
ATOM     23  C   UNL     1      -2.738  12.504  22.932  0.00  0.00    +0.000 A 
ATOM     24  C   UNL     1      -3.648  12.483  24.002  0.00  0.00    +0.000 A 
ATOM     25  C   UNL     1      -5.009  12.698  23.775  0.00  0.00    +0.000 A 
ATOM     26  C   UNL     1      -5.462  12.919  22.482  0.00  0.00    +0.000 A 
ATOM     27  F   UNL     1      -6.762  13.160  22.270  0.00  0.00    +0.000 F 
ATOM     28  C   UNL     1      -4.584  12.903  21.404  0.00  0.00    +0.000 A 
ATOM     29  C   UNL     1      -3.223  12.689  21.627  0.00  0.00    +0.000 A 
ENDBRANCH  22  23
ENDBRANCH   6  22
BRANCH   9  30
ATOM     30  C   UNL     1       0.684  11.526  18.304  0.00  0.00    +0.000 C 
BRANCH  30  31
ATOM     31  C   UNL     1      -0.734  12.141  18.303  0.00  0.00    +0.000 C 
ATOM     32  O   UNL     1      -0.982  13.267  18.729  0.00  0.00    +0.000 OA
ATOM     33  N   UNL     1      -1.746  11.266  17.931  0.00  0.00    +0.000 N 
ATOM     34  C   UNL     1      -3.147  11.567  18.148  0.00  0.00    +0.000 C 
ATOM     35  C   UNL     1      -3.838  10.238  17.883  0.00  0.00    +0.000 C 
ATOM     36  C   UNL     1      -3.002   9.619  16.770  0.00  0.00    +0.000 C 
ATOM     37  C   UNL     1      -1.594  10.159  16.999  0.00  0.00    +0.000 C 
ENDBRANCH  30  31
ENDBRANCH   9  30
TORSDOF 9
ENDMDL
MODEL 5
REMARK VINA RESULT:      -7.9      4.033      7.875
REMARK  Name = 
REMARK  10 active torsions:
REMARK  status: ('A' for Active; 'I' for Inactive)
REMARK    1  A    between atoms: C_1  and  O_2
REMARK    2  A    between atoms: O_2  and  C_3
REMARK    3  A    between atoms: C_3  and  C_4
REMARK    4  A    between atoms: C_4  and  N_5
REMARK    5  A    between atoms: C_6  and  C_8
REMARK    6  A    between atoms: C_9  and  O_10
REMARK    7  A    between atoms: C_14  and  C_15
REMARK    8  A    between atoms: C_15  and  C_16
REMARK    9  A    between atoms: N_25  and  C_26
REMARK   10  A    between atoms: C_26  and  C_27
REMARK                            x       y       z     vdW  Elec       q    Type
REMARK                         _______ _______ _______ _____ _____    ______ ____
ROOT
ATOM      1  C   UNL     1       1.838   8.349  19.237  0.00  0.00    +0.000 A 
ATOM      2  C   UNL     1       1.334   8.206  20.479  0.00  0.00    +0.000 A 
ATOM      3  C   UNL     1       0.648   9.329  21.141  0.00  0.00    +0.000 A 
ATOM      4  N   UNL     1       0.198   9.113  22.405  0.00  0.00    +0.000 NA
ATOM      5  C   UNL     1      -0.430  10.129  23.026  0.00  0.00    +0.000 A 
ATOM      6  C   UNL     1      -0.653  11.368  22.447  0.00  0.00    +0.000 A 
ATOM      7  C   UNL     1      -0.207  11.556  21.133  0.00  0.00    +0.000 A 
ATOM      8  C   UNL     1       0.477  10.538  20.459  0.00  0.00    +0.000 A 
ATOM      9  N   UNL     1       0.994  10.685  19.137  0.00  0.00    +0.000 N 
ATOM     10  C   UNL     1       1.667   9.640  18.508  0.00  0.00    +0.000 A 
ATOM     11  O   UNL     1       2.092   9.743  17.355  0.00  0.00    +0.000 OA
ENDROOT
BRANCH   1  13
ATOM     12  N   UNL     1       3.647   7.483  17.859  0.00  0.00    +0.000 N 
ATOM     13  C   UNL     1       2.559   7.181  18.626  0.00  0.00    +0.000 C 
ATOM     14  O   UNL     1       2.194   6.021  18.837  0.00  0.00    +0.000 OA
ATOM     15  H   UNL     1       3.784   8.455  17.577  0.00  0.00    +0.000 HD
BRANCH  12  16
ATOM     16  C   UNL     1       4.456   6.499  17.166  0.00  0.00    +0.000 C 
BRANCH  16  17
ATOM     17  C   UNL     1       5.519   5.890  18.080  0.00  0.00    +0.000 C 
BRANCH  17  19
ATOM     18  C   UNL     1       7.582   4.762  17.867  0.00  0.00    +0.000 C 
ATOM     19  O   UNL     1       6.276   4.929  17.334  0.00  0.00    +0.000 OA
ENDBRANCH  17  19
ENDBRANCH  16  17
ENDBRANCH  12  16
ENDBRANCH   1  13
BRANCH   2  20
ATOM     20  O   UNL     1       1.413   7.039  21.230  0.00  0.00    +0.000 OA
ATOM     21  H   UNL     1       0.961   7.179  22.090  0.00  0.00    +0.000 HD
ENDBRANCH   2  20
BRANCH   6  22
ATOM     22  C   UNL     1      -1.326  12.473  23.213  0.00  0.00    +0.000 C 
BRANCH  22  23
ATOM     23  C   UNL     1      -2.820  12.566  23.003  0.00  0.00    +0.000 A 
ATOM     24  C   UNL     1      -3.697  12.537  24.101  0.00  0.00    +0.000 A 
ATOM     25  C   UNL     1      -5.069  12.714  23.913  0.00  0.00    +0.000 A 
ATOM     26  C   UNL     1      -5.567  12.903  22.631  0.00  0.00    +0.000 A 
ATOM     27  F   UNL     1      -6.878  13.108  22.456  0.00  0.00    +0.000 F 
ATOM     28  C   UNL     1      -4.722  12.895  21.527  0.00  0.00    +0.000 A 
ATOM     29  C   UNL     1      -3.349  12.718  21.711  0.00  0.00    +0.000 A 
ENDBRANCH  22  23
ENDBRANCH   6  22
BRANCH   9  30
ATOM     30  C   UNL     1       0.717  11.885  18.337  0.00  0.00    +0.000 C 
BRANCH  30  31
ATOM     31  C   UNL     1       1.691  13.084  18.384  0.00  0.00    +0.000 C 
ATOM     32  O   UNL     1       2.892  12.989  18.141  0.00  0.00    +0.000 OA
ATOM     33  N   UNL     1       1.142  14.258  18.883  0.00  0.00    +0.000 N 
ATOM     34  C   UNL     1       1.960  15.389  19.272  0.00  0.00    +0.000 C 
ATOM     35  C   UNL     1       0.986  16.286  20.022  0.00  0.00    +0.000 C 
ATOM     36  C   UNL     1      -0.329  16.078  19.281  0.00  0.00    +0.000 C 
ATOM     37  C   UNL     1      -0.253  14.650  18.753  0.00  0.00    +0.000 C 
ENDBRANCH  30  31
ENDBRANCH   9  30
TORSDOF 9
ENDMDL
MODEL 6
REMARK VINA RESULT:      -7.9      3.986      7.495
REMARK  Name = 
REMARK  10 active torsions:
REMARK  status: ('A' for Active; 'I' for Inactive)
REMARK    1  A    between atoms: C_1  and  O_2
REMARK    2  A    between atoms: O_2  and  C_3
REMARK    3  A    between atoms: C_3  and  C_4
REMARK    4  A    between atoms: C_4  and  N_5
REMARK    5  A    between atoms: C_6  and  C_8
REMARK    6  A    between atoms: C_9  and  O_10
REMARK    7  A    between atoms: C_14  and  C_15
REMARK    8  A    between atoms: C_15  and  C_16
REMARK    9  A    between atoms: N_25  and  C_26
REMARK   10  A    between atoms: C_26  and  C_27
REMARK                            x       y       z     vdW  Elec       q    Type
REMARK                         _______ _______ _______ _____ _____    ______ ____
ROOT
ATOM      1  C   UNL     1       1.853   8.331  19.268  0.00  0.00    +0.000 A 
ATOM      2  C   UNL     1       1.400   8.175  20.528  0.00  0.00    +0.000 A 
ATOM      3  C   UNL     1       0.684   9.271  21.205  0.00  0.00    +0.000 A 
ATOM      4  N   UNL     1       0.290   9.046  22.485  0.00  0.00    +0.000 NA
ATOM      5  C   UNL     1      -0.364  10.036  23.121  0.00  0.00    +0.000 A 
ATOM      6  C   UNL     1      -0.667  11.258  22.541  0.00  0.00    +0.000 A 
ATOM      7  C   UNL     1      -0.276  11.454  21.210  0.00  0.00    +0.000 A 
ATOM      8  C   UNL     1       0.433  10.464  20.520  0.00  0.00    +0.000 A 
ATOM      9  N   UNL     1       0.896  10.622  19.179  0.00  0.00    +0.000 N 
ATOM     10  C   UNL     1       1.596   9.606  18.536  0.00  0.00    +0.000 A 
ATOM     11  O   UNL     1       1.975   9.717  17.368  0.00  0.00    +0.000 OA
ENDROOT
BRANCH   1  13
ATOM     12  N   UNL     1       2.068   5.950  18.811  0.00  0.00    +0.000 N 
ATOM     13  C   UNL     1       2.608   7.193  18.642  0.00  0.00    +0.000 C 
ATOM     14  O   UNL     1       3.638   7.388  17.991  0.00  0.00    +0.000 OA
ATOM     15  H   UNL     1       1.327   5.837  19.505  0.00  0.00    +0.000 HD
BRANCH  12  16
ATOM     16  C   UNL     1       2.661   4.727  18.306  0.00  0.00    +0.000 C 
BRANCH  16  17
ATOM     17  C   UNL     1       2.863   3.692  19.412  0.00  0.00    +0.000 C 
BRANCH  17  19
ATOM     18  C   UNL     1       2.035   3.380  21.601  0.00  0.00    +0.000 C 
ATOM     19  O   UNL     1       2.588   4.306  20.677  0.00  0.00    +0.000 OA
ENDBRANCH  17  19
ENDBRANCH  16  17
ENDBRANCH  12  16
ENDBRANCH   1  13
BRANCH   2  20
ATOM     20  O   UNL     1       1.561   7.021  21.285  0.00  0.00    +0.000 OA
ATOM     21  H   UNL     1       0.678   6.684  21.550  0.00  0.00    +0.000 HD
ENDBRANCH   2  20
BRANCH   6  22
ATOM     22  C   UNL     1      -1.365  12.336  23.321  0.00  0.00    +0.000 C 
BRANCH  22  23
ATOM     23  C   UNL     1      -2.843  12.467  23.032  0.00  0.00    +0.000 A 
ATOM     24  C   UNL     1      -3.773  12.519  24.084  0.00  0.00    +0.000 A 
ATOM     25  C   UNL     1      -5.127  12.730  23.819  0.00  0.00    +0.000 A 
ATOM     26  C   UNL     1      -5.555  12.875  22.506  0.00  0.00    +0.000 A 
ATOM     27  F   UNL     1      -6.848  13.113  22.255  0.00  0.00    +0.000 F 
ATOM     28  C   UNL     1      -4.658  12.787  21.448  0.00  0.00    +0.000 A 
ATOM     29  C   UNL     1      -3.302  12.575  21.709  0.00  0.00    +0.000 A 
ENDBRANCH  22  23
ENDBRANCH   6  22
BRANCH   9  30
ATOM     30  C   UNL     1       0.534  11.800  18.381  0.00  0.00    +0.000 C 
BRANCH  30  31
ATOM     31  C   UNL     1      -0.923  12.315  18.383  0.00  0.00    +0.000 C 
ATOM     32  O   UNL     1      -1.255  13.402  18.850  0.00  0.00    +0.000 OA
ATOM     33  N   UNL     1      -1.867  11.387  17.961  0.00  0.00    +0.000 N 
ATOM     34  C   UNL     1      -3.288  11.581  18.168  0.00  0.00    +0.000 C 
ATOM     35  C   UNL     1      -3.881  10.219  17.840  0.00  0.00    +0.000 C 
ATOM     36  C   UNL     1      -2.989   9.706  16.716  0.00  0.00    +0.000 C 
ATOM     37  C   UNL     1      -1.626  10.333  16.988  0.00  0.00    +0.000 C 
ENDBRANCH  30  31
ENDBRANCH   9  30
TORSDOF 9
ENDMDL
MODEL 7
REMARK VINA RESULT:      -7.8      5.884     10.783
REMARK  Name = 
REMARK  10 active torsions:
REMARK  status: ('A' for Active; 'I' for Inactive)
REMARK    1  A    between atoms: C_1  and  O_2
REMARK    2  A    between atoms: O_2  and  C_3
REMARK    3  A    between atoms: C_3  and  C_4
REMARK    4  A    between atoms: C_4  and  N_5
REMARK    5  A    between atoms: C_6  and  C_8
REMARK    6  A    between atoms: C_9  and  O_10
REMARK    7  A    between atoms: C_14  and  C_15
REMARK    8  A    between atoms: C_15  and  C_16
REMARK    9  A    between atoms: N_25  and  C_26
REMARK   10  A    between atoms: C_26  and  C_27
REMARK                            x       y       z     vdW  Elec       q    Type
REMARK                         _______ _______ _______ _____ _____    ______ ____
ROOT
ATOM      1  C   UNL     1      -1.148  11.565  22.009  0.00  0.00    +0.000 A 
ATOM      2  C   UNL     1      -0.554  10.380  22.256  0.00  0.00    +0.000 A 
ATOM      3  C   UNL     1       0.257   9.721  21.217  0.00  0.00    +0.000 A 
ATOM      4  N   UNL     1       0.794   8.513  21.534  0.00  0.00    +0.000 NA
ATOM      5  C   UNL     1       1.537   7.895  20.597  0.00  0.00    +0.000 A 
ATOM      6  C   UNL     1       1.793   8.424  19.342  0.00  0.00    +0.000 A 
ATOM      7  C   UNL     1       1.254   9.683  19.051  0.00  0.00    +0.000 A 
ATOM      8  C   UNL     1       0.450  10.349  19.983  0.00  0.00    +0.000 A 
ATOM      9  N   UNL     1      -0.162  11.613  19.728  0.00  0.00    +0.000 N 
ATOM     10  C   UNL     1      -0.953  12.236  20.691  0.00  0.00    +0.000 A 
ATOM     11  O   UNL     1      -1.463  13.341  20.495  0.00  0.00    +0.000 OA
ENDROOT
BRANCH   1  13
ATOM     12  N   UNL     1      -1.685  13.456  23.443  0.00  0.00    +0.000 N 
ATOM     13  C   UNL     1      -1.992  12.173  23.093  0.00  0.00    +0.000 C 
ATOM     14  O   UNL     1      -2.923  11.547  23.608  0.00  0.00    +0.000 OA
ATOM     15  H   UNL     1      -0.800  13.847  23.115  0.00  0.00    +0.000 HD
BRANCH  12  16
ATOM     16  C   UNL     1      -2.366  14.204  24.482  0.00  0.00    +0.000 C 
BRANCH  16  17
ATOM     17  C   UNL     1      -1.442  15.220  25.153  0.00  0.00    +0.000 C 
BRANCH  17  19
ATOM     18  C   UNL     1      -0.453  16.785  23.687  0.00  0.00    +0.000 C 
ATOM     19  O   UNL     1      -0.344  15.497  24.275  0.00  0.00    +0.000 OA
ENDBRANCH  17  19
ENDBRANCH  16  17
ENDBRANCH  12  16
ENDBRANCH   1  13
BRANCH   2  20
ATOM     20  O   UNL     1      -0.648   9.688  23.458  0.00  0.00    +0.000 OA
ATOM     21  H   UNL     1       0.243   9.630  23.866  0.00  0.00    +0.000 HD
ENDBRANCH   2  20
BRANCH   6  22
ATOM     22  C   UNL     1       2.599   7.661  18.328  0.00  0.00    +0.000 C 
BRANCH  22  23
ATOM     23  C   UNL     1       2.663   6.170  18.566  0.00  0.00    +0.000 A 
ATOM     24  C   UNL     1       1.749   5.308  17.938  0.00  0.00    +0.000 A 
ATOM     25  C   UNL     1       1.865   3.925  18.087  0.00  0.00    +0.000 A 
ATOM     26  C   UNL     1       2.884   3.404  18.874  0.00  0.00    +0.000 A 
ATOM     27  F   UNL     1       3.016   2.076  18.988  0.00  0.00    +0.000 F 
ATOM     28  C   UNL     1       3.774   4.240  19.538  0.00  0.00    +0.000 A 
ATOM     29  C   UNL     1       3.661   5.624  19.391  0.00  0.00    +0.000 A 
ENDBRANCH  22  23
ENDBRANCH   6  22
BRANCH   9  30
ATOM     30  C   UNL     1       0.127  12.368  18.503  0.00  0.00    +0.000 C 
BRANCH  30  31
ATOM     31  C   UNL     1       1.408  13.227  18.410  0.00  0.00    +0.000 C 
ATOM     32  O   UNL     1       2.524  12.755  18.204  0.00  0.00    +0.000 OA
ATOM     33  N   UNL     1       1.235  14.565  18.741  0.00  0.00    +0.000 N 
ATOM     34  C   UNL     1       2.355  15.450  18.994  0.00  0.00    +0.000 C 
ATOM     35  C   UNL     1       1.700  16.681  19.602  0.00  0.00    +0.000 C 
ATOM     36  C   UNL     1       0.366  16.771  18.870  0.00  0.00    +0.000 C 
ATOM     37  C   UNL     1       0.012  15.326  18.535  0.00  0.00    +0.000 C 
ENDBRANCH  30  31
ENDBRANCH   9  30
TORSDOF 9
ENDMDL
MODEL 8
REMARK VINA RESULT:      -7.8      3.888      7.644
REMARK  Name = 
REMARK  10 active torsions:
REMARK  status: ('A' for Active; 'I' for Inactive)
REMARK    1  A    between atoms: C_1  and  O_2
REMARK    2  A    between atoms: O_2  and  C_3
REMARK    3  A    between atoms: C_3  and  C_4
REMARK    4  A    between atoms: C_4  and  N_5
REMARK    5  A    between atoms: C_6  and  C_8
REMARK    6  A    between atoms: C_9  and  O_10
REMARK    7  A    between atoms: C_14  and  C_15
REMARK    8  A    between atoms: C_15  and  C_16
REMARK    9  A    between atoms: N_25  and  C_26
REMARK   10  A    between atoms: C_26  and  C_27
REMARK                            x       y       z     vdW  Elec       q    Type
REMARK                         _______ _______ _______ _____ _____    ______ ____
ROOT
ATOM      1  C   UNL     1       2.158   8.007  18.958  0.00  0.00    +0.000 A 
ATOM      2  C   UNL     1       1.672   7.723  20.183  0.00  0.00    +0.000 A 
ATOM      3  C   UNL     1       0.908   8.733  20.936  0.00  0.00    +0.000 A 
ATOM      4  N   UNL     1       0.483   8.380  22.177  0.00  0.00    +0.000 NA
ATOM      5  C   UNL     1      -0.215   9.290  22.881  0.00  0.00    +0.000 A 
ATOM      6  C   UNL     1      -0.533  10.554  22.408  0.00  0.00    +0.000 A 
ATOM      7  C   UNL     1      -0.109  10.883  21.114  0.00  0.00    +0.000 A 
ATOM      8  C   UNL     1       0.646   9.979  20.358  0.00  0.00    +0.000 A 
ATOM      9  N   UNL     1       1.143  10.274  19.053  0.00  0.00    +0.000 N 
ATOM     10  C   UNL     1       1.888   9.338  18.339  0.00  0.00    +0.000 A 
ATOM     11  O   UNL     1       2.299   9.568  17.200  0.00  0.00    +0.000 OA
ENDROOT
BRANCH   1  13
ATOM     12  N   UNL     1       4.148   7.359  17.716  0.00  0.00    +0.000 N 
ATOM     13  C   UNL     1       2.960   6.951  18.252  0.00  0.00    +0.000 C 
ATOM     14  O   UNL     1       2.570   5.782  18.193  0.00  0.00    +0.000 OA
ATOM     15  H   UNL     1       4.323   8.362  17.640  0.00  0.00    +0.000 HD
BRANCH  12  16
ATOM     16  C   UNL     1       5.048   6.496  16.976  0.00  0.00    +0.000 C 
BRANCH  16  17
ATOM     17  C   UNL     1       6.512   6.871  17.204  0.00  0.00    +0.000 C 
BRANCH  17  19
ATOM     18  C   UNL     1       6.928   4.795  16.160  0.00  0.00    +0.000 C 
ATOM     19  O   UNL     1       7.326   6.154  16.268  0.00  0.00    +0.000 OA
ENDBRANCH  17  19
ENDBRANCH  16  17
ENDBRANCH  12  16
ENDBRANCH   1  13
BRANCH   2  20
ATOM     20  O   UNL     1       1.842   6.507  20.834  0.00  0.00    +0.000 OA
ATOM     21  H   UNL     1       2.567   6.009  20.400  0.00  0.00    +0.000 HD
ENDBRANCH   2  20
BRANCH   6  22
ATOM     22  C   UNL     1      -1.282  11.537  23.263  0.00  0.00    +0.000 C 
BRANCH  22  23
ATOM     23  C   UNL     1      -1.818  12.738  22.519  0.00  0.00    +0.000 A 
ATOM     24  C   UNL     1      -2.928  12.611  21.667  0.00  0.00    +0.000 A 
ATOM     25  C   UNL     1      -3.478  13.737  21.051  0.00  0.00    +0.000 A 
ATOM     26  C   UNL     1      -2.912  14.986  21.273  0.00  0.00    +0.000 A 
ATOM     27  F   UNL     1      -3.462  16.069  20.711  0.00  0.00    +0.000 F 
ATOM     28  C   UNL     1      -1.790  15.128  22.081  0.00  0.00    +0.000 A 
ATOM     29  C   UNL     1      -1.237  14.005  22.698  0.00  0.00    +0.000 A 
ENDBRANCH  22  23
ENDBRANCH   6  22
BRANCH   9  30
ATOM     30  C   UNL     1       0.774  11.513  18.356  0.00  0.00    +0.000 C 
BRANCH  30  31
ATOM     31  C   UNL     1       1.747  12.713  18.351  0.00  0.00    +0.000 C 
ATOM     32  O   UNL     1       2.957  12.601  18.167  0.00  0.00    +0.000 OA
ATOM     33  N   UNL     1       1.179  13.922  18.732  0.00  0.00    +0.000 N 
ATOM     34  C   UNL     1       1.982  15.082  19.066  0.00  0.00    +0.000 C 
ATOM     35  C   UNL     1       0.979  16.033  19.701  0.00  0.00    +0.000 C 
ATOM     36  C   UNL     1      -0.304  15.766  18.923  0.00  0.00    +0.000 C 
ATOM     37  C   UNL     1      -0.208  14.300  18.512  0.00  0.00    +0.000 C 
ENDBRANCH  30  31
ENDBRANCH   9  30
TORSDOF 9
ENDMDL
MODEL 9
REMARK VINA RESULT:      -7.8      5.892     10.937
REMARK  Name = 
REMARK  10 active torsions:
REMARK  status: ('A' for Active; 'I' for Inactive)
REMARK    1  A    between atoms: C_1  and  O_2
REMARK    2  A    between atoms: O_2  and  C_3
REMARK    3  A    between atoms: C_3  and  C_4
REMARK    4  A    between atoms: C_4  and  N_5
REMARK    5  A    between atoms: C_6  and  C_8
REMARK    6  A    between atoms: C_9  and  O_10
REMARK    7  A    between atoms: C_14  and  C_15
REMARK    8  A    between atoms: C_15  and  C_16
REMARK    9  A    between atoms: N_25  and  C_26
REMARK   10  A    between atoms: C_26  and  C_27
REMARK                            x       y       z     vdW  Elec       q    Type
REMARK                         _______ _______ _______ _____ _____    ______ ____
ROOT
ATOM      1  C   UNL     1      -1.177  11.587  21.992  0.00  0.00    +0.000 A 
ATOM      2  C   UNL     1      -0.587  10.400  22.234  0.00  0.00    +0.000 A 
ATOM      3  C   UNL     1       0.232   9.749  21.197  0.00  0.00    +0.000 A 
ATOM      4  N   UNL     1       0.765   8.538  21.508  0.00  0.00    +0.000 NA
ATOM      5  C   UNL     1       1.515   7.927  20.573  0.00  0.00    +0.000 A 
ATOM      6  C   UNL     1       1.783   8.466  19.324  0.00  0.00    +0.000 A 
ATOM      7  C   UNL     1       1.247   9.728  19.039  0.00  0.00    +0.000 A 
ATOM      8  C   UNL     1       0.437  10.387  19.970  0.00  0.00    +0.000 A 
ATOM      9  N   UNL     1      -0.173  11.653  19.720  0.00  0.00    +0.000 N 
ATOM     10  C   UNL     1      -0.970  12.269  20.681  0.00  0.00    +0.000 A 
ATOM     11  O   UNL     1      -1.478  13.376  20.490  0.00  0.00    +0.000 OA
ENDROOT
BRANCH   1  13
ATOM     12  N   UNL     1      -1.758  13.484  23.402  0.00  0.00    +0.000 N 
ATOM     13  C   UNL     1      -2.031  12.187  23.074  0.00  0.00    +0.000 C 
ATOM     14  O   UNL     1      -2.938  11.543  23.606  0.00  0.00    +0.000 OA
ATOM     15  H   UNL     1      -0.887  13.895  23.061  0.00  0.00    +0.000 HD
BRANCH  12  16
ATOM     16  C   UNL     1      -2.452  14.227  24.436  0.00  0.00    +0.000 C 
BRANCH  16  17
ATOM     17  C   UNL     1      -3.067  15.518  23.894  0.00  0.00    +0.000 C 
BRANCH  17  19
ATOM     18  C   UNL     1      -5.213  14.556  23.677  0.00  0.00    +0.000 C 
ATOM     19  O   UNL     1      -4.134  15.182  22.998  0.00  0.00    +0.000 OA
ENDBRANCH  17  19
ENDBRANCH  16  17
ENDBRANCH  12  16
ENDBRANCH   1  13
BRANCH   2  20
ATOM     20  O   UNL     1      -0.692   9.698  23.429  0.00  0.00    +0.000 OA
ATOM     21  H   UNL     1      -1.170  10.250  24.085  0.00  0.00    +0.000 HD
ENDBRANCH   2  20
BRANCH   6  22
ATOM     22  C   UNL     1       2.596   7.711  18.311  0.00  0.00    +0.000 C 
BRANCH  22  23
ATOM     23  C   UNL     1       2.680   6.221  18.552  0.00  0.00    +0.000 A 
ATOM     24  C   UNL     1       1.746   5.351  17.967  0.00  0.00    +0.000 A 
ATOM     25  C   UNL     1       1.877   3.969  18.117  0.00  0.00    +0.000 A 
ATOM     26  C   UNL     1       2.930   3.457  18.863  0.00  0.00    +0.000 A 
ATOM     27  F   UNL     1       3.076   2.131  18.977  0.00  0.00    +0.000 F 
ATOM     28  C   UNL     1       3.843   4.302  19.485  0.00  0.00    +0.000 A 
ATOM     29  C   UNL     1       3.715   5.685  19.337  0.00  0.00    +0.000 A 
ENDBRANCH  22  23
ENDBRANCH   6  22
BRANCH   9  30
ATOM     30  C   UNL     1       0.127  12.419  18.504  0.00  0.00    +0.000 C 
BRANCH  30  31
ATOM     31  C   UNL     1       1.413  13.273  18.428  0.00  0.00    +0.000 C 
ATOM     32  O   UNL     1       2.528  12.799  18.224  0.00  0.00    +0.000 OA
ATOM     33  N   UNL     1       1.243  14.609  18.770  0.00  0.00    +0.000 N 
ATOM     34  C   UNL     1       2.364  15.487  19.038  0.00  0.00    +0.000 C 
ATOM     35  C   UNL     1       1.710  16.715  19.653  0.00  0.00    +0.000 C 
ATOM     36  C   UNL     1       0.381  16.816  18.914  0.00  0.00    +0.000 C 
ATOM     37  C   UNL     1       0.024  15.376  18.563  0.00  0.00    +0.000 C 
ENDBRANCH  30  31
ENDBRANCH   9  30
TORSDOF 9
ENDMDL
