MODEL 1
REMARK VINA RESULT:      -7.5      0.000      0.000
REMARK  Name = 
REMARK  10 active torsions:
REMARK  status: ('A' for Active; 'I' for Inactive)
REMARK    1  A    between atoms: C_1  and  O_2
REMARK    2  A    between atoms: O_2  and  C_3
REMARK    3  A    between atoms: C_6  and  C_7
REMARK    4  A    between atoms: C_7  and  C_8
REMARK    5  A    between atoms: C_13  and  C_14
REMARK    6  A    between atoms: N_16  and  C_17
REMARK    7  A    between atoms: N_16  and  C_18
REMARK    8  A    between atoms: C_18  and  C_19
REMARK    9  A    between atoms: C_19  and  C_20
REMARK   10  A    between atoms: C_20  and  N_21
REMARK                            x       y       z     vdW  Elec       q    Type
REMARK                         _______ _______ _______ _____ _____    ______ ____
ROOT
ATOM      1  C   UNL     1       2.634   6.699  19.472  0.00  0.00    +0.000 A 
ATOM      2  N   UNL     1       2.641   7.421  18.370  0.00  0.00    +0.000 NA
ATOM      3  C   UNL     1       1.874   8.508  18.698  0.00  0.00    +0.000 A 
ATOM      4  C   UNL     1       1.534   9.631  17.952  0.00  0.00    +0.000 A 
ATOM      5  C   UNL     1       0.704  10.583  18.562  0.00  0.00    +0.000 A 
ATOM      6  C   UNL     1       0.218  10.481  19.897  0.00  0.00    +0.000 A 
ATOM      7  C   UNL     1       0.618   9.371  20.654  0.00  0.00    +0.000 A 
ATOM      8  C   UNL     1       1.418   8.409  20.001  0.00  0.00    +0.000 A 
ATOM      9  O   UNL     1       1.919   7.238  20.512  0.00  0.00    +0.000 OA
ENDROOT
BRANCH   6  10
ATOM     10  C   UNL     1      -0.641  11.647  20.328  0.00  0.00    +0.000 C 
ATOM     11  O   UNL     1      -0.627  12.572  19.493  0.00  0.00    +0.000 OA
ATOM     12  N   UNL     1      -1.433  11.771  21.486  0.00  0.00    +0.000 N 
ATOM     13  C   UNL     1      -1.197  11.084  22.742  0.00  0.00    +0.000 C 
BRANCH  12  14
ATOM     14  C   UNL     1      -2.293  12.990  21.642  0.00  0.00    +0.000 C 
BRANCH  14  15
ATOM     15  C   UNL     1      -3.786  12.737  21.438  0.00  0.00    +0.000 C 
BRANCH  15  16
ATOM     16  C   UNL     1      -4.333  12.864  20.010  0.00  0.00    +0.000 C 
BRANCH  16  17
ATOM     17  N   UNL     1      -5.147  11.671  19.669  0.00  0.00    +0.000 NA
ATOM     18  C   UNL     1      -5.199  11.360  18.215  0.00  0.00    +0.000 C 
ATOM     19  C   UNL     1      -5.977  12.408  17.407  0.00  0.00    +0.000 C 
ATOM     20  O   UNL     1      -7.327  12.501  17.875  0.00  0.00    +0.000 OA
ATOM     21  C   UNL     1      -7.369  12.805  19.275  0.00  0.00    +0.000 C 
ATOM     22  C   UNL     1      -6.546  11.810  20.117  0.00  0.00    +0.000 C 
ENDBRANCH  16  17
ENDBRANCH  15  16
ENDBRANCH  14  15
ENDBRANCH  12  14
ENDBRANCH   6  10
BRANCH   1  23
ATOM     23  C   UNL     1       3.437   5.463  19.739  0.00  0.00    +0.000 C 
BRANCH  23  27
ATOM     24  C   UNL     1       6.627   4.842  16.860  0.00  0.00    +0.000 A 
ATOM     25  C   UNL     1       5.305   4.502  16.549  0.00  0.00    +0.000 A 
ATOM     26  C   UNL     1       4.273   4.674  17.477  0.00  0.00    +0.000 A 
ATOM     27  C   UNL     1       4.554   5.163  18.752  0.00  0.00    +0.000 A 
ATOM     28  C   UNL     1       5.878   5.486  19.075  0.00  0.00    +0.000 A 
ATOM     29  C   UNL     1       6.905   5.323  18.138  0.00  0.00    +0.000 A 
BRANCH  24  31
ATOM     30  C   UNL     1       7.047   4.733  14.531  0.00  0.00    +0.000 C 
ATOM     31  O   UNL     1       7.541   4.629  15.864  0.00  0.00    +0.000 OA
ENDBRANCH  24  31
ENDBRANCH  23  27
ENDBRANCH   1  23
TORSDOF 8
ENDMDL
MODEL 2
REMARK VINA RESULT:      -7.5      2.599      3.366
REMARK  Name = 
REMARK  10 active torsions:
REMARK  status: ('A' for Active; 'I' for Inactive)
REMARK    1  A    between atoms: C_1  and  O_2
REMARK    2  A    between atoms: O_2  and  C_3
REMARK    3  A    between atoms: C_6  and  C_7
REMARK    4  A    between atoms: C_7  and  C_8
REMARK    5  A    between atoms: C_13  and  C_14
REMARK    6  A    between atoms: N_16  and  C_17
REMARK    7  A    between atoms: N_16  and  C_18
REMARK    8  A    between atoms: C_18  and  C_19
REMARK    9  A    between atoms: C_19  and  C_20
REMARK   10  A    between atoms: C_20  and  N_21
REMARK                            x       y       z     vdW  Elec       q    Type
REMARK                         _______ _______ _______ _____ _____    ______ ____
ROOT
ATOM      1  C   UNL     1       2.769   5.633  19.422  0.00  0.00    +0.000 A 
ATOM      2  N   UNL     1       2.182   5.942  20.559  0.00  0.00    +0.000 NA
ATOM      3  C   UNL     1       1.760   7.231  20.359  0.00  0.00    +0.000 A 
ATOM      4  C   UNL     1       1.055   8.090  21.194  0.00  0.00    +0.000 A 
ATOM      5  C   UNL     1       0.782   9.378  20.711  0.00  0.00    +0.000 A 
ATOM      6  C   UNL     1       1.153   9.842  19.417  0.00  0.00    +0.000 A 
ATOM      7  C   UNL     1       1.812   8.943  18.566  0.00  0.00    +0.000 A 
ATOM      8  C   UNL     1       2.112   7.669  19.094  0.00  0.00    +0.000 A 
ATOM      9  O   UNL     1       2.760   6.629  18.477  0.00  0.00    +0.000 OA
ENDROOT
BRANCH   6  10
ATOM     10  C   UNL     1       0.724  11.261  19.125  0.00  0.00    +0.000 C 
ATOM     11  O   UNL     1       1.576  12.092  19.495  0.00  0.00    +0.000 OA
ATOM     12  N   UNL     1      -0.448  11.709  18.487  0.00  0.00    +0.000 N 
ATOM     13  C   UNL     1      -1.712  10.995  18.455  0.00  0.00    +0.000 C 
BRANCH  12  14
ATOM     14  C   UNL     1      -0.602  13.174  18.209  0.00  0.00    +0.000 C 
BRANCH  14  15
ATOM     15  C   UNL     1      -0.923  14.018  19.442  0.00  0.00    +0.000 C 
BRANCH  15  16
ATOM     16  C   UNL     1      -1.939  13.449  20.440  0.00  0.00    +0.000 C 
BRANCH  16  17
ATOM     17  N   UNL     1      -1.513  13.752  21.829  0.00  0.00    +0.000 NA
ATOM     18  C   UNL     1      -0.676  12.695  22.457  0.00  0.00    +0.000 C 
ATOM     19  C   UNL     1      -1.454  11.400  22.731  0.00  0.00    +0.000 C 
ATOM     20  O   UNL     1      -2.555  11.655  23.610  0.00  0.00    +0.000 OA
ATOM     21  C   UNL     1      -3.421  12.663  23.076  0.00  0.00    +0.000 C 
ATOM     22  C   UNL     1      -2.666  13.960  22.727  0.00  0.00    +0.000 C 
ENDBRANCH  16  17
ENDBRANCH  15  16
ENDBRANCH  14  15
ENDBRANCH  12  14
ENDBRANCH   6  10
BRANCH   1  23
ATOM     23  C   UNL     1       3.290   4.288  19.019  0.00  0.00    +0.000 C 
BRANCH  23  27
ATOM     24  C   UNL     1       6.636   4.524  16.262  0.00  0.00    +0.000 A 
ATOM     25  C   UNL     1       5.372   4.113  15.821  0.00  0.00    +0.000 A 
ATOM     26  C   UNL     1       4.293   4.009  16.705  0.00  0.00    +0.000 A 
ATOM     27  C   UNL     1       4.470   4.286  18.060  0.00  0.00    +0.000 A 
ATOM     28  C   UNL     1       5.737   4.677  18.510  0.00  0.00    +0.000 A 
ATOM     29  C   UNL     1       6.811   4.791  17.619  0.00  0.00    +0.000 A 
BRANCH  24  31
ATOM     30  C   UNL     1       7.144   4.761  13.960  0.00  0.00    +0.000 C 
ATOM     31  O   UNL     1       7.605   4.587  15.298  0.00  0.00    +0.000 OA
ENDBRANCH  24  31
ENDBRANCH  23  27
ENDBRANCH   1  23
TORSDOF 8
ENDMDL
MODEL 3
REMARK VINA RESULT:      -7.4      2.796      3.800
REMARK  Name = 
REMARK  10 active torsions:
REMARK  status: ('A' for Active; 'I' for Inactive)
REMARK    1  A    between atoms: C_1  and  O_2
REMARK    2  A    between atoms: O_2  and  C_3
REMARK    3  A    between atoms: C_6  and  C_7
REMARK    4  A    between atoms: C_7  and  C_8
REMARK    5  A    between atoms: C_13  and  C_14
REMARK    6  A    between atoms: N_16  and  C_17
REMARK    7  A    between atoms: N_16  and  C_18
REMARK    8  A    between atoms: C_18  and  C_19
REMARK    9  A    between atoms: C_19  and  C_20
REMARK   10  A    between atoms: C_20  and  N_21
REMARK                            x       y       z     vdW  Elec       q    Type
REMARK                         _______ _______ _______ _____ _____    ______ ____
ROOT
ATOM      1  C   UNL     1       1.646   8.703  19.187  0.00  0.00    +0.000 A 
ATOM      2  N   UNL     1       1.591   8.122  20.368  0.00  0.00    +0.000 NA
ATOM      3  C   UNL     1       0.858   9.001  21.121  0.00  0.00    +0.000 A 
ATOM      4  C   UNL     1       0.446   8.929  22.447  0.00  0.00    +0.000 A 
ATOM      5  C   UNL     1      -0.288  10.011  22.954  0.00  0.00    +0.000 A 
ATOM      6  C   UNL     1      -0.657  11.155  22.189  0.00  0.00    +0.000 A 
ATOM      7  C   UNL     1      -0.283  11.185  20.838  0.00  0.00    +0.000 A 
ATOM      8  C   UNL     1       0.491  10.102  20.367  0.00  0.00    +0.000 A 
ATOM      9  O   UNL     1       0.993   9.908  19.104  0.00  0.00    +0.000 OA
ENDROOT
BRANCH   6  10
ATOM     10  C   UNL     1      -1.467  12.173  22.957  0.00  0.00    +0.000 C 
ATOM     11  O   UNL     1      -2.527  11.689  23.400  0.00  0.00    +0.000 OA
ATOM     12  N   UNL     1      -1.148  13.515  23.237  0.00  0.00    +0.000 N 
ATOM     13  C   UNL     1      -0.282  14.358  22.434  0.00  0.00    +0.000 C 
BRANCH  12  14
ATOM     14  C   UNL     1      -2.067  14.304  24.122  0.00  0.00    +0.000 C 
BRANCH  14  15
ATOM     15  C   UNL     1      -2.901  15.353  23.388  0.00  0.00    +0.000 C 
BRANCH  15  16
ATOM     16  C   UNL     1      -4.189  14.877  22.704  0.00  0.00    +0.000 C 
BRANCH  16  17
ATOM     17  N   UNL     1      -5.244  14.634  23.717  0.00  0.00    +0.000 NA
ATOM     18  C   UNL     1      -5.721  13.227  23.780  0.00  0.00    +0.000 C 
ATOM     19  C   UNL     1      -6.503  12.804  22.529  0.00  0.00    +0.000 C 
ATOM     20  O   UNL     1      -7.652  13.639  22.349  0.00  0.00    +0.000 OA
ATOM     21  C   UNL     1      -7.280  15.021  22.272  0.00  0.00    +0.000 C 
ATOM     22  C   UNL     1      -6.438  15.470  23.483  0.00  0.00    +0.000 C 
ENDBRANCH  16  17
ENDBRANCH  15  16
ENDBRANCH  14  15
ENDBRANCH  12  14
ENDBRANCH   6  10
BRANCH   1  23
ATOM     23  C   UNL     1       2.201   8.118  17.925  0.00  0.00    +0.000 C 
BRANCH  23  27
ATOM     24  C   UNL     1       3.738   4.093  18.457  0.00  0.00    +0.000 A 
ATOM     25  C   UNL     1       4.608   5.188  18.385  0.00  0.00    +0.000 A 
ATOM     26  C   UNL     1       4.125   6.486  18.189  0.00  0.00    +0.000 A 
ATOM     27  C   UNL     1       2.759   6.707  18.029  0.00  0.00    +0.000 A 
ATOM     28  C   UNL     1       1.886   5.613  18.079  0.00  0.00    +0.000 A 
ATOM     29  C   UNL     1       2.373   4.317  18.288  0.00  0.00    +0.000 A 
BRANCH  24  31
ATOM     30  C   UNL     1       4.273   2.360  19.982  0.00  0.00    +0.000 C 
ATOM     31  O   UNL     1       4.336   2.878  18.655  0.00  0.00    +0.000 OA
ENDBRANCH  24  31
ENDBRANCH  23  27
ENDBRANCH   1  23
TORSDOF 8
ENDMDL
MODEL 4
REMARK VINA RESULT:      -7.3      2.366      3.342
REMARK  Name = 
REMARK  10 active torsions:
REMARK  status: ('A' for Active; 'I' for Inactive)
REMARK    1  A    between atoms: C_1  and  O_2
REMARK    2  A    between atoms: O_2  and  C_3
REMARK    3  A    between atoms: C_6  and  C_7
REMARK    4  A    between atoms: C_7  and  C_8
REMARK    5  A    between atoms: C_13  and  C_14
REMARK    6  A    between atoms: N_16  and  C_17
REMARK    7  A    between atoms: N_16  and  C_18
REMARK    8  A    between atoms: C_18  and  C_19
REMARK    9  A    between atoms: C_19  and  C_20
REMARK   10  A    between atoms: C_20  and  N_21
REMARK                            x       y       z     vdW  Elec       q    Type
REMARK                         _______ _______ _______ _____ _____    ______ ____
ROOT
ATOM      1  C   UNL     1       3.415   5.552  18.795  0.00  0.00    +0.000 A 
ATOM      2  N   UNL     1       2.865   5.559  19.992  0.00  0.00    +0.000 NA
ATOM      3  C   UNL     1       2.221   6.767  20.039  0.00  0.00    +0.000 A 
ATOM      4  C   UNL     1       1.443   7.337  21.041  0.00  0.00    +0.000 A 
ATOM      5  C   UNL     1       0.925   8.619  20.804  0.00  0.00    +0.000 A 
ATOM      6  C   UNL     1       1.123   9.351  19.598  0.00  0.00    +0.000 A 
ATOM      7  C   UNL     1       1.861   8.738  18.576  0.00  0.00    +0.000 A 
ATOM      8  C   UNL     1       2.406   7.466  18.859  0.00  0.00    +0.000 A 
ATOM      9  O   UNL     1       3.174   6.675  18.041  0.00  0.00    +0.000 OA
ENDROOT
BRANCH   6  10
ATOM     10  C   UNL     1       0.444  10.700  19.579  0.00  0.00    +0.000 C 
ATOM     11  O   UNL     1       0.982  11.506  20.364  0.00  0.00    +0.000 OA
ATOM     12  N   UNL     1      -0.643  11.124  18.790  0.00  0.00    +0.000 N 
ATOM     13  C   UNL     1      -1.669  10.258  18.240  0.00  0.00    +0.000 C 
BRANCH  12  14
ATOM     14  C   UNL     1      -1.074  12.558  18.869  0.00  0.00    +0.000 C 
BRANCH  14  15
ATOM     15  C   UNL     1      -2.344  12.789  19.686  0.00  0.00    +0.000 C 
BRANCH  15  16
ATOM     16  C   UNL     1      -2.226  12.702  21.213  0.00  0.00    +0.000 C 
BRANCH  16  17
ATOM     17  N   UNL     1      -3.576  12.699  21.829  0.00  0.00    +0.000 NA
ATOM     18  C   UNL     1      -4.381  13.917  21.547  0.00  0.00    +0.000 C 
ATOM     19  C   UNL     1      -3.821  15.175  22.225  0.00  0.00    +0.000 C 
ATOM     20  O   UNL     1      -3.786  15.004  23.646  0.00  0.00    +0.000 OA
ATOM     21  C   UNL     1      -3.020  13.849  24.009  0.00  0.00    +0.000 C 
ATOM     22  C   UNL     1      -3.512  12.572  23.298  0.00  0.00    +0.000 C 
ENDBRANCH  16  17
ENDBRANCH  15  16
ENDBRANCH  14  15
ENDBRANCH  12  14
ENDBRANCH   6  10
BRANCH   1  23
ATOM     23  C   UNL     1       4.123   4.407  18.140  0.00  0.00    +0.000 C 
BRANCH  23  27
ATOM     24  C   UNL     1       7.008   5.221  14.999  0.00  0.00    +0.000 A 
ATOM     25  C   UNL     1       7.177   5.755  16.282  0.00  0.00    +0.000 A 
ATOM     26  C   UNL     1       6.241   5.520  17.295  0.00  0.00    +0.000 A 
ATOM     27  C   UNL     1       5.098   4.768  17.029  0.00  0.00    +0.000 A 
ATOM     28  C   UNL     1       4.914   4.249  15.742  0.00  0.00    +0.000 A 
ATOM     29  C   UNL     1       5.860   4.477  14.735  0.00  0.00    +0.000 A 
BRANCH  24  31
ATOM     30  C   UNL     1       7.771   5.096  12.760  0.00  0.00    +0.000 C 
ATOM     31  O   UNL     1       7.996   5.522  14.101  0.00  0.00    +0.000 OA
ENDBRANCH  24  31
ENDBRANCH  23  27
ENDBRANCH   1  23
TORSDOF 8
ENDMDL
MODEL 5
REMARK VINA RESULT:      -7.3      2.845      3.741
REMARK  Name = 
REMARK  10 active torsions:
REMARK  status: ('A' for Active; 'I' for Inactive)
REMARK    1  A    between atoms: C_1  and  O_2
REMARK    2  A    between atoms: O_2  and  C_3
REMARK    3  A    between atoms: C_6  and  C_7
REMARK    4  A    between atoms: C_7  and  C_8
REMARK    5  A    between atoms: C_13  and  C_14
REMARK    6  A    between atoms: N_16  and  C_17
REMARK    7  A    between atoms: N_16  and  C_18
REMARK    8  A    between atoms: C_18  and  C_19
REMARK    9  A    between atoms: C_19  and  C_20
REMARK   10  A    between atoms: C_20  and  N_21
REMARK                            x       y       z     vdW  Elec       q    Type
REMARK                         _______ _______ _______ _____ _____    ______ ____
ROOT
ATOM      1  C   UNL     1       3.027   5.681  19.448  0.00  0.00    +0.000 A 
ATOM      2  N   UNL     1       2.393   5.971  20.566  0.00  0.00    +0.000 NA
ATOM      3  C   UNL     1       1.857   7.208  20.315  0.00  0.00    +0.000 A 
ATOM      4  C   UNL     1       1.060   8.024  21.110  0.00  0.00    +0.000 A 
ATOM      5  C   UNL     1       0.677   9.265  20.579  0.00  0.00    +0.000 A 
ATOM      6  C   UNL     1       1.027   9.719  19.275  0.00  0.00    +0.000 A 
ATOM      7  C   UNL     1       1.782   8.858  18.466  0.00  0.00    +0.000 A 
ATOM      8  C   UNL     1       2.189   7.635  19.042  0.00  0.00    +0.000 A 
ATOM      9  O   UNL     1       2.942   6.641  18.469  0.00  0.00    +0.000 OA
ENDROOT
BRANCH   6  10
ATOM     10  C   UNL     1       0.473  11.081  18.929  0.00  0.00    +0.000 C 
ATOM     11  O   UNL     1      -0.774  11.088  18.917  0.00  0.00    +0.000 OA
ATOM     12  N   UNL     1       1.175  12.273  18.671  0.00  0.00    +0.000 N 
ATOM     13  C   UNL     1       2.530  12.356  18.157  0.00  0.00    +0.000 C 
BRANCH  12  14
ATOM     14  C   UNL     1       0.395  13.536  18.458  0.00  0.00    +0.000 C 
BRANCH  14  15
ATOM     15  C   UNL     1       0.785  14.682  19.392  0.00  0.00    +0.000 C 
BRANCH  15  16
ATOM     16  C   UNL     1       0.308  14.598  20.847  0.00  0.00    +0.000 C 
BRANCH  16  17
ATOM     17  N   UNL     1      -0.997  13.894  20.916  0.00  0.00    +0.000 NA
ATOM     18  C   UNL     1      -2.178  14.796  20.955  0.00  0.00    +0.000 C 
ATOM     19  C   UNL     1      -2.278  15.594  22.263  0.00  0.00    +0.000 C 
ATOM     20  O   UNL     1      -2.377  14.708  23.384  0.00  0.00    +0.000 OA
ATOM     21  C   UNL     1      -1.268  13.802  23.426  0.00  0.00    +0.000 C 
ATOM     22  C   UNL     1      -1.094  13.026  22.105  0.00  0.00    +0.000 C 
ENDBRANCH  16  17
ENDBRANCH  15  16
ENDBRANCH  14  15
ENDBRANCH  12  14
ENDBRANCH   6  10
BRANCH   1  23
ATOM     23  C   UNL     1       3.678   4.379  19.099  0.00  0.00    +0.000 C 
BRANCH  23  27
ATOM     24  C   UNL     1       6.792   4.792  16.102  0.00  0.00    +0.000 A 
ATOM     25  C   UNL     1       5.505   4.374  15.744  0.00  0.00    +0.000 A 
ATOM     26  C   UNL     1       4.501   4.213  16.705  0.00  0.00    +0.000 A 
ATOM     27  C   UNL     1       4.779   4.439  18.051  0.00  0.00    +0.000 A 
ATOM     28  C   UNL     1       6.070   4.837  18.417  0.00  0.00    +0.000 A 
ATOM     29  C   UNL     1       7.069   5.008  17.451  0.00  0.00    +0.000 A 
BRANCH  24  31
ATOM     30  C   UNL     1       7.136   4.784  13.758  0.00  0.00    +0.000 C 
ATOM     31  O   UNL     1       7.681   4.914  15.069  0.00  0.00    +0.000 OA
ENDBRANCH  24  31
ENDBRANCH  23  27
ENDBRANCH   1  23
TORSDOF 8
ENDMDL
MODEL 6
REMARK VINA RESULT:      -7.3      2.159      3.152
REMARK  Name = 
REMARK  10 active torsions:
REMARK  status: ('A' for Active; 'I' for Inactive)
REMARK    1  A    between atoms: C_1  and  O_2
REMARK    2  A    between atoms: O_2  and  C_3
REMARK    3  A    between atoms: C_6  and  C_7
REMARK    4  A    between atoms: C_7  and  C_8
REMARK    5  A    between atoms: C_13  and  C_14
REMARK    6  A    between atoms: N_16  and  C_17
REMARK    7  A    between atoms: N_16  and  C_18
REMARK    8  A    between atoms: C_18  and  C_19
REMARK    9  A    between atoms: C_19  and  C_20
REMARK   10  A    between atoms: C_20  and  N_21
REMARK                            x       y       z     vdW  Elec       q    Type
REMARK                         _______ _______ _______ _____ _____    ______ ____
ROOT
ATOM      1  C   UNL     1       2.626   6.180  19.816  0.00  0.00    +0.000 A 
ATOM      2  N   UNL     1       1.888   6.441  20.875  0.00  0.00    +0.000 NA
ATOM      3  C   UNL     1       1.346   7.667  20.591  0.00  0.00    +0.000 A 
ATOM      4  C   UNL     1       0.462   8.454  21.322  0.00  0.00    +0.000 A 
ATOM      5  C   UNL     1       0.096   9.692  20.772  0.00  0.00    +0.000 A 
ATOM      6  C   UNL     1       0.549  10.171  19.509  0.00  0.00    +0.000 A 
ATOM      7  C   UNL     1       1.393   9.339  18.761  0.00  0.00    +0.000 A 
ATOM      8  C   UNL     1       1.779   8.119  19.357  0.00  0.00    +0.000 A 
ATOM      9  O   UNL     1       2.604   7.150  18.844  0.00  0.00    +0.000 OA
ENDROOT
BRANCH   6  10
ATOM     10  C   UNL     1      -0.006  11.524  19.130  0.00  0.00    +0.000 C 
ATOM     11  O   UNL     1      -1.112  11.432  18.561  0.00  0.00    +0.000 OA
ATOM     12  N   UNL     1       0.545  12.796  19.370  0.00  0.00    +0.000 N 
ATOM     13  C   UNL     1       1.959  13.082  19.533  0.00  0.00    +0.000 C 
BRANCH  12  14
ATOM     14  C   UNL     1      -0.253  14.010  18.994  0.00  0.00    +0.000 C 
BRANCH  14  15
ATOM     15  C   UNL     1      -0.825  14.779  20.184  0.00  0.00    +0.000 C 
BRANCH  15  16
ATOM     16  C   UNL     1      -1.206  13.969  21.429  0.00  0.00    +0.000 C 
BRANCH  16  17
ATOM     17  N   UNL     1      -2.438  14.525  22.042  0.00  0.00    +0.000 NA
ATOM     18  C   UNL     1      -2.759  13.971  23.384  0.00  0.00    +0.000 C 
ATOM     19  C   UNL     1      -3.173  12.494  23.338  0.00  0.00    +0.000 C 
ATOM     20  O   UNL     1      -4.332  12.325  22.514  0.00  0.00    +0.000 OA
ATOM     21  C   UNL     1      -4.107  12.830  21.193  0.00  0.00    +0.000 C 
ATOM     22  C   UNL     1      -3.627  14.295  21.199  0.00  0.00    +0.000 C 
ENDBRANCH  16  17
ENDBRANCH  15  16
ENDBRANCH  14  15
ENDBRANCH  12  14
ENDBRANCH   6  10
BRANCH   1  23
ATOM     23  C   UNL     1       3.337   4.899  19.512  0.00  0.00    +0.000 C 
BRANCH  23  27
ATOM     24  C   UNL     1       6.434   4.853  16.470  0.00  0.00    +0.000 A 
ATOM     25  C   UNL     1       6.719   5.272  17.775  0.00  0.00    +0.000 A 
ATOM     26  C   UNL     1       5.723   5.315  18.756  0.00  0.00    +0.000 A 
ATOM     27  C   UNL     1       4.412   4.967  18.438  0.00  0.00    +0.000 A 
ATOM     28  C   UNL     1       4.118   4.567  17.128  0.00  0.00    +0.000 A 
ATOM     29  C   UNL     1       5.120   4.515  16.153  0.00  0.00    +0.000 A 
BRANCH  24  31
ATOM     30  C   UNL     1       7.175   4.744  14.222  0.00  0.00    +0.000 C 
ATOM     31  O   UNL     1       7.496   4.854  15.606  0.00  0.00    +0.000 OA
ENDBRANCH  24  31
ENDBRANCH  23  27
ENDBRANCH   1  23
TORSDOF 8
ENDMDL
MODEL 7
REMARK VINA RESULT:      -7.3      2.734     10.949
REMARK  Name = 
REMARK  10 active torsions:
REMARK  status: ('A' for Active; 'I' for Inactive)
REMARK    1  A    between atoms: C_1  and  O_2
REMARK    2  A    between atoms: O_2  and  C_3
REMARK    3  A    between atoms: C_6  and  C_7
REMARK    4  A    between atoms: C_7  and  C_8
REMARK    5  A    between atoms: C_13  and  C_14
REMARK    6  A    between atoms: N_16  and  C_17
REMARK    7  A    between atoms: N_16  and  C_18
REMARK    8  A    between atoms: C_18  and  C_19
REMARK    9  A    between atoms: C_19  and  C_20
REMARK   10  A    between atoms: C_20  and  N_21
REMARK                            x       y       z     vdW  Elec       q    Type
REMARK                         _______ _______ _______ _____ _____    ______ ____
ROOT
ATOM      1  C   UNL     1       0.093  10.563  21.581  0.00  0.00    +0.000 A 
ATOM      2  N   UNL     1       0.301  10.902  20.325  0.00  0.00    +0.000 NA
ATOM      3  C   UNL     1       0.913   9.796  19.795  0.00  0.00    +0.000 A 
ATOM      4  C   UNL     1       1.355   9.542  18.501  0.00  0.00    +0.000 A 
ATOM      5  C   UNL     1       1.972   8.305  18.262  0.00  0.00    +0.000 A 
ATOM      6  C   UNL     1       2.142   7.293  19.250  0.00  0.00    +0.000 A 
ATOM      7  C   UNL     1       1.639   7.543  20.534  0.00  0.00    +0.000 A 
ATOM      8  C   UNL     1       1.062   8.812  20.757  0.00  0.00    +0.000 A 
ATOM      9  O   UNL     1       0.520   9.303  21.919  0.00  0.00    +0.000 OA
ENDROOT
BRANCH   6  10
ATOM     10  C   UNL     1       2.816   6.042  18.737  0.00  0.00    +0.000 C 
ATOM     11  O   UNL     1       3.137   6.142  17.537  0.00  0.00    +0.000 OA
ATOM     12  N   UNL     1       3.129   4.863  19.441  0.00  0.00    +0.000 N 
ATOM     13  C   UNL     1       2.428   4.374  20.614  0.00  0.00    +0.000 C 
BRANCH  12  14
ATOM     14  C   UNL     1       3.907   3.790  18.739  0.00  0.00    +0.000 C 
BRANCH  14  15
ATOM     15  C   UNL     1       5.414   3.844  18.982  0.00  0.00    +0.000 C 
BRANCH  15  16
ATOM     16  C   UNL     1       6.030   5.214  19.293  0.00  0.00    +0.000 C 
BRANCH  16  17
ATOM     17  N   UNL     1       7.449   5.245  18.861  0.00  0.00    +0.000 NA
ATOM     18  C   UNL     1       7.997   6.612  18.656  0.00  0.00    +0.000 C 
ATOM     19  C   UNL     1       7.374   7.333  17.452  0.00  0.00    +0.000 C 
ATOM     20  O   UNL     1       7.607   6.591  16.250  0.00  0.00    +0.000 OA
ATOM     21  C   UNL     1       7.102   5.255  16.358  0.00  0.00    +0.000 C 
ATOM     22  C   UNL     1       7.656   4.518  17.593  0.00  0.00    +0.000 C 
ENDBRANCH  16  17
ENDBRANCH  15  16
ENDBRANCH  14  15
ENDBRANCH  12  14
ENDBRANCH   6  10
BRANCH   1  23
ATOM     23  C   UNL     1      -0.683  11.337  22.601  0.00  0.00    +0.000 C 
BRANCH  23  27
ATOM     24  C   UNL     1      -2.266  15.072  21.054  0.00  0.00    +0.000 A 
ATOM     25  C   UNL     1      -1.006  15.026  21.662  0.00  0.00    +0.000 A 
ATOM     26  C   UNL     1      -0.496  13.833  22.186  0.00  0.00    +0.000 A 
ATOM     27  C   UNL     1      -1.258  12.667  22.139  0.00  0.00    +0.000 A 
ATOM     28  C   UNL     1      -2.528  12.712  21.551  0.00  0.00    +0.000 A 
ATOM     29  C   UNL     1      -3.028  13.906  21.017  0.00  0.00    +0.000 A 
BRANCH  24  31
ATOM     30  C   UNL     1      -1.901  17.413  21.060  0.00  0.00    +0.000 C 
ATOM     31  O   UNL     1      -2.647  16.298  20.579  0.00  0.00    +0.000 OA
ENDBRANCH  24  31
ENDBRANCH  23  27
ENDBRANCH   1  23
TORSDOF 8
ENDMDL
MODEL 8
REMARK VINA RESULT:      -7.3      2.736      3.707
REMARK  Name = 
REMARK  10 active torsions:
REMARK  status: ('A' for Active; 'I' for Inactive)
REMARK    1  A    between atoms: C_1  and  O_2
REMARK    2  A    between atoms: O_2  and  C_3
REMARK    3  A    between atoms: C_6  and  C_7
REMARK    4  A    between atoms: C_7  and  C_8
REMARK    5  A    between atoms: C_13  and  C_14
REMARK    6  A    between atoms: N_16  and  C_17
REMARK    7  A    between atoms: N_16  and  C_18
REMARK    8  A    between atoms: C_18  and  C_19
REMARK    9  A    between atoms: C_19  and  C_20
REMARK   10  A    between atoms: C_20  and  N_21
REMARK                            x       y       z     vdW  Elec       q    Type
REMARK                         _______ _______ _______ _____ _____    ______ ____
ROOT
ATOM      1  C   UNL     1       2.225   8.472  18.323  0.00  0.00    +0.000 A 
ATOM      2  N   UNL     1       1.880   8.284  19.580  0.00  0.00    +0.000 NA
ATOM      3  C   UNL     1       1.000   9.306  19.825  0.00  0.00    +0.000 A 
ATOM      4  C   UNL     1       0.281   9.623  20.972  0.00  0.00    +0.000 A 
ATOM      5  C   UNL     1      -0.537  10.761  20.926  0.00  0.00    +0.000 A 
ATOM      6  C   UNL     1      -0.696  11.585  19.775  0.00  0.00    +0.000 A 
ATOM      7  C   UNL     1      -0.009  11.217  18.609  0.00  0.00    +0.000 A 
ATOM      8  C   UNL     1       0.840  10.093  18.698  0.00  0.00    +0.000 A 
ATOM      9  O   UNL     1       1.627   9.548  17.714  0.00  0.00    +0.000 OA
ENDROOT
BRANCH   6  10
ATOM     10  C   UNL     1      -1.651  12.739  19.972  0.00  0.00    +0.000 C 
ATOM     11  O   UNL     1      -2.790  12.482  19.535  0.00  0.00    +0.000 OA
ATOM     12  N   UNL     1      -1.411  13.980  20.590  0.00  0.00    +0.000 N 
ATOM     13  C   UNL     1      -0.118  14.634  20.687  0.00  0.00    +0.000 C 
BRANCH  12  14
ATOM     14  C   UNL     1      -2.557  14.930  20.768  0.00  0.00    +0.000 C 
BRANCH  14  15
ATOM     15  C   UNL     1      -2.685  15.507  22.177  0.00  0.00    +0.000 C 
BRANCH  15  16
ATOM     16  C   UNL     1      -3.608  14.772  23.158  0.00  0.00    +0.000 C 
BRANCH  16  17
ATOM     17  N   UNL     1      -3.883  13.399  22.667  0.00  0.00    +0.000 NA
ATOM     18  C   UNL     1      -5.308  13.143  22.329  0.00  0.00    +0.000 C 
ATOM     19  C   UNL     1      -6.223  13.135  23.562  0.00  0.00    +0.000 C 
ATOM     20  O   UNL     1      -5.811  12.120  24.484  0.00  0.00    +0.000 OA
ATOM     21  C   UNL     1      -4.442  12.295  24.869  0.00  0.00    +0.000 C 
ATOM     22  C   UNL     1      -3.497  12.372  23.654  0.00  0.00    +0.000 C 
ENDBRANCH  16  17
ENDBRANCH  15  16
ENDBRANCH  14  15
ENDBRANCH  12  14
ENDBRANCH   6  10
BRANCH   1  23
ATOM     23  C   UNL     1       3.058   7.561  17.476  0.00  0.00    +0.000 C 
BRANCH  23  27
ATOM     24  C   UNL     1       3.787   3.495  18.811  0.00  0.00    +0.000 A 
ATOM     25  C   UNL     1       2.510   3.895  18.401  0.00  0.00    +0.000 A 
ATOM     26  C   UNL     1       2.258   5.209  17.993  0.00  0.00    +0.000 A 
ATOM     27  C   UNL     1       3.279   6.157  18.018  0.00  0.00    +0.000 A 
ATOM     28  C   UNL     1       4.553   5.767  18.448  0.00  0.00    +0.000 A 
ATOM     29  C   UNL     1       4.803   4.447  18.844  0.00  0.00    +0.000 A 
BRANCH  24  31
ATOM     30  C   UNL     1       4.472   1.944  20.467  0.00  0.00    +0.000 C 
ATOM     31  O   UNL     1       3.902   2.182  19.182  0.00  0.00    +0.000 OA
ENDBRANCH  24  31
ENDBRANCH  23  27
ENDBRANCH   1  23
TORSDOF 8
ENDMDL
MODEL 9
REMARK VINA RESULT:      -7.2      3.040      4.673
REMARK  Name = 
REMARK  10 active torsions:
REMARK  status: ('A' for Active; 'I' for Inactive)
REMARK    1  A    between atoms: C_1  and  O_2
REMARK    2  A    between atoms: O_2  and  C_3
REMARK    3  A    between atoms: C_6  and  C_7
REMARK    4  A    between atoms: C_7  and  C_8
REMARK    5  A    between atoms: C_13  and  C_14
REMARK    6  A    between atoms: N_16  and  C_17
REMARK    7  A    between atoms: N_16  and  C_18
REMARK    8  A    between atoms: C_18  and  C_19
REMARK    9  A    between atoms: C_19  and  C_20
REMARK   10  A    between atoms: C_20  and  N_21
REMARK                            x       y       z     vdW  Elec       q    Type
REMARK                         _______ _______ _______ _____ _____    ______ ____
ROOT
ATOM      1  C   UNL     1       2.763   5.718  19.619  0.00  0.00    +0.000 A 
ATOM      2  N   UNL     1       2.071   6.038  20.693  0.00  0.00    +0.000 NA
ATOM      3  C   UNL     1       1.677   7.327  20.445  0.00  0.00    +0.000 A 
ATOM      4  C   UNL     1       0.901   8.196  21.203  0.00  0.00    +0.000 A 
ATOM      5  C   UNL     1       0.682   9.482  20.688  0.00  0.00    +0.000 A 
ATOM      6  C   UNL     1       1.179   9.935  19.432  0.00  0.00    +0.000 A 
ATOM      7  C   UNL     1       1.912   9.027  18.654  0.00  0.00    +0.000 A 
ATOM      8  C   UNL     1       2.152   7.755  19.217  0.00  0.00    +0.000 A 
ATOM      9  O   UNL     1       2.851   6.707  18.671  0.00  0.00    +0.000 OA
ENDROOT
BRANCH   6  10
ATOM     10  C   UNL     1       0.788  11.354  19.092  0.00  0.00    +0.000 C 
ATOM     11  O   UNL     1       1.730  12.153  19.263  0.00  0.00    +0.000 OA
ATOM     12  N   UNL     1      -0.441  11.830  18.598  0.00  0.00    +0.000 N 
ATOM     13  C   UNL     1      -1.732  11.200  18.810  0.00  0.00    +0.000 C 
BRANCH  12  14
ATOM     14  C   UNL     1      -0.556  13.279  18.227  0.00  0.00    +0.000 C 
BRANCH  14  15
ATOM     15  C   UNL     1      -0.682  14.226  19.419  0.00  0.00    +0.000 C 
BRANCH  15  16
ATOM     16  C   UNL     1      -0.530  15.728  19.145  0.00  0.00    +0.000 C 
BRANCH  16  17
ATOM     17  N   UNL     1       0.281  16.361  20.214  0.00  0.00    +0.000 NA
ATOM     18  C   UNL     1       0.368  17.843  20.121  0.00  0.00    +0.000 C 
ATOM     19  C   UNL     1       1.177  18.318  18.906  0.00  0.00    +0.000 C 
ATOM     20  O   UNL     1       2.515  17.812  18.966  0.00  0.00    +0.000 OA
ATOM     21  C   UNL     1       2.524  16.382  19.053  0.00  0.00    +0.000 C 
ATOM     22  C   UNL     1       1.669  15.861  20.225  0.00  0.00    +0.000 C 
ENDBRANCH  16  17
ENDBRANCH  15  16
ENDBRANCH  14  15
ENDBRANCH  12  14
ENDBRANCH   6  10
BRANCH   1  23
ATOM     23  C   UNL     1       3.313   4.368  19.276  0.00  0.00    +0.000 C 
BRANCH  23  27
ATOM     24  C   UNL     1       6.558   4.542  16.397  0.00  0.00    +0.000 A 
ATOM     25  C   UNL     1       5.263   4.192  15.996  0.00  0.00    +0.000 A 
ATOM     26  C   UNL     1       4.215   4.108  16.919  0.00  0.00    +0.000 A 
ATOM     27  C   UNL     1       4.455   4.344  18.272  0.00  0.00    +0.000 A 
ATOM     28  C   UNL     1       5.752   4.675  18.681  0.00  0.00    +0.000 A 
ATOM     29  C   UNL     1       6.795   4.769  17.751  0.00  0.00    +0.000 A 
BRANCH  24  31
ATOM     30  C   UNL     1       6.986   4.806  14.082  0.00  0.00    +0.000 C 
ATOM     31  O   UNL     1       7.491   4.592  15.397  0.00  0.00    +0.000 OA
ENDBRANCH  24  31
ENDBRANCH  23  27
ENDBRANCH   1  23
TORSDOF 8
ENDMDL
