MODEL 1
REMARK VINA RESULT:      -7.6      0.000      0.000
REMARK  Name = 
REMARK  4 active torsions:
REMARK  status: ('A' for Active; 'I' for Inactive)
REMARK    1  A    between atoms: C_2  and  C_3
REMARK    2  A    between atoms: C_2  and  C_18
REMARK    3  A    between atoms: C_3  and  C_4
REMARK    4  A    between atoms: C_9  and  N_10
REMARK                            x       y       z     vdW  Elec       q    Type
REMARK                         _______ _______ _______ _____ _____    ______ ____
ROOT
ATOM      1  C   UNL     1       3.264   5.024  17.246  0.00  0.00    +0.000 A 
ATOM      2  C   UNL     1       4.219   4.478  16.364  0.00  0.00    +0.000 A 
ATOM      3  C   UNL     1       5.454   5.093  16.282  0.00  0.00    +0.000 A 
ATOM      4  C   UNL     1       5.773   6.213  17.033  0.00  0.00    +0.000 A 
ATOM      5  C   UNL     1       4.875   6.793  17.905  0.00  0.00    +0.000 A 
ATOM      6  C   UNL     1       3.616   6.180  18.005  0.00  0.00    +0.000 A 
ATOM      7  C   UNL     1       7.147   6.582  16.701  0.00  0.00    +0.000 C 
ATOM      8  O   UNL     1       7.752   7.523  17.174  0.00  0.00    +0.000 OA
ATOM      9  N   UNL     1       7.578   5.678  15.781  0.00  0.00    +0.000 N 
ATOM     10  C   UNL     1       6.623   4.760  15.470  0.00  0.00    +0.000 C 
ATOM     11  O   UNL     1       6.688   3.844  14.676  0.00  0.00    +0.000 OA
ATOM     12  H   UNL     1       8.493   5.693  15.366  0.00  0.00    +0.000 HD
ENDROOT
BRANCH   6  13
ATOM     13  N   UNL     1       2.654   6.801  18.906  0.00  0.00    +0.000 N 
ATOM     14  O   UNL     1       2.092   7.832  18.519  0.00  0.00    +0.000 OA
ATOM     15  O   UNL     1       2.489   6.255  20.004  0.00  0.00    +0.000 OA
ENDBRANCH   6  13
BRANCH   1  16
ATOM     16  C   UNL     1       1.929   4.312  17.383  0.00  0.00    +0.000 C 
BRANCH  16  18
ATOM     17  O   UNL     1       2.118   1.919  17.292  0.00  0.00    +0.000 OA
ATOM     18  C   UNL     1       2.056   2.921  18.010  0.00  0.00    +0.000 C 
BRANCH  18  19
ATOM     19  C   UNL     1       2.070   2.814  19.466  0.00  0.00    +0.000 A 
ATOM     20  C   UNL     1       0.972   2.888  20.303  0.00  0.00    +0.000 A 
ATOM     21  C   UNL     1       1.318   2.770  21.680  0.00  0.00    +0.000 A 
ATOM     22  C   UNL     1       2.674   2.615  21.854  0.00  0.00    +0.000 A 
ATOM     23  S   UNL     1       3.512   2.601  20.366  0.00  0.00    +0.000 S 
ENDBRANCH  18  19
ENDBRANCH  16  18
ENDBRANCH   1  16
TORSDOF 4
ENDMDL
MODEL 2
REMARK VINA RESULT:      -7.6      2.343      4.015
REMARK  Name = 
REMARK  4 active torsions:
REMARK  status: ('A' for Active; 'I' for Inactive)
REMARK    1  A    between atoms: C_2  and  C_3
REMARK    2  A    between atoms: C_2  and  C_18
REMARK    3  A    between atoms: C_3  and  C_4
REMARK    4  A    between atoms: C_9  and  N_10
REMARK                            x       y       z     vdW  Elec       q    Type
REMARK                         _______ _______ _______ _____ _____    ______ ____
ROOT
ATOM      1  C   UNL     1       4.380   4.469  18.879  0.00  0.00    +0.000 A 
ATOM      2  C   UNL     1       5.424   5.414  18.815  0.00  0.00    +0.000 A 
ATOM      3  C   UNL     1       6.149   5.501  17.641  0.00  0.00    +0.000 A 
ATOM      4  C   UNL     1       5.880   4.698  16.545  0.00  0.00    +0.000 A 
ATOM      5  C   UNL     1       4.875   3.753  16.556  0.00  0.00    +0.000 A 
ATOM      6  C   UNL     1       4.125   3.652  17.738  0.00  0.00    +0.000 A 
ATOM      7  C   UNL     1       6.825   5.066  15.493  0.00  0.00    +0.000 C 
ATOM      8  O   UNL     1       6.876   4.559  14.391  0.00  0.00    +0.000 OA
ATOM      9  N   UNL     1       7.603   6.057  16.004  0.00  0.00    +0.000 N 
ATOM     10  C   UNL     1       7.269   6.370  17.285  0.00  0.00    +0.000 C 
ATOM     11  O   UNL     1       7.783   7.189  18.020  0.00  0.00    +0.000 OA
ATOM     12  H   UNL     1       8.351   6.501  15.499  0.00  0.00    +0.000 HD
ENDROOT
BRANCH   6  13
ATOM     13  N   UNL     1       3.078   2.638  17.766  0.00  0.00    +0.000 N 
ATOM     14  O   UNL     1       3.360   1.540  18.259  0.00  0.00    +0.000 OA
ATOM     15  O   UNL     1       1.988   2.952  17.272  0.00  0.00    +0.000 OA
ENDBRANCH   6  13
BRANCH   1  16
ATOM     16  C   UNL     1       3.542   4.417  20.146  0.00  0.00    +0.000 C 
BRANCH  16  18
ATOM     17  O   UNL     1       1.142   4.381  20.230  0.00  0.00    +0.000 OA
ATOM     18  C   UNL     1       2.154   5.039  19.971  0.00  0.00    +0.000 C 
BRANCH  18  19
ATOM     19  C   UNL     1       2.064   6.405  19.465  0.00  0.00    +0.000 A 
ATOM     20  C   UNL     1       2.290   6.813  18.163  0.00  0.00    +0.000 A 
ATOM     21  C   UNL     1       2.144   8.220  17.993  0.00  0.00    +0.000 A 
ATOM     22  C   UNL     1       1.815   8.847  19.172  0.00  0.00    +0.000 A 
ATOM     23  S   UNL     1       1.674   7.740  20.466  0.00  0.00    +0.000 S 
ENDBRANCH  18  19
ENDBRANCH  16  18
ENDBRANCH   1  16
TORSDOF 4
ENDMDL
MODEL 3
REMARK VINA RESULT:      -7.6      2.986      4.327
REMARK  Name = 
REMARK  4 active torsions:
REMARK  status: ('A' for Active; 'I' for Inactive)
REMARK    1  A    between atoms: C_2  and  C_3
REMARK    2  A    between atoms: C_2  and  C_18
REMARK    3  A    between atoms: C_3  and  C_4
REMARK    4  A    between atoms: C_9  and  N_10
REMARK                            x       y       z     vdW  Elec       q    Type
REMARK                         _______ _______ _______ _____ _____    ______ ____
ROOT
ATOM      1  C   UNL     1       3.775   5.721  18.321  0.00  0.00    +0.000 A 
ATOM      2  C   UNL     1       5.009   6.327  18.010  0.00  0.00    +0.000 A 
ATOM      3  C   UNL     1       5.758   5.784  16.982  0.00  0.00    +0.000 A 
ATOM      4  C   UNL     1       5.332   4.680  16.262  0.00  0.00    +0.000 A 
ATOM      5  C   UNL     1       4.138   4.044  16.529  0.00  0.00    +0.000 A 
ATOM      6  C   UNL     1       3.361   4.583  17.567  0.00  0.00    +0.000 A 
ATOM      7  C   UNL     1       6.357   4.393  15.260  0.00  0.00    +0.000 C 
ATOM      8  O   UNL     1       6.312   3.486  14.455  0.00  0.00    +0.000 OA
ATOM      9  N   UNL     1       7.331   5.326  15.428  0.00  0.00    +0.000 N 
ATOM     10  C   UNL     1       7.054   6.189  16.442  0.00  0.00    +0.000 C 
ATOM     11  O   UNL     1       7.727   7.113  16.852  0.00  0.00    +0.000 OA
ATOM     12  H   UNL     1       8.171   5.366  14.876  0.00  0.00    +0.000 HD
ENDROOT
BRANCH   6  13
ATOM     13  N   UNL     1       2.110   3.902  17.871  0.00  0.00    +0.000 N 
ATOM     14  O   UNL     1       1.098   4.264  17.259  0.00  0.00    +0.000 OA
ATOM     15  O   UNL     1       2.154   3.021  18.739  0.00  0.00    +0.000 OA
ENDBRANCH   6  13
BRANCH   1  16
ATOM     16  C   UNL     1       2.923   6.355  19.408  0.00  0.00    +0.000 C 
BRANCH  16  18
ATOM     17  O   UNL     1       2.297   7.997  17.771  0.00  0.00    +0.000 OA
ATOM     18  C   UNL     1       2.229   7.641  18.951  0.00  0.00    +0.000 C 
BRANCH  18  19
ATOM     19  C   UNL     1       1.520   8.439  19.946  0.00  0.00    +0.000 A 
ATOM     20  C   UNL     1       1.340   8.115  21.278  0.00  0.00    +0.000 A 
ATOM     21  C   UNL     1       0.582   9.092  21.987  0.00  0.00    +0.000 A 
ATOM     22  C   UNL     1       0.201  10.132  21.172  0.00  0.00    +0.000 A 
ATOM     23  S   UNL     1       0.765   9.931  19.572  0.00  0.00    +0.000 S 
ENDBRANCH  18  19
ENDBRANCH  16  18
ENDBRANCH   1  16
TORSDOF 4
ENDMDL
MODEL 4
REMARK VINA RESULT:      -7.5      3.229      5.615
REMARK  Name = 
REMARK  4 active torsions:
REMARK  status: ('A' for Active; 'I' for Inactive)
REMARK    1  A    between atoms: C_2  and  C_3
REMARK    2  A    between atoms: C_2  and  C_18
REMARK    3  A    between atoms: C_3  and  C_4
REMARK    4  A    between atoms: C_9  and  N_10
REMARK                            x       y       z     vdW  Elec       q    Type
REMARK                         _______ _______ _______ _____ _____    ______ ____
ROOT
ATOM      1  C   UNL     1       2.521   5.095  18.947  0.00  0.00    +0.000 A 
ATOM      2  C   UNL     1       2.580   6.327  18.265  0.00  0.00    +0.000 A 
ATOM      3  C   UNL     1       2.071   7.445  18.899  0.00  0.00    +0.000 A 
ATOM      4  C   UNL     1       1.515   7.386  20.166  0.00  0.00    +0.000 A 
ATOM      5  C   UNL     1       1.425   6.206  20.875  0.00  0.00    +0.000 A 
ATOM      6  C   UNL     1       1.941   5.060  20.249  0.00  0.00    +0.000 A 
ATOM      7  C   UNL     1       1.094   8.740  20.520  0.00  0.00    +0.000 C 
ATOM      8  O   UNL     1       0.562   9.056  21.564  0.00  0.00    +0.000 OA
ATOM      9  N   UNL     1       1.414   9.532  19.462  0.00  0.00    +0.000 N 
ATOM     10  C   UNL     1       1.994   8.833  18.449  0.00  0.00    +0.000 C 
ATOM     11  O   UNL     1       2.372   9.243  17.370  0.00  0.00    +0.000 OA
ATOM     12  H   UNL     1       1.232  10.520  19.424  0.00  0.00    +0.000 HD
ENDROOT
BRANCH   6  13
ATOM     13  N   UNL     1       1.827   3.806  20.982  0.00  0.00    +0.000 N 
ATOM     14  O   UNL     1       0.998   2.982  20.579  0.00  0.00    +0.000 OA
ATOM     15  O   UNL     1       2.560   3.671  21.969  0.00  0.00    +0.000 OA
ENDBRANCH   6  13
BRANCH   1  16
ATOM     16  C   UNL     1       3.138   3.878  18.277  0.00  0.00    +0.000 C 
BRANCH  16  18
ATOM     17  O   UNL     1       5.237   3.599  19.410  0.00  0.00    +0.000 OA
ATOM     18  C   UNL     1       4.667   3.867  18.349  0.00  0.00    +0.000 C 
BRANCH  18  19
ATOM     19  C   UNL     1       5.421   4.208  17.146  0.00  0.00    +0.000 A 
ATOM     20  C   UNL     1       4.943   4.192  15.848  0.00  0.00    +0.000 A 
ATOM     21  C   UNL     1       5.934   4.556  14.891  0.00  0.00    +0.000 A 
ATOM     22  C   UNL     1       7.143   4.833  15.487  0.00  0.00    +0.000 A 
ATOM     23  S   UNL     1       7.071   4.666  17.185  0.00  0.00    +0.000 S 
ENDBRANCH  18  19
ENDBRANCH  16  18
ENDBRANCH   1  16
TORSDOF 4
ENDMDL
MODEL 5
REMARK VINA RESULT:      -7.5      2.714      3.612
REMARK  Name = 
REMARK  4 active torsions:
REMARK  status: ('A' for Active; 'I' for Inactive)
REMARK    1  A    between atoms: C_2  and  C_3
REMARK    2  A    between atoms: C_2  and  C_18
REMARK    3  A    between atoms: C_3  and  C_4
REMARK    4  A    between atoms: C_9  and  N_10
REMARK                            x       y       z     vdW  Elec       q    Type
REMARK                         _______ _______ _______ _____ _____    ______ ____
ROOT
ATOM      1  C   UNL     1       5.366   3.917  16.510  0.00  0.00    +0.000 A 
ATOM      2  C   UNL     1       5.165   3.516  15.173  0.00  0.00    +0.000 A 
ATOM      3  C   UNL     1       6.033   4.001  14.212  0.00  0.00    +0.000 A 
ATOM      4  C   UNL     1       7.079   4.853  14.526  0.00  0.00    +0.000 A 
ATOM      5  C   UNL     1       7.317   5.282  15.815  0.00  0.00    +0.000 A 
ATOM      6  C   UNL     1       6.448   4.798  16.805  0.00  0.00    +0.000 A 
ATOM      7  C   UNL     1       7.786   5.150  13.281  0.00  0.00    +0.000 C 
ATOM      8  O   UNL     1       8.758   5.871  13.184  0.00  0.00    +0.000 OA
ATOM      9  N   UNL     1       7.137   4.470  12.299  0.00  0.00    +0.000 N 
ATOM     10  C   UNL     1       6.074   3.765  12.771  0.00  0.00    +0.000 C 
ATOM     11  O   UNL     1       5.287   3.079  12.150  0.00  0.00    +0.000 OA
ATOM     12  H   UNL     1       7.403   4.494  11.329  0.00  0.00    +0.000 HD
ENDROOT
BRANCH   6  13
ATOM     13  N   UNL     1       6.678   5.267  18.165  0.00  0.00    +0.000 N 
ATOM     14  O   UNL     1       6.049   6.262  18.541  0.00  0.00    +0.000 OA
ATOM     15  O   UNL     1       7.507   4.638  18.836  0.00  0.00    +0.000 OA
ENDBRANCH   6  13
BRANCH   1  16
ATOM     16  C   UNL     1       4.450   3.335  17.574  0.00  0.00    +0.000 C 
BRANCH  16  18
ATOM     17  O   UNL     1       2.149   3.330  16.890  0.00  0.00    +0.000 OA
ATOM     18  C   UNL     1       3.033   3.911  17.524  0.00  0.00    +0.000 C 
BRANCH  18  19
ATOM     19  C   UNL     1       2.770   5.170  18.215  0.00  0.00    +0.000 A 
ATOM     20  C   UNL     1       2.782   6.432  17.649  0.00  0.00    +0.000 A 
ATOM     21  C   UNL     1       2.508   7.463  18.594  0.00  0.00    +0.000 A 
ATOM     22  C   UNL     1       2.299   6.957  19.856  0.00  0.00    +0.000 A 
ATOM     23  S   UNL     1       2.423   5.253  19.890  0.00  0.00    +0.000 S 
ENDBRANCH  18  19
ENDBRANCH  16  18
ENDBRANCH   1  16
TORSDOF 4
ENDMDL
MODEL 6
REMARK VINA RESULT:      -7.5      2.837      5.689
REMARK  Name = 
REMARK  4 active torsions:
REMARK  status: ('A' for Active; 'I' for Inactive)
REMARK    1  A    between atoms: C_2  and  C_3
REMARK    2  A    between atoms: C_2  and  C_18
REMARK    3  A    between atoms: C_3  and  C_4
REMARK    4  A    between atoms: C_9  and  N_10
REMARK                            x       y       z     vdW  Elec       q    Type
REMARK                         _______ _______ _______ _____ _____    ______ ____
ROOT
ATOM      1  C   UNL     1       3.770   5.439  17.622  0.00  0.00    +0.000 A 
ATOM      2  C   UNL     1       3.347   6.753  17.336  0.00  0.00    +0.000 A 
ATOM      3  C   UNL     1       2.644   7.436  18.311  0.00  0.00    +0.000 A 
ATOM      4  C   UNL     1       2.352   6.872  19.542  0.00  0.00    +0.000 A 
ATOM      5  C   UNL     1       2.735   5.589  19.872  0.00  0.00    +0.000 A 
ATOM      6  C   UNL     1       3.453   4.880  18.896  0.00  0.00    +0.000 A 
ATOM      7  C   UNL     1       1.615   7.870  20.314  0.00  0.00    +0.000 C 
ATOM      8  O   UNL     1       1.197   7.712  21.443  0.00  0.00    +0.000 OA
ATOM      9  N   UNL     1       1.505   8.968  19.519  0.00  0.00    +0.000 N 
ATOM     10  C   UNL     1       2.086   8.787  18.302  0.00  0.00    +0.000 C 
ATOM     11  O   UNL     1       2.139   9.562  17.369  0.00  0.00    +0.000 OA
ATOM     12  H   UNL     1       1.035   9.814  19.791  0.00  0.00    +0.000 HD
ENDROOT
BRANCH   6  13
ATOM     13  N   UNL     1       3.839   3.515  19.228  0.00  0.00    +0.000 N 
ATOM     14  O   UNL     1       2.981   2.633  19.109  0.00  0.00    +0.000 OA
ATOM     15  O   UNL     1       4.999   3.348  19.625  0.00  0.00    +0.000 OA
ENDBRANCH   6  13
BRANCH   1  16
ATOM     16  C   UNL     1       4.596   4.712  16.575  0.00  0.00    +0.000 C 
BRANCH  16  18
ATOM     17  O   UNL     1       6.081   5.700  14.967  0.00  0.00    +0.000 OA
ATOM     18  C   UNL     1       5.851   5.486  16.160  0.00  0.00    +0.000 C 
BRANCH  18  19
ATOM     19  C   UNL     1       6.770   5.930  17.203  0.00  0.00    +0.000 A 
ATOM     20  C   UNL     1       7.305   5.147  18.210  0.00  0.00    +0.000 A 
ATOM     21  C   UNL     1       8.154   5.881  19.088  0.00  0.00    +0.000 A 
ATOM     22  C   UNL     1       8.238   7.206  18.728  0.00  0.00    +0.000 A 
ATOM     23  S   UNL     1       7.308   7.550  17.337  0.00  0.00    +0.000 S 
ENDBRANCH  18  19
ENDBRANCH  16  18
ENDBRANCH   1  16
TORSDOF 4
ENDMDL
MODEL 7
REMARK VINA RESULT:      -7.4      2.251      3.228
REMARK  Name = 
REMARK  4 active torsions:
REMARK  status: ('A' for Active; 'I' for Inactive)
REMARK    1  A    between atoms: C_2  and  C_3
REMARK    2  A    between atoms: C_2  and  C_18
REMARK    3  A    between atoms: C_3  and  C_4
REMARK    4  A    between atoms: C_9  and  N_10
REMARK                            x       y       z     vdW  Elec       q    Type
REMARK                         _______ _______ _______ _____ _____    ______ ____
ROOT
ATOM      1  C   UNL     1       5.446   3.846  16.416  0.00  0.00    +0.000 A 
ATOM      2  C   UNL     1       5.249   3.449  15.077  0.00  0.00    +0.000 A 
ATOM      3  C   UNL     1       6.098   3.965  14.115  0.00  0.00    +0.000 A 
ATOM      4  C   UNL     1       7.120   4.845  14.429  0.00  0.00    +0.000 A 
ATOM      5  C   UNL     1       7.353   5.272  15.720  0.00  0.00    +0.000 A 
ATOM      6  C   UNL     1       6.504   4.756  16.711  0.00  0.00    +0.000 A 
ATOM      7  C   UNL     1       7.811   5.171  13.183  0.00  0.00    +0.000 C 
ATOM      8  O   UNL     1       8.761   5.921  13.086  0.00  0.00    +0.000 OA
ATOM      9  N   UNL     1       7.177   4.480  12.199  0.00  0.00    +0.000 N 
ATOM     10  C   UNL     1       6.137   3.741  12.672  0.00  0.00    +0.000 C 
ATOM     11  O   UNL     1       5.367   3.037  12.050  0.00  0.00    +0.000 OA
ATOM     12  H   UNL     1       7.436   4.519  11.228  0.00  0.00    +0.000 HD
ENDROOT
BRANCH   6  13
ATOM     13  N   UNL     1       6.728   5.221  18.074  0.00  0.00    +0.000 N 
ATOM     14  O   UNL     1       6.149   6.255  18.427  0.00  0.00    +0.000 OA
ATOM     15  O   UNL     1       7.502   4.552  18.768  0.00  0.00    +0.000 OA
ENDBRANCH   6  13
BRANCH   1  16
ATOM     16  C   UNL     1       4.554   3.230  17.481  0.00  0.00    +0.000 C 
BRANCH  16  18
ATOM     17  O   UNL     1       3.197   5.205  17.315  0.00  0.00    +0.000 OA
ATOM     18  C   UNL     1       3.440   4.172  17.945  0.00  0.00    +0.000 C 
BRANCH  18  19
ATOM     19  C   UNL     1       2.703   3.832  19.159  0.00  0.00    +0.000 A 
ATOM     20  C   UNL     1       2.757   4.506  20.365  0.00  0.00    +0.000 A 
ATOM     21  C   UNL     1       1.936   3.911  21.366  0.00  0.00    +0.000 A 
ATOM     22  C   UNL     1       1.283   2.795  20.895  0.00  0.00    +0.000 A 
ATOM     23  S   UNL     1       1.653   2.483  19.257  0.00  0.00    +0.000 S 
ENDBRANCH  18  19
ENDBRANCH  16  18
ENDBRANCH   1  16
TORSDOF 4
ENDMDL
MODEL 8
REMARK VINA RESULT:      -7.4      3.338      5.489
REMARK  Name = 
REMARK  4 active torsions:
REMARK  status: ('A' for Active; 'I' for Inactive)
REMARK    1  A    between atoms: C_2  and  C_3
REMARK    2  A    between atoms: C_2  and  C_18
REMARK    3  A    between atoms: C_3  and  C_4
REMARK    4  A    between atoms: C_9  and  N_10
REMARK                            x       y       z     vdW  Elec       q    Type
REMARK                         _______ _______ _______ _____ _____    ______ ____
ROOT
ATOM      1  C   UNL     1       2.553   5.045  19.073  0.00  0.00    +0.000 A 
ATOM      2  C   UNL     1       2.635   6.254  18.352  0.00  0.00    +0.000 A 
ATOM      3  C   UNL     1       2.096   7.390  18.927  0.00  0.00    +0.000 A 
ATOM      4  C   UNL     1       1.490   7.371  20.172  0.00  0.00    +0.000 A 
ATOM      5  C   UNL     1       1.375   6.216  20.916  0.00  0.00    +0.000 A 
ATOM      6  C   UNL     1       1.920   5.051  20.351  0.00  0.00    +0.000 A 
ATOM      7  C   UNL     1       1.050   8.734  20.463  0.00  0.00    +0.000 C 
ATOM      8  O   UNL     1       0.475   9.083  21.473  0.00  0.00    +0.000 OA
ATOM      9  N   UNL     1       1.410   9.491  19.392  0.00  0.00    +0.000 N 
ATOM     10  C   UNL     1       2.033   8.762  18.427  0.00  0.00    +0.000 C 
ATOM     11  O   UNL     1       2.453   9.137  17.351  0.00  0.00    +0.000 OA
ATOM     12  H   UNL     1       1.225  10.476  19.314  0.00  0.00    +0.000 HD
ENDROOT
BRANCH   6  13
ATOM     13  N   UNL     1       1.781   3.822  21.121  0.00  0.00    +0.000 N 
ATOM     14  O   UNL     1       0.934   3.004  20.743  0.00  0.00    +0.000 OA
ATOM     15  O   UNL     1       2.512   3.702  22.111  0.00  0.00    +0.000 OA
ENDBRANCH   6  13
BRANCH   1  16
ATOM     16  C   UNL     1       3.200   3.810  18.470  0.00  0.00    +0.000 C 
BRANCH  16  18
ATOM     17  O   UNL     1       4.892   2.702  19.765  0.00  0.00    +0.000 OA
ATOM     18  C   UNL     1       4.638   3.593  18.950  0.00  0.00    +0.000 C 
BRANCH  18  19
ATOM     19  C   UNL     1       5.680   4.481  18.445  0.00  0.00    +0.000 A 
ATOM     20  C   UNL     1       6.457   5.342  19.198  0.00  0.00    +0.000 A 
ATOM     21  C   UNL     1       7.374   6.093  18.406  0.00  0.00    +0.000 A 
ATOM     22  C   UNL     1       7.265   5.786  17.069  0.00  0.00    +0.000 A 
ATOM     23  S   UNL     1       6.076   4.594  16.782  0.00  0.00    +0.000 S 
ENDBRANCH  18  19
ENDBRANCH  16  18
ENDBRANCH   1  16
TORSDOF 4
ENDMDL
MODEL 9
REMARK VINA RESULT:      -7.4      2.977      6.320
REMARK  Name = 
REMARK  4 active torsions:
REMARK  status: ('A' for Active; 'I' for Inactive)
REMARK    1  A    between atoms: C_2  and  C_3
REMARK    2  A    between atoms: C_2  and  C_18
REMARK    3  A    between atoms: C_3  and  C_4
REMARK    4  A    between atoms: C_9  and  N_10
REMARK                            x       y       z     vdW  Elec       q    Type
REMARK                         _______ _______ _______ _____ _____    ______ ____
ROOT
ATOM      1  C   UNL     1       5.676   4.394  17.576  0.00  0.00    +0.000 A 
ATOM      2  C   UNL     1       4.462   3.731  17.304  0.00  0.00    +0.000 A 
ATOM      3  C   UNL     1       3.461   3.791  18.256  0.00  0.00    +0.000 A 
ATOM      4  C   UNL     1       3.618   4.477  19.449  0.00  0.00    +0.000 A 
ATOM      5  C   UNL     1       4.786   5.137  19.770  0.00  0.00    +0.000 A 
ATOM      6  C   UNL     1       5.813   5.090  18.813  0.00  0.00    +0.000 A 
ATOM      7  C   UNL     1       2.371   4.338  20.199  0.00  0.00    +0.000 C 
ATOM      8  O   UNL     1       2.158   4.813  21.295  0.00  0.00    +0.000 OA
ATOM      9  N   UNL     1       1.541   3.586  19.428  0.00  0.00    +0.000 N 
ATOM     10  C   UNL     1       2.119   3.212  18.255  0.00  0.00    +0.000 C 
ATOM     11  O   UNL     1       1.653   2.526  17.368  0.00  0.00    +0.000 OA
ATOM     12  H   UNL     1       0.609   3.322  19.698  0.00  0.00    +0.000 HD
ENDROOT
BRANCH   6  13
ATOM     13  N   UNL     1       7.059   5.764  19.155  0.00  0.00    +0.000 N 
ATOM     14  O   UNL     1       7.668   5.367  20.155  0.00  0.00    +0.000 OA
ATOM     15  O   UNL     1       7.401   6.702  18.424  0.00  0.00    +0.000 OA
ENDBRANCH   6  13
BRANCH   1  16
ATOM     16  C   UNL     1       6.752   4.381  16.503  0.00  0.00    +0.000 C 
BRANCH  16  18
ATOM     17  O   UNL     1       6.004   6.386  15.414  0.00  0.00    +0.000 OA
ATOM     18  C   UNL     1       6.384   5.221  15.277  0.00  0.00    +0.000 C 
BRANCH  18  19
ATOM     19  C   UNL     1       6.467   4.598  13.959  0.00  0.00    +0.000 A 
ATOM     20  C   UNL     1       5.595   3.658  13.441  0.00  0.00    +0.000 A 
ATOM     21  C   UNL     1       5.961   3.227  12.133  0.00  0.00    +0.000 A 
ATOM     22  C   UNL     1       7.106   3.848  11.692  0.00  0.00    +0.000 A 
ATOM     23  S   UNL     1       7.721   4.948  12.846  0.00  0.00    +0.000 S 
ENDBRANCH  18  19
ENDBRANCH  16  18
ENDBRANCH   1  16
TORSDOF 4
ENDMDL
