MODEL 1
REMARK VINA RESULT:      -7.6      0.000      0.000
REMARK  Name = 
REMARK  11 active torsions:
REMARK  status: ('A' for Active; 'I' for Inactive)
REMARK    1  A    between atoms: C_1  and  N_2
REMARK    2  A    between atoms: N_2  and  C_3
REMARK    3  A    between atoms: N_2  and  C_19
REMARK    4  A    between atoms: C_3  and  C_4
REMARK    5  A    between atoms: C_4  and  N_5
REMARK    6  A    between atoms: N_5  and  C_6
REMARK    7  A    between atoms: C_6  and  C_7
REMARK    8  A    between atoms: N_9  and  C_10
REMARK    9  A    between atoms: C_19  and  C_20
REMARK   10  A    between atoms: C_20  and  N_21
REMARK   11  A    between atoms: N_21  and  C_22
REMARK                            x       y       z     vdW  Elec       q    Type
REMARK                         _______ _______ _______ _____ _____    ______ ____
ROOT
ATOM      1  C   UNL     1      -0.270   9.895  23.248  0.00  0.00    +0.000 C 
ATOM      2  N   UNL     1       0.705   9.723  22.157  0.00  0.00    +0.000 NA
ENDROOT
BRANCH   2   3
ATOM      3  C   UNL     1       0.451   8.391  21.541  0.00  0.00    +0.000 C 
BRANCH   3   4
ATOM      4  C   UNL     1       1.477   7.857  20.508  0.00  0.00    +0.000 C 
BRANCH   4   5
ATOM      5  N   UNL     1       2.134   6.636  21.016  0.00  0.00    +0.000 NA
ATOM      6  H   UNL     1       2.036   6.594  22.032  0.00  0.00    +0.000 HD
BRANCH   5   7
ATOM      7  C   UNL     1       1.525   5.428  20.448  0.00  0.00    +0.000 C 
BRANCH   7   8
ATOM      8  C   UNL     1       2.302   4.996  19.245  0.00  0.00    +0.000 A 
ATOM      9  C   UNL     1       3.556   5.381  18.820  0.00  0.00    +0.000 A 
ATOM     10  N   UNL     1       3.775   4.671  17.661  0.00  0.00    +0.000 N 
ATOM     11  N   UNL     1       2.683   3.926  17.376  0.00  0.00    +0.000 NA
ATOM     12  N   UNL     1       1.788   4.108  18.342  0.00  0.00    +0.000 NA
BRANCH  10  13
ATOM     13  C   UNL     1       4.950   4.638  16.833  0.00  0.00    +0.000 A 
ATOM     14  C   UNL     1       6.162   5.092  17.345  0.00  0.00    +0.000 A 
ATOM     15  C   UNL     1       7.308   5.094  16.543  0.00  0.00    +0.000 A 
ATOM     16  C   UNL     1       7.232   4.644  15.222  0.00  0.00    +0.000 A 
ATOM     17  C   UNL     1       6.004   4.185  14.717  0.00  0.00    +0.000 A 
ATOM     18 CL   UNL     1       5.918   3.647  13.087  0.00  0.00    +0.000 Cl
ATOM     19  C   UNL     1       4.871   4.172  15.522  0.00  0.00    +0.000 A 
ENDBRANCH  10  13
ENDBRANCH   7   8
ENDBRANCH   5   7
ENDBRANCH   4   5
ENDBRANCH   3   4
ENDBRANCH   2   3
BRANCH   2  20
ATOM     20  C   UNL     1       0.632  10.859  21.198  0.00  0.00    +0.000 C 
BRANCH  20  21
ATOM     21  C   UNL     1      -0.741  11.630  21.210  0.00  0.00    +0.000 C 
BRANCH  21  22
ATOM     22  N   UNL     1      -1.018  12.042  19.837  0.00  0.00    +0.000 N 
ATOM     23  H   UNL     1      -1.101  13.055  19.811  0.00  0.00    +0.000 HD
BRANCH  22  24
ATOM     24  C   UNL     1      -1.739  11.379  18.849  0.00  0.00    +0.000 A 
ATOM     25  C   UNL     1      -1.158  10.514  17.939  0.00  0.00    +0.000 A 
ATOM     26  C   UNL     1      -1.997   9.851  17.060  0.00  0.00    +0.000 A 
ATOM     27  N   UNL     1      -3.232  10.264  16.737  0.00  0.00    +0.000 NA
ATOM     28  C   UNL     1      -3.775  11.196  17.511  0.00  0.00    +0.000 A 
ATOM     29  C   UNL     1      -5.053  11.622  17.186  0.00  0.00    +0.000 A 
ATOM     30  C   UNL     1      -5.819  12.345  18.089  0.00  0.00    +0.000 A 
ATOM     31 CL   UNL     1      -7.433  12.771  17.726  0.00  0.00    +0.000 Cl
ATOM     32  C   UNL     1      -5.268  12.671  19.330  0.00  0.00    +0.000 A 
ATOM     33  C   UNL     1      -3.938  12.367  19.612  0.00  0.00    +0.000 A 
ATOM     34  C   UNL     1      -3.134  11.670  18.678  0.00  0.00    +0.000 A 
ENDBRANCH  22  24
ENDBRANCH  21  22
ENDBRANCH  20  21
ENDBRANCH   2  20
TORSDOF 10
ENDMDL
MODEL 2
REMARK VINA RESULT:      -7.5      4.706      7.241
REMARK  Name = 
REMARK  11 active torsions:
REMARK  status: ('A' for Active; 'I' for Inactive)
REMARK    1  A    between atoms: C_1  and  N_2
REMARK    2  A    between atoms: N_2  and  C_3
REMARK    3  A    between atoms: N_2  and  C_19
REMARK    4  A    between atoms: C_3  and  C_4
REMARK    5  A    between atoms: C_4  and  N_5
REMARK    6  A    between atoms: N_5  and  C_6
REMARK    7  A    between atoms: C_6  and  C_7
REMARK    8  A    between atoms: N_9  and  C_10
REMARK    9  A    between atoms: C_19  and  C_20
REMARK   10  A    between atoms: C_20  and  N_21
REMARK   11  A    between atoms: N_21  and  C_22
REMARK                            x       y       z     vdW  Elec       q    Type
REMARK                         _______ _______ _______ _____ _____    ______ ____
ROOT
ATOM      1  C   UNL     1       3.830   1.641  19.387  0.00  0.00    +0.000 C 
ATOM      2  N   UNL     1       4.019   3.080  19.632  0.00  0.00    +0.000 NA
ENDROOT
BRANCH   2   3
ATOM      3  C   UNL     1       5.197   3.516  18.832  0.00  0.00    +0.000 C 
BRANCH   3   4
ATOM      4  C   UNL     1       4.949   4.431  17.604  0.00  0.00    +0.000 C 
BRANCH   4   5
ATOM      5  N   UNL     1       6.230   4.922  17.059  0.00  0.00    +0.000 NA
ATOM      6  H   UNL     1       6.060   5.743  16.475  0.00  0.00    +0.000 HD
BRANCH   5   7
ATOM      7  C   UNL     1       7.152   5.310  18.133  0.00  0.00    +0.000 C 
BRANCH   7   8
ATOM      8  C   UNL     1       7.481   6.764  18.007  0.00  0.00    +0.000 A 
ATOM      9  C   UNL     1       8.359   7.537  18.740  0.00  0.00    +0.000 A 
ATOM     10  N   UNL     1       8.266   8.797  18.195  0.00  0.00    +0.000 N 
ATOM     11  N   UNL     1       7.340   8.795  17.209  0.00  0.00    +0.000 NA
ATOM     12  N   UNL     1       6.868   7.560  17.079  0.00  0.00    +0.000 NA
BRANCH  10  13
ATOM     13  C   UNL     1       9.009   9.982  18.533  0.00  0.00    +0.000 A 
ATOM     14  C   UNL     1       9.691  10.670  17.534  0.00  0.00    +0.000 A 
ATOM     15  C   UNL     1      10.442  11.807  17.851  0.00  0.00    +0.000 A 
ATOM     16  C   UNL     1      10.510  12.248  19.176  0.00  0.00    +0.000 A 
ATOM     17  C   UNL     1       9.814  11.546  20.174  0.00  0.00    +0.000 A 
ATOM     18 CL   UNL     1       9.916  12.088  21.802  0.00  0.00    +0.000 Cl
ATOM     19  C   UNL     1       9.059  10.425  19.852  0.00  0.00    +0.000 A 
ENDBRANCH  10  13
ENDBRANCH   7   8
ENDBRANCH   5   7
ENDBRANCH   4   5
ENDBRANCH   3   4
ENDBRANCH   2   3
BRANCH   2  20
ATOM     20  C   UNL     1       2.772   3.837  19.334  0.00  0.00    +0.000 C 
BRANCH  20  21
ATOM     21  C   UNL     1       2.245   4.714  20.531  0.00  0.00    +0.000 C 
BRANCH  21  22
ATOM     22  N   UNL     1       2.813   6.050  20.370  0.00  0.00    +0.000 N 
ATOM     23  H   UNL     1       3.268   6.317  21.238  0.00  0.00    +0.000 HD
BRANCH  22  24
ATOM     24  C   UNL     1       2.345   7.119  19.612  0.00  0.00    +0.000 A 
ATOM     25  C   UNL     1       2.653   7.291  18.274  0.00  0.00    +0.000 A 
ATOM     26  C   UNL     1       2.054   8.348  17.611  0.00  0.00    +0.000 A 
ATOM     27  N   UNL     1       1.548   9.433  18.218  0.00  0.00    +0.000 NA
ATOM     28  C   UNL     1       1.361   9.354  19.531  0.00  0.00    +0.000 A 
ATOM     29  C   UNL     1       0.833  10.468  20.161  0.00  0.00    +0.000 A 
ATOM     30  C   UNL     1       0.316  10.386  21.446  0.00  0.00    +0.000 A 
ATOM     31 CL   UNL     1      -0.435  11.735  22.177  0.00  0.00    +0.000 Cl
ATOM     32  C   UNL     1       0.367   9.162  22.117  0.00  0.00    +0.000 A 
ATOM     33  C   UNL     1       1.021   8.073  21.544  0.00  0.00    +0.000 A 
ATOM     34  C   UNL     1       1.591   8.160  20.251  0.00  0.00    +0.000 A 
ENDBRANCH  22  24
ENDBRANCH  21  22
ENDBRANCH  20  21
ENDBRANCH   2  20
TORSDOF 10
ENDMDL
MODEL 3
REMARK VINA RESULT:      -7.4      2.929     10.258
REMARK  Name = 
REMARK  11 active torsions:
REMARK  status: ('A' for Active; 'I' for Inactive)
REMARK    1  A    between atoms: C_1  and  N_2
REMARK    2  A    between atoms: N_2  and  C_3
REMARK    3  A    between atoms: N_2  and  C_19
REMARK    4  A    between atoms: C_3  and  C_4
REMARK    5  A    between atoms: C_4  and  N_5
REMARK    6  A    between atoms: N_5  and  C_6
REMARK    7  A    between atoms: C_6  and  C_7
REMARK    8  A    between atoms: N_9  and  C_10
REMARK    9  A    between atoms: C_19  and  C_20
REMARK   10  A    between atoms: C_20  and  N_21
REMARK   11  A    between atoms: N_21  and  C_22
REMARK                            x       y       z     vdW  Elec       q    Type
REMARK                         _______ _______ _______ _____ _____    ______ ____
ROOT
ATOM      1  C   UNL     1       2.041   2.535  21.035  0.00  0.00    +0.000 C 
ATOM      2  N   UNL     1       1.636   2.736  19.634  0.00  0.00    +0.000 NA
ENDROOT
BRANCH   2   3
ATOM      3  C   UNL     1       1.452   4.199  19.430  0.00  0.00    +0.000 C 
BRANCH   3   4
ATOM      4  C   UNL     1       1.529   5.126  20.672  0.00  0.00    +0.000 C 
BRANCH   4   5
ATOM      5  N   UNL     1       2.678   6.047  20.557  0.00  0.00    +0.000 NA
ATOM      6  H   UNL     1       3.535   5.558  20.819  0.00  0.00    +0.000 HD
BRANCH   5   7
ATOM      7  C   UNL     1       2.832   6.536  19.182  0.00  0.00    +0.000 C 
BRANCH   7   8
ATOM      8  C   UNL     1       2.097   7.829  19.027  0.00  0.00    +0.000 A 
ATOM      9  C   UNL     1       1.548   8.654  19.988  0.00  0.00    +0.000 A 
ATOM     10  N   UNL     1       0.999   9.703  19.287  0.00  0.00    +0.000 N 
ATOM     11  N   UNL     1       1.167   9.498  17.961  0.00  0.00    +0.000 NA
ATOM     12  N   UNL     1       1.846   8.367  17.795  0.00  0.00    +0.000 NA
BRANCH  10  13
ATOM     13  C   UNL     1       0.353  10.884  19.794  0.00  0.00    +0.000 A 
ATOM     14  C   UNL     1      -1.021  11.038  19.630  0.00  0.00    +0.000 A 
ATOM     15  C   UNL     1      -1.659  12.193  20.091  0.00  0.00    +0.000 A 
ATOM     16  C   UNL     1      -0.913  13.198  20.714  0.00  0.00    +0.000 A 
ATOM     17  C   UNL     1       0.472  13.030  20.876  0.00  0.00    +0.000 A 
ATOM     18 CL   UNL     1       1.383  14.278  21.630  0.00  0.00    +0.000 Cl
ATOM     19  C   UNL     1       1.100  11.874  20.428  0.00  0.00    +0.000 A 
ENDBRANCH  10  13
ENDBRANCH   7   8
ENDBRANCH   5   7
ENDBRANCH   4   5
ENDBRANCH   3   4
ENDBRANCH   2   3
BRANCH   2  20
ATOM     20  C   UNL     1       2.617   2.113  18.704  0.00  0.00    +0.000 C 
BRANCH  20  21
ATOM     21  C   UNL     1       3.446   3.145  17.852  0.00  0.00    +0.000 C 
BRANCH  21  22
ATOM     22  N   UNL     1       4.670   3.436  18.594  0.00  0.00    +0.000 N 
ATOM     23  H   UNL     1       4.470   3.371  19.589  0.00  0.00    +0.000 HD
BRANCH  22  24
ATOM     24  C   UNL     1       5.710   4.301  18.271  0.00  0.00    +0.000 A 
ATOM     25  C   UNL     1       6.288   5.166  19.185  0.00  0.00    +0.000 A 
ATOM     26  C   UNL     1       7.372   5.913  18.760  0.00  0.00    +0.000 A 
ATOM     27  N   UNL     1       7.649   6.183  17.475  0.00  0.00    +0.000 NA
ATOM     28  C   UNL     1       7.010   5.462  16.560  0.00  0.00    +0.000 A 
ATOM     29  C   UNL     1       7.296   5.732  15.232  0.00  0.00    +0.000 A 
ATOM     30  C   UNL     1       6.932   4.848  14.227  0.00  0.00    +0.000 A 
ATOM     31 CL   UNL     1       7.385   5.130  12.604  0.00  0.00    +0.000 Cl
ATOM     32  C   UNL     1       6.236   3.687  14.570  0.00  0.00    +0.000 A 
ATOM     33  C   UNL     1       5.824   3.476  15.884  0.00  0.00    +0.000 A 
ATOM     34  C   UNL     1       6.151   4.396  16.909  0.00  0.00    +0.000 A 
ENDBRANCH  22  24
ENDBRANCH  21  22
ENDBRANCH  20  21
ENDBRANCH   2  20
TORSDOF 10
ENDMDL
MODEL 4
REMARK VINA RESULT:      -7.4      2.938      4.938
REMARK  Name = 
REMARK  11 active torsions:
REMARK  status: ('A' for Active; 'I' for Inactive)
REMARK    1  A    between atoms: C_1  and  N_2
REMARK    2  A    between atoms: N_2  and  C_3
REMARK    3  A    between atoms: N_2  and  C_19
REMARK    4  A    between atoms: C_3  and  C_4
REMARK    5  A    between atoms: C_4  and  N_5
REMARK    6  A    between atoms: N_5  and  C_6
REMARK    7  A    between atoms: C_6  and  C_7
REMARK    8  A    between atoms: N_9  and  C_10
REMARK    9  A    between atoms: C_19  and  C_20
REMARK   10  A    between atoms: C_20  and  N_21
REMARK   11  A    between atoms: N_21  and  C_22
REMARK                            x       y       z     vdW  Elec       q    Type
REMARK                         _______ _______ _______ _____ _____    ______ ____
ROOT
ATOM      1  C   UNL     1       2.131   3.497  21.817  0.00  0.00    +0.000 C 
ATOM      2  N   UNL     1       2.542   4.557  20.881  0.00  0.00    +0.000 NA
ENDROOT
BRANCH   2   3
ATOM      3  C   UNL     1       3.048   3.890  19.649  0.00  0.00    +0.000 C 
BRANCH   3   4
ATOM      4  C   UNL     1       4.120   2.779  19.808  0.00  0.00    +0.000 C 
BRANCH   4   5
ATOM      5  N   UNL     1       5.420   3.238  19.280  0.00  0.00    +0.000 NA
ATOM      6  H   UNL     1       5.587   2.811  18.367  0.00  0.00    +0.000 HD
BRANCH   5   7
ATOM      7  C   UNL     1       5.442   4.696  19.113  0.00  0.00    +0.000 C 
BRANCH   7   8
ATOM      8  C   UNL     1       5.814   5.031  17.704  0.00  0.00    +0.000 A 
ATOM      9  C   UNL     1       6.128   4.196  16.651  0.00  0.00    +0.000 A 
ATOM     10  N   UNL     1       6.384   5.036  15.592  0.00  0.00    +0.000 N 
ATOM     11  N   UNL     1       6.275   6.321  15.999  0.00  0.00    +0.000 NA
ATOM     12  N   UNL     1       5.916   6.327  17.278  0.00  0.00    +0.000 NA
BRANCH  10  13
ATOM     13  C   UNL     1       6.699   4.698  14.229  0.00  0.00    +0.000 A 
ATOM     14  C   UNL     1       7.676   5.421  13.552  0.00  0.00    +0.000 A 
ATOM     15  C   UNL     1       7.974   5.124  12.218  0.00  0.00    +0.000 A 
ATOM     16  C   UNL     1       7.282   4.100  11.564  0.00  0.00    +0.000 A 
ATOM     17  C   UNL     1       6.300   3.375  12.259  0.00  0.00    +0.000 A 
ATOM     18 CL   UNL     1       5.446   2.128  11.441  0.00  0.00    +0.000 Cl
ATOM     19  C   UNL     1       6.018   3.665  13.588  0.00  0.00    +0.000 A 
ENDBRANCH  10  13
ENDBRANCH   7   8
ENDBRANCH   5   7
ENDBRANCH   4   5
ENDBRANCH   3   4
ENDBRANCH   2   3
BRANCH   2  20
ATOM     20  C   UNL     1       1.425   5.510  20.637  0.00  0.00    +0.000 C 
BRANCH  20  21
ATOM     21  C   UNL     1       1.821   6.764  19.771  0.00  0.00    +0.000 C 
BRANCH  21  22
ATOM     22  N   UNL     1       2.025   7.879  20.692  0.00  0.00    +0.000 N 
ATOM     23  H   UNL     1       2.784   7.642  21.326  0.00  0.00    +0.000 HD
BRANCH  22  24
ATOM     24  C   UNL     1       1.094   8.770  21.215  0.00  0.00    +0.000 A 
ATOM     25  C   UNL     1       0.360   8.513  22.360  0.00  0.00    +0.000 A 
ATOM     26  C   UNL     1      -0.471   9.517  22.825  0.00  0.00    +0.000 A 
ATOM     27  N   UNL     1      -0.937  10.524  22.070  0.00  0.00    +0.000 NA
ATOM     28  C   UNL     1      -0.343  10.720  20.898  0.00  0.00    +0.000 A 
ATOM     29  C   UNL     1      -0.816  11.762  20.117  0.00  0.00    +0.000 A 
ATOM     30  C   UNL     1      -0.081  12.241  19.042  0.00  0.00    +0.000 A 
ATOM     31 CL   UNL     1      -0.614  13.598  18.151  0.00  0.00    +0.000 Cl
ATOM     32  C   UNL     1       1.137  11.631  18.732  0.00  0.00    +0.000 A 
ATOM     33  C   UNL     1       1.551  10.496  19.425  0.00  0.00    +0.000 A 
ATOM     34  C   UNL     1       0.786   9.972  20.494  0.00  0.00    +0.000 A 
ENDBRANCH  22  24
ENDBRANCH  21  22
ENDBRANCH  20  21
ENDBRANCH   2  20
TORSDOF 10
ENDMDL
MODEL 5
REMARK VINA RESULT:      -7.3      2.597      9.993
REMARK  Name = 
REMARK  11 active torsions:
REMARK  status: ('A' for Active; 'I' for Inactive)
REMARK    1  A    between atoms: C_1  and  N_2
REMARK    2  A    between atoms: N_2  and  C_3
REMARK    3  A    between atoms: N_2  and  C_19
REMARK    4  A    between atoms: C_3  and  C_4
REMARK    5  A    between atoms: C_4  and  N_5
REMARK    6  A    between atoms: N_5  and  C_6
REMARK    7  A    between atoms: C_6  and  C_7
REMARK    8  A    between atoms: N_9  and  C_10
REMARK    9  A    between atoms: C_19  and  C_20
REMARK   10  A    between atoms: C_20  and  N_21
REMARK   11  A    between atoms: N_21  and  C_22
REMARK                            x       y       z     vdW  Elec       q    Type
REMARK                         _______ _______ _______ _____ _____    ______ ____
ROOT
ATOM      1  C   UNL     1       3.678   1.947  21.019  0.00  0.00    +0.000 C 
ATOM      2  N   UNL     1       2.955   2.349  19.800  0.00  0.00    +0.000 NA
ENDROOT
BRANCH   2   3
ATOM      3  C   UNL     1       1.732   3.081  20.229  0.00  0.00    +0.000 C 
BRANCH   3   4
ATOM      4  C   UNL     1       1.886   4.205  21.288  0.00  0.00    +0.000 C 
BRANCH   4   5
ATOM      5  N   UNL     1       1.503   5.510  20.714  0.00  0.00    +0.000 NA
ATOM      6  H   UNL     1       1.097   6.097  21.445  0.00  0.00    +0.000 HD
BRANCH   5   7
ATOM      7  C   UNL     1       2.667   6.210  20.160  0.00  0.00    +0.000 C 
BRANCH   7   8
ATOM      8  C   UNL     1       2.217   7.460  19.473  0.00  0.00    +0.000 A 
ATOM      9  C   UNL     1       1.429   8.491  19.943  0.00  0.00    +0.000 A 
ATOM     10  N   UNL     1       1.337   9.378  18.894  0.00  0.00    +0.000 N 
ATOM     11  N   UNL     1       2.000   8.882  17.825  0.00  0.00    +0.000 NA
ATOM     12  N   UNL     1       2.549   7.723  18.172  0.00  0.00    +0.000 NA
BRANCH  10  13
ATOM     13  C   UNL     1       0.687  10.661  18.853  0.00  0.00    +0.000 A 
ATOM     14  C   UNL     1       1.449  11.808  18.654  0.00  0.00    +0.000 A 
ATOM     15  C   UNL     1       0.836  13.065  18.640  0.00  0.00    +0.000 A 
ATOM     16  C   UNL     1      -0.545  13.168  18.833  0.00  0.00    +0.000 A 
ATOM     17  C   UNL     1      -1.303  12.001  19.031  0.00  0.00    +0.000 A 
ATOM     18 CL   UNL     1      -2.998  12.139  19.281  0.00  0.00    +0.000 Cl
ATOM     19  C   UNL     1      -0.691  10.754  19.030  0.00  0.00    +0.000 A 
ENDBRANCH  10  13
ENDBRANCH   7   8
ENDBRANCH   5   7
ENDBRANCH   4   5
ENDBRANCH   3   4
ENDBRANCH   2   3
BRANCH   2  20
ATOM     20  C   UNL     1       3.841   3.128  18.892  0.00  0.00    +0.000 C 
BRANCH  20  21
ATOM     21  C   UNL     1       3.137   3.631  17.576  0.00  0.00    +0.000 C 
BRANCH  21  22
ATOM     22  N   UNL     1       3.721   4.927  17.242  0.00  0.00    +0.000 N 
ATOM     23  H   UNL     1       3.039   5.465  16.714  0.00  0.00    +0.000 HD
BRANCH  22  24
ATOM     24  C   UNL     1       5.046   5.250  16.968  0.00  0.00    +0.000 A 
ATOM     25  C   UNL     1       5.826   6.024  17.810  0.00  0.00    +0.000 A 
ATOM     26  C   UNL     1       7.155   6.202  17.467  0.00  0.00    +0.000 A 
ATOM     27  N   UNL     1       7.642   6.052  16.226  0.00  0.00    +0.000 NA
ATOM     28  C   UNL     1       6.865   5.428  15.347  0.00  0.00    +0.000 A 
ATOM     29  C   UNL     1       7.366   5.264  14.066  0.00  0.00    +0.000 A 
ATOM     30  C   UNL     1       6.782   4.372  13.178  0.00  0.00    +0.000 A 
ATOM     31 CL   UNL     1       7.469   4.090  11.640  0.00  0.00    +0.000 Cl
ATOM     32  C   UNL     1       5.651   3.660  13.583  0.00  0.00    +0.000 A 
ATOM     33  C   UNL     1       5.060   3.921  14.818  0.00  0.00    +0.000 A 
ATOM     34  C   UNL     1       5.622   4.863  15.713  0.00  0.00    +0.000 A 
ENDBRANCH  22  24
ENDBRANCH  21  22
ENDBRANCH  20  21
ENDBRANCH   2  20
TORSDOF 10
ENDMDL
MODEL 6
REMARK VINA RESULT:      -7.2      3.293     11.241
REMARK  Name = 
REMARK  11 active torsions:
REMARK  status: ('A' for Active; 'I' for Inactive)
REMARK    1  A    between atoms: C_1  and  N_2
REMARK    2  A    between atoms: N_2  and  C_3
REMARK    3  A    between atoms: N_2  and  C_19
REMARK    4  A    between atoms: C_3  and  C_4
REMARK    5  A    between atoms: C_4  and  N_5
REMARK    6  A    between atoms: N_5  and  C_6
REMARK    7  A    between atoms: C_6  and  C_7
REMARK    8  A    between atoms: N_9  and  C_10
REMARK    9  A    between atoms: C_19  and  C_20
REMARK   10  A    between atoms: C_20  and  N_21
REMARK   11  A    between atoms: N_21  and  C_22
REMARK                            x       y       z     vdW  Elec       q    Type
REMARK                         _______ _______ _______ _____ _____    ______ ____
ROOT
ATOM      1  C   UNL     1       2.917   3.289  20.544  0.00  0.00    +0.000 C 
ATOM      2  N   UNL     1       1.623   3.761  20.024  0.00  0.00    +0.000 NA
ENDROOT
BRANCH   2   3
ATOM      3  C   UNL     1       1.418   5.145  20.534  0.00  0.00    +0.000 C 
BRANCH   3   4
ATOM      4  C   UNL     1       2.341   6.268  19.992  0.00  0.00    +0.000 C 
BRANCH   4   5
ATOM      5  N   UNL     1       1.646   7.570  20.028  0.00  0.00    +0.000 NA
ATOM      6  H   UNL     1       0.685   7.452  19.704  0.00  0.00    +0.000 HD
BRANCH   5   7
ATOM      7  C   UNL     1       1.605   8.114  21.390  0.00  0.00    +0.000 C 
BRANCH   7   8
ATOM      8  C   UNL     1       0.672   9.282  21.433  0.00  0.00    +0.000 A 
ATOM      9  C   UNL     1       0.180   9.980  22.518  0.00  0.00    +0.000 A 
ATOM     10  N   UNL     1      -0.630  10.954  21.979  0.00  0.00    +0.000 N 
ATOM     11  N   UNL     1      -0.662  10.820  20.634  0.00  0.00    +0.000 NA
ATOM     12  N   UNL     1       0.138   9.815  20.293  0.00  0.00    +0.000 NA
BRANCH  10  13
ATOM     13  C   UNL     1      -1.346  12.003  22.653  0.00  0.00    +0.000 A 
ATOM     14  C   UNL     1      -0.790  13.277  22.723  0.00  0.00    +0.000 A 
ATOM     15  C   UNL     1      -1.461  14.301  23.399  0.00  0.00    +0.000 A 
ATOM     16  C   UNL     1      -2.690  14.041  24.011  0.00  0.00    +0.000 A 
ATOM     17  C   UNL     1      -3.243  12.752  23.930  0.00  0.00    +0.000 A 
ATOM     18 CL   UNL     1      -4.749  12.438  24.697  0.00  0.00    +0.000 Cl
ATOM     19  C   UNL     1      -2.579  11.741  23.246  0.00  0.00    +0.000 A 
ENDBRANCH  10  13
ENDBRANCH   7   8
ENDBRANCH   5   7
ENDBRANCH   4   5
ENDBRANCH   3   4
ENDBRANCH   2   3
BRANCH   2  20
ATOM     20  C   UNL     1       1.575   3.649  18.540  0.00  0.00    +0.000 C 
BRANCH  20  21
ATOM     21  C   UNL     1       2.726   2.772  17.920  0.00  0.00    +0.000 C 
BRANCH  21  22
ATOM     22  N   UNL     1       3.500   3.639  17.035  0.00  0.00    +0.000 N 
ATOM     23  H   UNL     1       3.169   3.512  16.083  0.00  0.00    +0.000 HD
BRANCH  22  24
ATOM     24  C   UNL     1       4.830   4.034  17.134  0.00  0.00    +0.000 A 
ATOM     25  C   UNL     1       5.439   4.348  18.337  0.00  0.00    +0.000 A 
ATOM     26  C   UNL     1       6.791   4.644  18.311  0.00  0.00    +0.000 A 
ATOM     27  N   UNL     1       7.456   5.050  17.219  0.00  0.00    +0.000 NA
ATOM     28  C   UNL     1       6.846   4.887  16.050  0.00  0.00    +0.000 A 
ATOM     29  C   UNL     1       7.531   5.298  14.918  0.00  0.00    +0.000 A 
ATOM     30  C   UNL     1       7.129   4.896  13.652  0.00  0.00    +0.000 A 
ATOM     31 CL   UNL     1       8.040   5.313  12.269  0.00  0.00    +0.000 Cl
ATOM     32  C   UNL     1       5.994   4.092  13.529  0.00  0.00    +0.000 A 
ATOM     33  C   UNL     1       5.221   3.789  14.649  0.00  0.00    +0.000 A 
ATOM     34  C   UNL     1       5.598   4.233  15.939  0.00  0.00    +0.000 A 
ENDBRANCH  22  24
ENDBRANCH  21  22
ENDBRANCH  20  21
ENDBRANCH   2  20
TORSDOF 10
ENDMDL
MODEL 7
REMARK VINA RESULT:      -7.2      6.808      8.899
REMARK  Name = 
REMARK  11 active torsions:
REMARK  status: ('A' for Active; 'I' for Inactive)
REMARK    1  A    between atoms: C_1  and  N_2
REMARK    2  A    between atoms: N_2  and  C_3
REMARK    3  A    between atoms: N_2  and  C_19
REMARK    4  A    between atoms: C_3  and  C_4
REMARK    5  A    between atoms: C_4  and  N_5
REMARK    6  A    between atoms: N_5  and  C_6
REMARK    7  A    between atoms: C_6  and  C_7
REMARK    8  A    between atoms: N_9  and  C_10
REMARK    9  A    between atoms: C_19  and  C_20
REMARK   10  A    between atoms: C_20  and  N_21
REMARK   11  A    between atoms: N_21  and  C_22
REMARK                            x       y       z     vdW  Elec       q    Type
REMARK                         _______ _______ _______ _____ _____    ______ ____
ROOT
ATOM      1  C   UNL     1       4.870   5.726  16.521  0.00  0.00    +0.000 C 
ATOM      2  N   UNL     1       5.764   5.991  17.660  0.00  0.00    +0.000 NA
ENDROOT
BRANCH   2   3
ATOM      3  C   UNL     1       6.263   7.386  17.519  0.00  0.00    +0.000 C 
BRANCH   3   4
ATOM      4  C   UNL     1       7.794   7.627  17.597  0.00  0.00    +0.000 C 
BRANCH   4   5
ATOM      5  N   UNL     1       8.082   9.064  17.775  0.00  0.00    +0.000 NA
ATOM      6  H   UNL     1       7.206   9.576  17.890  0.00  0.00    +0.000 HD
BRANCH   5   7
ATOM      7  C   UNL     1       8.907   9.297  18.966  0.00  0.00    +0.000 C 
BRANCH   7   8
ATOM      8  C   UNL     1       9.261  10.748  19.051  0.00  0.00    +0.000 A 
ATOM      9  C   UNL     1       9.436  11.674  18.043  0.00  0.00    +0.000 A 
ATOM     10  N   UNL     1       9.749  12.850  18.688  0.00  0.00    +0.000 N 
ATOM     11  N   UNL     1       9.806  12.631  20.021  0.00  0.00    +0.000 NA
ATOM     12  N   UNL     1       9.498  11.359  20.251  0.00  0.00    +0.000 NA
BRANCH  10  13
ATOM     13  C   UNL     1       9.970  14.155  18.124  0.00  0.00    +0.000 A 
ATOM     14  C   UNL     1      11.040  14.354  17.257  0.00  0.00    +0.000 A 
ATOM     15  C   UNL     1      11.286  15.622  16.723  0.00  0.00    +0.000 A 
ATOM     16  C   UNL     1      10.458  16.694  17.068  0.00  0.00    +0.000 A 
ATOM     17  C   UNL     1       9.379  16.480  17.942  0.00  0.00    +0.000 A 
ATOM     18 CL   UNL     1       8.374  17.807  18.371  0.00  0.00    +0.000 Cl
ATOM     19  C   UNL     1       9.130  15.214  18.459  0.00  0.00    +0.000 A 
ENDBRANCH  10  13
ENDBRANCH   7   8
ENDBRANCH   5   7
ENDBRANCH   4   5
ENDBRANCH   3   4
ENDBRANCH   2   3
BRANCH   2  20
ATOM     20  C   UNL     1       5.072   5.722  18.950  0.00  0.00    +0.000 C 
BRANCH  20  21
ATOM     21  C   UNL     1       3.530   5.435  18.811  0.00  0.00    +0.000 C 
BRANCH  21  22
ATOM     22  N   UNL     1       2.829   6.442  19.603  0.00  0.00    +0.000 N 
ATOM     23  H   UNL     1       2.324   5.975  20.351  0.00  0.00    +0.000 HD
BRANCH  22  24
ATOM     24  C   UNL     1       2.268   7.648  19.195  0.00  0.00    +0.000 A 
ATOM     25  C   UNL     1       2.548   8.239  17.975  0.00  0.00    +0.000 A 
ATOM     26  C   UNL     1       1.859   9.395  17.652  0.00  0.00    +0.000 A 
ATOM     27  N   UNL     1       1.272  10.202  18.549  0.00  0.00    +0.000 NA
ATOM     28  C   UNL     1       1.105   9.717  19.774  0.00  0.00    +0.000 A 
ATOM     29  C   UNL     1       0.493  10.543  20.702  0.00  0.00    +0.000 A 
ATOM     30  C   UNL     1      -0.003  10.036  21.895  0.00  0.00    +0.000 A 
ATOM     31 CL   UNL     1      -0.855  11.037  22.986  0.00  0.00    +0.000 Cl
ATOM     32  C   UNL     1       0.154   8.675  22.167  0.00  0.00    +0.000 A 
ATOM     33  C   UNL     1       0.889   7.866  21.303  0.00  0.00    +0.000 A 
ATOM     34  C   UNL     1       1.438   8.384  20.106  0.00  0.00    +0.000 A 
ENDBRANCH  22  24
ENDBRANCH  21  22
ENDBRANCH  20  21
ENDBRANCH   2  20
TORSDOF 10
ENDMDL
MODEL 8
REMARK VINA RESULT:      -7.1      6.037     10.779
REMARK  Name = 
REMARK  11 active torsions:
REMARK  status: ('A' for Active; 'I' for Inactive)
REMARK    1  A    between atoms: C_1  and  N_2
REMARK    2  A    between atoms: N_2  and  C_3
REMARK    3  A    between atoms: N_2  and  C_19
REMARK    4  A    between atoms: C_3  and  C_4
REMARK    5  A    between atoms: C_4  and  N_5
REMARK    6  A    between atoms: N_5  and  C_6
REMARK    7  A    between atoms: C_6  and  C_7
REMARK    8  A    between atoms: N_9  and  C_10
REMARK    9  A    between atoms: C_19  and  C_20
REMARK   10  A    between atoms: C_20  and  N_21
REMARK   11  A    between atoms: N_21  and  C_22
REMARK                            x       y       z     vdW  Elec       q    Type
REMARK                         _______ _______ _______ _____ _____    ______ ____
ROOT
ATOM      1  C   UNL     1       7.048   5.984  16.765  0.00  0.00    +0.000 C 
ATOM      2  N   UNL     1       6.924   6.717  18.035  0.00  0.00    +0.000 NA
ENDROOT
BRANCH   2   3
ATOM      3  C   UNL     1       6.703   5.710  19.110  0.00  0.00    +0.000 C 
BRANCH   3   4
ATOM      4  C   UNL     1       6.113   4.332  18.710  0.00  0.00    +0.000 C 
BRANCH   4   5
ATOM      5  N   UNL     1       4.740   4.186  19.233  0.00  0.00    +0.000 NA
ATOM      6  H   UNL     1       4.681   4.614  20.158  0.00  0.00    +0.000 HD
BRANCH   5   7
ATOM      7  C   UNL     1       3.765   4.850  18.360  0.00  0.00    +0.000 C 
BRANCH   7   8
ATOM      8  C   UNL     1       2.903   5.760  19.176  0.00  0.00    +0.000 A 
ATOM      9  C   UNL     1       2.620   7.099  19.004  0.00  0.00    +0.000 A 
ATOM     10  N   UNL     1       1.774   7.423  20.040  0.00  0.00    +0.000 N 
ATOM     11  N   UNL     1       1.592   6.340  20.829  0.00  0.00    +0.000 NA
ATOM     12  N   UNL     1       2.264   5.321  20.303  0.00  0.00    +0.000 NA
BRANCH  10  13
ATOM     13  C   UNL     1       1.119   8.675  20.310  0.00  0.00    +0.000 A 
ATOM     14  C   UNL     1       1.193   9.703  19.375  0.00  0.00    +0.000 A 
ATOM     15  C   UNL     1       0.586  10.935  19.634  0.00  0.00    +0.000 A 
ATOM     16  C   UNL     1      -0.092  11.136  20.840  0.00  0.00    +0.000 A 
ATOM     17  C   UNL     1      -0.163  10.089  21.776  0.00  0.00    +0.000 A 
ATOM     18 CL   UNL     1      -0.986  10.350  23.261  0.00  0.00    +0.000 Cl
ATOM     19  C   UNL     1       0.431   8.862  21.507  0.00  0.00    +0.000 A 
ENDBRANCH  10  13
ENDBRANCH   7   8
ENDBRANCH   5   7
ENDBRANCH   4   5
ENDBRANCH   3   4
ENDBRANCH   2   3
BRANCH   2  20
ATOM     20  C   UNL     1       8.108   7.591  18.260  0.00  0.00    +0.000 C 
BRANCH  20  21
ATOM     21  C   UNL     1       7.869   9.108  17.910  0.00  0.00    +0.000 C 
BRANCH  21  22
ATOM     22  N   UNL     1       9.143   9.799  18.089  0.00  0.00    +0.000 N 
ATOM     23  H   UNL     1       9.896   9.160  17.852  0.00  0.00    +0.000 HD
BRANCH  22  24
ATOM     24  C   UNL     1       9.488  10.780  19.012  0.00  0.00    +0.000 A 
ATOM     25  C   UNL     1       9.163  10.705  20.355  0.00  0.00    +0.000 A 
ATOM     26  C   UNL     1       9.639  11.704  21.186  0.00  0.00    +0.000 A 
ATOM     27  N   UNL     1      10.020  12.920  20.766  0.00  0.00    +0.000 NA
ATOM     28  C   UNL     1      10.215  13.070  19.460  0.00  0.00    +0.000 A 
ATOM     29  C   UNL     1      10.615  14.321  19.021  0.00  0.00    +0.000 A 
ATOM     30  C   UNL     1      11.138  14.500  17.748  0.00  0.00    +0.000 A 
ATOM     31 CL   UNL     1      11.733  16.022  17.251  0.00  0.00    +0.000 Cl
ATOM     32  C   UNL     1      11.225  13.398  16.894  0.00  0.00    +0.000 A 
ATOM     33  C   UNL     1      10.697  12.167  17.278  0.00  0.00    +0.000 A 
ATOM     34  C   UNL     1      10.120  11.986  18.558  0.00  0.00    +0.000 A 
ENDBRANCH  22  24
ENDBRANCH  21  22
ENDBRANCH  20  21
ENDBRANCH   2  20
TORSDOF 10
ENDMDL
MODEL 9
REMARK VINA RESULT:      -7.0      3.041      5.242
REMARK  Name = 
REMARK  11 active torsions:
REMARK  status: ('A' for Active; 'I' for Inactive)
REMARK    1  A    between atoms: C_1  and  N_2
REMARK    2  A    between atoms: N_2  and  C_3
REMARK    3  A    between atoms: N_2  and  C_19
REMARK    4  A    between atoms: C_3  and  C_4
REMARK    5  A    between atoms: C_4  and  N_5
REMARK    6  A    between atoms: N_5  and  C_6
REMARK    7  A    between atoms: C_6  and  C_7
REMARK    8  A    between atoms: N_9  and  C_10
REMARK    9  A    between atoms: C_19  and  C_20
REMARK   10  A    between atoms: C_20  and  N_21
REMARK   11  A    between atoms: N_21  and  C_22
REMARK                            x       y       z     vdW  Elec       q    Type
REMARK                         _______ _______ _______ _____ _____    ______ ____
ROOT
ATOM      1  C   UNL     1      -3.786  10.170  14.993  0.00  0.00    +0.000 C 
ATOM      2  N   UNL     1      -3.518  10.348  16.430  0.00  0.00    +0.000 NA
ENDROOT
BRANCH   2   3
ATOM      3  C   UNL     1      -2.046  10.236  16.624  0.00  0.00    +0.000 C 
BRANCH   3   4
ATOM      4  C   UNL     1      -1.498  10.234  18.076  0.00  0.00    +0.000 C 
BRANCH   4   5
ATOM      5  N   UNL     1      -0.221  10.971  18.147  0.00  0.00    +0.000 NA
ATOM      6  H   UNL     1      -0.408  11.969  18.253  0.00  0.00    +0.000 HD
BRANCH   5   7
ATOM      7  C   UNL     1       0.583  10.533  19.294  0.00  0.00    +0.000 C 
BRANCH   7   8
ATOM      8  C   UNL     1       1.383   9.328  18.911  0.00  0.00    +0.000 A 
ATOM      9  C   UNL     1       1.677   8.195  19.642  0.00  0.00    +0.000 A 
ATOM     10  N   UNL     1       2.441   7.416  18.803  0.00  0.00    +0.000 N 
ATOM     11  N   UNL     1       2.639   8.071  17.636  0.00  0.00    +0.000 NA
ATOM     12  N   UNL     1       1.988   9.228  17.689  0.00  0.00    +0.000 NA
BRANCH  10  13
ATOM     13  C   UNL     1       2.968   6.097  19.029  0.00  0.00    +0.000 A 
ATOM     14  C   UNL     1       4.340   5.884  18.947  0.00  0.00    +0.000 A 
ATOM     15  C   UNL     1       4.866   4.602  19.136  0.00  0.00    +0.000 A 
ATOM     16  C   UNL     1       4.007   3.531  19.402  0.00  0.00    +0.000 A 
ATOM     17  C   UNL     1       2.623   3.759  19.486  0.00  0.00    +0.000 A 
ATOM     18 CL   UNL     1       1.575   2.434  19.799  0.00  0.00    +0.000 Cl
ATOM     19  C   UNL     1       2.107   5.037  19.310  0.00  0.00    +0.000 A 
ENDBRANCH  10  13
ENDBRANCH   7   8
ENDBRANCH   5   7
ENDBRANCH   4   5
ENDBRANCH   3   4
ENDBRANCH   2   3
BRANCH   2  20
ATOM     20  C   UNL     1      -4.099  11.627  16.923  0.00  0.00    +0.000 C 
BRANCH  20  21
ATOM     21  C   UNL     1      -4.617  11.573  18.409  0.00  0.00    +0.000 C 
BRANCH  21  22
ATOM     22  N   UNL     1      -3.909  12.612  19.151  0.00  0.00    +0.000 N 
ATOM     23  H   UNL     1      -3.201  13.020  18.547  0.00  0.00    +0.000 HD
BRANCH  22  24
ATOM     24  C   UNL     1      -3.614  12.676  20.509  0.00  0.00    +0.000 A 
ATOM     25  C   UNL     1      -2.396  12.286  21.038  0.00  0.00    +0.000 A 
ATOM     26  C   UNL     1      -2.197  12.479  22.394  0.00  0.00    +0.000 A 
ATOM     27  N   UNL     1      -3.184  12.618  23.292  0.00  0.00    +0.000 NA
ATOM     28  C   UNL     1      -4.399  12.863  22.815  0.00  0.00    +0.000 A 
ATOM     29  C   UNL     1      -5.421  13.013  23.737  0.00  0.00    +0.000 A 
ATOM     30  C   UNL     1      -6.639  13.570  23.373  0.00  0.00    +0.000 A 
ATOM     31 CL   UNL     1      -7.856  13.856  24.537  0.00  0.00    +0.000 Cl
ATOM     32  C   UNL     1      -6.836  13.948  22.043  0.00  0.00    +0.000 A 
ATOM     33  C   UNL     1      -5.865  13.673  21.082  0.00  0.00    +0.000 A 
ATOM     34  C   UNL     1      -4.638  13.064  21.436  0.00  0.00    +0.000 A 
ENDBRANCH  22  24
ENDBRANCH  21  22
ENDBRANCH  20  21
ENDBRANCH   2  20
TORSDOF 10
ENDMDL
