MODEL 1
REMARK VINA RESULT:      -7.3      0.000      0.000
REMARK  Name = 
REMARK  5 active torsions:
REMARK  status: ('A' for Active; 'I' for Inactive)
REMARK    1  A    between atoms: C_1  and  C_2
REMARK    2  A    between atoms: C_8  and  S_9
REMARK    3  A    between atoms: S_9  and  C_10
REMARK    4  A    between atoms: C_11  and  O_12
REMARK    5  A    between atoms: C_14  and  C_15
REMARK                            x       y       z     vdW  Elec       q    Type
REMARK                         _______ _______ _______ _____ _____    ______ ____
ROOT
ATOM      1  C   UNL     1       5.339   5.283  18.215  0.00  0.00    +0.000 C 
ATOM      2  C   UNL     1       6.567   4.818  17.911  0.00  0.00    +0.000 C 
ATOM      3  C   UNL     1       7.052   4.572  16.501  0.00  0.00    +0.000 C 
ATOM      4  C   UNL     1       5.903   4.367  15.501  0.00  0.00    +0.000 C 
ATOM      5  C   UNL     1       4.841   5.446  15.674  0.00  0.00    +0.000 C 
ATOM      6  C   UNL     1       4.354   5.520  17.104  0.00  0.00    +0.000 C 
ATOM      7  O   UNL     1       3.184   5.833  17.332  0.00  0.00    +0.000 OA
ENDROOT
BRANCH   4   8
ATOM      8  C   UNL     1       6.399   4.311  14.064  0.00  0.00    +0.000 A 
ATOM      9  C   UNL     1       7.409   5.182  13.631  0.00  0.00    +0.000 A 
ATOM     10  C   UNL     1       7.859   5.152  12.308  0.00  0.00    +0.000 A 
ATOM     11  C   UNL     1       7.307   4.249  11.401  0.00  0.00    +0.000 A 
ATOM     12  C   UNL     1       6.317   3.365  11.820  0.00  0.00    +0.000 A 
ATOM     13  C   UNL     1       5.869   3.393  13.142  0.00  0.00    +0.000 A 
ENDBRANCH   4   8
BRANCH   2  14
ATOM     14  O   UNL     1       7.505   4.473  18.870  0.00  0.00    +0.000 OA
ATOM     15  H   UNL     1       7.997   3.687  18.559  0.00  0.00    +0.000 HD
ENDBRANCH   2  14
BRANCH   1  16
ATOM     16  S   UNL     1       4.751   5.472  19.837  0.00  0.00    +0.000 S 
BRANCH  16  24
ATOM     17  C   UNL     1       4.567   2.252  19.545  0.00  0.00    +0.000 C 
ATOM     18  C   UNL     1       3.300   3.038  19.750  0.00  0.00    +0.000 A 
ATOM     19  C   UNL     1       2.103   2.294  19.841  0.00  0.00    +0.000 A 
ATOM     20  C   UNL     1       0.888   2.911  20.116  0.00  0.00    +0.000 A 
ATOM     21  C   UNL     1       0.845   4.287  20.292  0.00  0.00    +0.000 A 
ATOM     22  C   UNL     1       2.012   5.052  20.163  0.00  0.00    +0.000 A 
ATOM     23 CL   UNL     1       1.832   6.761  20.411  0.00  0.00    +0.000 Cl
ATOM     24  C   UNL     1       3.260   4.449  19.867  0.00  0.00    +0.000 A 
ENDBRANCH  16  24
ENDBRANCH   1  16
TORSDOF 4
ENDMDL
MODEL 2
REMARK VINA RESULT:      -7.3      0.048      1.006
REMARK  Name = 
REMARK  5 active torsions:
REMARK  status: ('A' for Active; 'I' for Inactive)
REMARK    1  A    between atoms: C_1  and  C_2
REMARK    2  A    between atoms: C_8  and  S_9
REMARK    3  A    between atoms: S_9  and  C_10
REMARK    4  A    between atoms: C_11  and  O_12
REMARK    5  A    between atoms: C_14  and  C_15
REMARK                            x       y       z     vdW  Elec       q    Type
REMARK                         _______ _______ _______ _____ _____    ______ ____
ROOT
ATOM      1  C   UNL     1       5.328   5.251  18.209  0.00  0.00    +0.000 C 
ATOM      2  C   UNL     1       6.549   4.773  17.896  0.00  0.00    +0.000 C 
ATOM      3  C   UNL     1       7.025   4.536  16.481  0.00  0.00    +0.000 C 
ATOM      4  C   UNL     1       5.871   4.358  15.483  0.00  0.00    +0.000 C 
ATOM      5  C   UNL     1       4.823   5.449  15.672  0.00  0.00    +0.000 C 
ATOM      6  C   UNL     1       4.343   5.513  17.104  0.00  0.00    +0.000 C 
ATOM      7  O   UNL     1       3.178   5.839  17.339  0.00  0.00    +0.000 OA
ENDROOT
BRANCH   4   8
ATOM      8  C   UNL     1       6.361   4.311  14.044  0.00  0.00    +0.000 A 
ATOM      9  C   UNL     1       5.804   3.397  13.138  0.00  0.00    +0.000 A 
ATOM     10  C   UNL     1       6.261   3.333  11.818  0.00  0.00    +0.000 A 
ATOM     11  C   UNL     1       7.276   4.183  11.386  0.00  0.00    +0.000 A 
ATOM     12  C   UNL     1       7.825   5.110  12.268  0.00  0.00    +0.000 A 
ATOM     13  C   UNL     1       7.368   5.176  13.586  0.00  0.00    +0.000 A 
ENDBRANCH   4   8
BRANCH   2  14
ATOM     14  O   UNL     1       7.485   4.405  18.848  0.00  0.00    +0.000 OA
ATOM     15  H   UNL     1       8.110   3.769  18.444  0.00  0.00    +0.000 HD
ENDBRANCH   2  14
BRANCH   1  16
ATOM     16  S   UNL     1       4.748   5.430  19.836  0.00  0.00    +0.000 S 
BRANCH  16  24
ATOM     17  C   UNL     1       4.548   2.213  19.513  0.00  0.00    +0.000 C 
ATOM     18  C   UNL     1       3.285   3.004  19.733  0.00  0.00    +0.000 A 
ATOM     19  C   UNL     1       2.086   2.264  19.824  0.00  0.00    +0.000 A 
ATOM     20  C   UNL     1       0.875   2.883  20.111  0.00  0.00    +0.000 A 
ATOM     21  C   UNL     1       0.839   4.258  20.301  0.00  0.00    +0.000 A 
ATOM     22  C   UNL     1       2.009   5.019  20.173  0.00  0.00    +0.000 A 
ATOM     23 CL   UNL     1       1.838   6.726  20.439  0.00  0.00    +0.000 Cl
ATOM     24  C   UNL     1       3.252   4.414  19.864  0.00  0.00    +0.000 A 
ENDBRANCH  16  24
ENDBRANCH   1  16
TORSDOF 4
ENDMDL
MODEL 3
REMARK VINA RESULT:      -7.3      4.344      6.993
REMARK  Name = 
REMARK  5 active torsions:
REMARK  status: ('A' for Active; 'I' for Inactive)
REMARK    1  A    between atoms: C_1  and  C_2
REMARK    2  A    between atoms: C_8  and  S_9
REMARK    3  A    between atoms: S_9  and  C_10
REMARK    4  A    between atoms: C_11  and  O_12
REMARK    5  A    between atoms: C_14  and  C_15
REMARK                            x       y       z     vdW  Elec       q    Type
REMARK                         _______ _______ _______ _____ _____    ______ ____
ROOT
ATOM      1  C   UNL     1       2.854   6.861  19.272  0.00  0.00    +0.000 C 
ATOM      2  C   UNL     1       1.961   7.270  20.195  0.00  0.00    +0.000 C 
ATOM      3  C   UNL     1       1.018   8.435  19.999  0.00  0.00    +0.000 C 
ATOM      4  C   UNL     1       1.509   9.430  18.937  0.00  0.00    +0.000 C 
ATOM      5  C   UNL     1       1.951   8.696  17.676  0.00  0.00    +0.000 C 
ATOM      6  C   UNL     1       2.979   7.631  17.987  0.00  0.00    +0.000 C 
ATOM      7  O   UNL     1       3.854   7.373  17.160  0.00  0.00    +0.000 OA
ENDROOT
BRANCH   4   8
ATOM      8  C   UNL     1       0.463  10.488  18.617  0.00  0.00    +0.000 A 
ATOM      9  C   UNL     1       0.736  11.843  18.853  0.00  0.00    +0.000 A 
ATOM     10  C   UNL     1      -0.225  12.822  18.580  0.00  0.00    +0.000 A 
ATOM     11  C   UNL     1      -1.468  12.459  18.066  0.00  0.00    +0.000 A 
ATOM     12  C   UNL     1      -1.746  11.120  17.809  0.00  0.00    +0.000 A 
ATOM     13  C   UNL     1      -0.787  10.142  18.078  0.00  0.00    +0.000 A 
ENDBRANCH   4   8
BRANCH   2  14
ATOM     14  O   UNL     1       1.845   6.689  21.447  0.00  0.00    +0.000 OA
ATOM     15  H   UNL     1       1.510   7.360  22.074  0.00  0.00    +0.000 HD
ENDBRANCH   2  14
BRANCH   1  16
ATOM     16  S   UNL     1       4.002   5.586  19.536  0.00  0.00    +0.000 S 
BRANCH  16  24
ATOM     17  C   UNL     1       4.088   4.133  16.643  0.00  0.00    +0.000 C 
ATOM     18  C   UNL     1       3.237   3.537  17.733  0.00  0.00    +0.000 A 
ATOM     19  C   UNL     1       2.556   2.340  17.418  0.00  0.00    +0.000 A 
ATOM     20  C   UNL     1       1.814   1.659  18.376  0.00  0.00    +0.000 A 
ATOM     21  C   UNL     1       1.727   2.169  19.664  0.00  0.00    +0.000 A 
ATOM     22  C   UNL     1       2.359   3.377  19.988  0.00  0.00    +0.000 A 
ATOM     23 CL   UNL     1       2.183   3.909  21.632  0.00  0.00    +0.000 Cl
ATOM     24  C   UNL     1       3.108   4.099  19.026  0.00  0.00    +0.000 A 
ENDBRANCH  16  24
ENDBRANCH   1  16
TORSDOF 4
ENDMDL
MODEL 4
REMARK VINA RESULT:      -7.3      4.341      7.064
REMARK  Name = 
REMARK  5 active torsions:
REMARK  status: ('A' for Active; 'I' for Inactive)
REMARK    1  A    between atoms: C_1  and  C_2
REMARK    2  A    between atoms: C_8  and  S_9
REMARK    3  A    between atoms: S_9  and  C_10
REMARK    4  A    between atoms: C_11  and  O_12
REMARK    5  A    between atoms: C_14  and  C_15
REMARK                            x       y       z     vdW  Elec       q    Type
REMARK                         _______ _______ _______ _____ _____    ______ ____
ROOT
ATOM      1  C   UNL     1       2.852   6.862  19.277  0.00  0.00    +0.000 C 
ATOM      2  C   UNL     1       1.955   7.264  20.200  0.00  0.00    +0.000 C 
ATOM      3  C   UNL     1       1.009   8.426  20.007  0.00  0.00    +0.000 C 
ATOM      4  C   UNL     1       1.499   9.429  18.951  0.00  0.00    +0.000 C 
ATOM      5  C   UNL     1       1.949   8.703  17.688  0.00  0.00    +0.000 C 
ATOM      6  C   UNL     1       2.979   7.639  17.997  0.00  0.00    +0.000 C 
ATOM      7  O   UNL     1       3.858   7.388  17.171  0.00  0.00    +0.000 OA
ENDROOT
BRANCH   4   8
ATOM      8  C   UNL     1       0.452  10.484  18.633  0.00  0.00    +0.000 A 
ATOM      9  C   UNL     1      -0.790  10.108  18.099  0.00  0.00    +0.000 A 
ATOM     10  C   UNL     1      -1.753  11.072  17.787  0.00  0.00    +0.000 A 
ATOM     11  C   UNL     1      -1.489  12.423  18.006  0.00  0.00    +0.000 A 
ATOM     12  C   UNL     1      -0.270  12.810  18.553  0.00  0.00    +0.000 A 
ATOM     13  C   UNL     1       0.692  11.848  18.868  0.00  0.00    +0.000 A 
ENDBRANCH   4   8
BRANCH   2  14
ATOM     14  O   UNL     1       1.838   6.676  21.448  0.00  0.00    +0.000 OA
ATOM     15  H   UNL     1       2.659   6.179  21.639  0.00  0.00    +0.000 HD
ENDBRANCH   2  14
BRANCH   1  16
ATOM     16  S   UNL     1       4.005   5.590  19.539  0.00  0.00    +0.000 S 
BRANCH  16  24
ATOM     17  C   UNL     1       4.095   4.145  16.642  0.00  0.00    +0.000 C 
ATOM     18  C   UNL     1       3.246   3.543  17.731  0.00  0.00    +0.000 A 
ATOM     19  C   UNL     1       2.569   2.345  17.413  0.00  0.00    +0.000 A 
ATOM     20  C   UNL     1       1.828   1.659  18.369  0.00  0.00    +0.000 A 
ATOM     21  C   UNL     1       1.739   2.166  19.658  0.00  0.00    +0.000 A 
ATOM     22  C   UNL     1       2.368   3.376  19.985  0.00  0.00    +0.000 A 
ATOM     23 CL   UNL     1       2.191   3.903  21.630  0.00  0.00    +0.000 Cl
ATOM     24  C   UNL     1       3.114   4.102  19.026  0.00  0.00    +0.000 A 
ENDBRANCH  16  24
ENDBRANCH   1  16
TORSDOF 4
ENDMDL
MODEL 5
REMARK VINA RESULT:      -7.3      1.285      2.768
REMARK  Name = 
REMARK  5 active torsions:
REMARK  status: ('A' for Active; 'I' for Inactive)
REMARK    1  A    between atoms: C_1  and  C_2
REMARK    2  A    between atoms: C_8  and  S_9
REMARK    3  A    between atoms: S_9  and  C_10
REMARK    4  A    between atoms: C_11  and  O_12
REMARK    5  A    between atoms: C_14  and  C_15
REMARK                            x       y       z     vdW  Elec       q    Type
REMARK                         _______ _______ _______ _____ _____    ______ ____
ROOT
ATOM      1  C   UNL     1       5.199   4.862  18.141  0.00  0.00    +0.000 C 
ATOM      2  C   UNL     1       4.269   4.892  17.166  0.00  0.00    +0.000 C 
ATOM      3  C   UNL     1       4.570   4.652  15.705  0.00  0.00    +0.000 C 
ATOM      4  C   UNL     1       6.042   4.910  15.347  0.00  0.00    +0.000 C 
ATOM      5  C   UNL     1       6.966   4.231  16.351  0.00  0.00    +0.000 C 
ATOM      6  C   UNL     1       6.638   4.637  17.770  0.00  0.00    +0.000 C 
ATOM      7  O   UNL     1       7.542   4.715  18.603  0.00  0.00    +0.000 OA
ENDROOT
BRANCH   4   8
ATOM      8  C   UNL     1       6.368   4.482  13.924  0.00  0.00    +0.000 A 
ATOM      9  C   UNL     1       5.598   3.496  13.289  0.00  0.00    +0.000 A 
ATOM     10  C   UNL     1       5.902   3.083  11.988  0.00  0.00    +0.000 A 
ATOM     11  C   UNL     1       6.975   3.650  11.305  0.00  0.00    +0.000 A 
ATOM     12  C   UNL     1       7.737   4.643  11.915  0.00  0.00    +0.000 A 
ATOM     13  C   UNL     1       7.433   5.059  13.213  0.00  0.00    +0.000 A 
ENDBRANCH   4   8
BRANCH   2  14
ATOM     14  O   UNL     1       2.937   5.193  17.398  0.00  0.00    +0.000 OA
ATOM     15  H   UNL     1       2.495   4.400  17.762  0.00  0.00    +0.000 HD
ENDBRANCH   2  14
BRANCH   1  16
ATOM     16  S   UNL     1       4.868   5.235  19.804  0.00  0.00    +0.000 S 
BRANCH  16  24
ATOM     17  C   UNL     1       1.977   6.609  20.302  0.00  0.00    +0.000 C 
ATOM     18  C   UNL     1       2.080   5.106  20.303  0.00  0.00    +0.000 A 
ATOM     19  C   UNL     1       0.876   4.392  20.485  0.00  0.00    +0.000 A 
ATOM     20  C   UNL     1       0.841   3.004  20.416  0.00  0.00    +0.000 A 
ATOM     21  C   UNL     1       2.016   2.303  20.177  0.00  0.00    +0.000 A 
ATOM     22  C   UNL     1       3.230   2.988  20.037  0.00  0.00    +0.000 A 
ATOM     23 CL   UNL     1       4.628   2.003  19.735  0.00  0.00    +0.000 Cl
ATOM     24  C   UNL     1       3.294   4.401  20.119  0.00  0.00    +0.000 A 
ENDBRANCH  16  24
ENDBRANCH   1  16
TORSDOF 4
ENDMDL
MODEL 6
REMARK VINA RESULT:      -7.2      6.234      8.778
REMARK  Name = 
REMARK  5 active torsions:
REMARK  status: ('A' for Active; 'I' for Inactive)
REMARK    1  A    between atoms: C_1  and  C_2
REMARK    2  A    between atoms: C_8  and  S_9
REMARK    3  A    between atoms: S_9  and  C_10
REMARK    4  A    between atoms: C_11  and  O_12
REMARK    5  A    between atoms: C_14  and  C_15
REMARK                            x       y       z     vdW  Elec       q    Type
REMARK                         _______ _______ _______ _____ _____    ______ ____
ROOT
ATOM      1  C   UNL     1       0.799  10.664  20.100  0.00  0.00    +0.000 C 
ATOM      2  C   UNL     1       1.239  10.182  18.920  0.00  0.00    +0.000 C 
ATOM      3  C   UNL     1       1.599   8.733  18.682  0.00  0.00    +0.000 C 
ATOM      4  C   UNL     1       1.946   7.982  19.977  0.00  0.00    +0.000 C 
ATOM      5  C   UNL     1       0.900   8.254  21.053  0.00  0.00    +0.000 C 
ATOM      6  C   UNL     1       0.710   9.737  21.279  0.00  0.00    +0.000 C 
ATOM      7  O   UNL     1       0.426  10.147  22.406  0.00  0.00    +0.000 OA
ENDROOT
BRANCH   4   8
ATOM      8  C   UNL     1       2.118   6.489  19.744  0.00  0.00    +0.000 A 
ATOM      9  C   UNL     1       2.550   6.015  18.496  0.00  0.00    +0.000 A 
ATOM     10  C   UNL     1       2.693   4.643  18.266  0.00  0.00    +0.000 A 
ATOM     11  C   UNL     1       2.410   3.729  19.279  0.00  0.00    +0.000 A 
ATOM     12  C   UNL     1       1.999   4.185  20.528  0.00  0.00    +0.000 A 
ATOM     13  C   UNL     1       1.858   5.555  20.760  0.00  0.00    +0.000 A 
ENDBRANCH   4   8
BRANCH   2  14
ATOM     14  O   UNL     1       1.452  10.979  17.808  0.00  0.00    +0.000 OA
ATOM     15  H   UNL     1       0.594  11.353  17.522  0.00  0.00    +0.000 HD
ENDBRANCH   2  14
BRANCH   1  16
ATOM     16  S   UNL     1       0.480  12.345  20.398  0.00  0.00    +0.000 S 
BRANCH  16  24
ATOM     17  C   UNL     1      -1.149  12.957  23.130  0.00  0.00    +0.000 C 
ATOM     18  C   UNL     1      -1.921  12.701  21.862  0.00  0.00    +0.000 A 
ATOM     19  C   UNL     1      -3.327  12.788  21.952  0.00  0.00    +0.000 A 
ATOM     20  C   UNL     1      -4.133  12.655  20.827  0.00  0.00    +0.000 A 
ATOM     21  C   UNL     1      -3.546  12.419  19.591  0.00  0.00    +0.000 A 
ATOM     22  C   UNL     1      -2.155  12.286  19.484  0.00  0.00    +0.000 A 
ATOM     23 CL   UNL     1      -1.539  12.000  17.886  0.00  0.00    +0.000 Cl
ATOM     24  C   UNL     1      -1.314  12.401  20.618  0.00  0.00    +0.000 A 
ENDBRANCH  16  24
ENDBRANCH   1  16
TORSDOF 4
ENDMDL
MODEL 7
REMARK VINA RESULT:      -7.2      6.225      8.781
REMARK  Name = 
REMARK  5 active torsions:
REMARK  status: ('A' for Active; 'I' for Inactive)
REMARK    1  A    between atoms: C_1  and  C_2
REMARK    2  A    between atoms: C_8  and  S_9
REMARK    3  A    between atoms: S_9  and  C_10
REMARK    4  A    between atoms: C_11  and  O_12
REMARK    5  A    between atoms: C_14  and  C_15
REMARK                            x       y       z     vdW  Elec       q    Type
REMARK                         _______ _______ _______ _____ _____    ______ ____
ROOT
ATOM      1  C   UNL     1       0.785  10.653  20.096  0.00  0.00    +0.000 C 
ATOM      2  C   UNL     1       1.225  10.174  18.915  0.00  0.00    +0.000 C 
ATOM      3  C   UNL     1       1.590   8.728  18.674  0.00  0.00    +0.000 C 
ATOM      4  C   UNL     1       1.941   7.975  19.967  0.00  0.00    +0.000 C 
ATOM      5  C   UNL     1       0.896   8.241  21.044  0.00  0.00    +0.000 C 
ATOM      6  C   UNL     1       0.701   9.722  21.274  0.00  0.00    +0.000 C 
ATOM      7  O   UNL     1       0.416  10.129  22.401  0.00  0.00    +0.000 OA
ENDROOT
BRANCH   4   8
ATOM      8  C   UNL     1       2.119   6.483  19.730  0.00  0.00    +0.000 A 
ATOM      9  C   UNL     1       1.803   5.566  20.743  0.00  0.00    +0.000 A 
ATOM     10  C   UNL     1       1.981   4.193  20.542  0.00  0.00    +0.000 A 
ATOM     11  C   UNL     1       2.472   3.721  19.328  0.00  0.00    +0.000 A 
ATOM     12  C   UNL     1       2.772   4.618  18.306  0.00  0.00    +0.000 A 
ATOM     13  C   UNL     1       2.593   5.988  18.504  0.00  0.00    +0.000 A 
ENDBRANCH   4   8
BRANCH   2  14
ATOM     14  O   UNL     1       1.434  10.974  17.804  0.00  0.00    +0.000 OA
ATOM     15  H   UNL     1       1.058  10.526  17.020  0.00  0.00    +0.000 HD
ENDBRANCH   2  14
BRANCH   1  16
ATOM     16  S   UNL     1       0.460  12.331  20.398  0.00  0.00    +0.000 S 
BRANCH  16  24
ATOM     17  C   UNL     1      -1.170  12.900  23.139  0.00  0.00    +0.000 C 
ATOM     18  C   UNL     1      -1.942  12.661  21.868  0.00  0.00    +0.000 A 
ATOM     19  C   UNL     1      -3.348  12.743  21.960  0.00  0.00    +0.000 A 
ATOM     20  C   UNL     1      -4.154  12.626  20.833  0.00  0.00    +0.000 A 
ATOM     21  C   UNL     1      -3.567  12.409  19.593  0.00  0.00    +0.000 A 
ATOM     22  C   UNL     1      -2.175  12.281  19.485  0.00  0.00    +0.000 A 
ATOM     23 CL   UNL     1      -1.560  12.019  17.882  0.00  0.00    +0.000 Cl
ATOM     24  C   UNL     1      -1.334  12.381  20.620  0.00  0.00    +0.000 A 
ENDBRANCH  16  24
ENDBRANCH   1  16
TORSDOF 4
ENDMDL
MODEL 8
REMARK VINA RESULT:      -7.2      4.351      8.149
REMARK  Name = 
REMARK  5 active torsions:
REMARK  status: ('A' for Active; 'I' for Inactive)
REMARK    1  A    between atoms: C_1  and  C_2
REMARK    2  A    between atoms: C_8  and  S_9
REMARK    3  A    between atoms: S_9  and  C_10
REMARK    4  A    between atoms: C_11  and  O_12
REMARK    5  A    between atoms: C_14  and  C_15
REMARK                            x       y       z     vdW  Elec       q    Type
REMARK                         _______ _______ _______ _____ _____    ______ ____
ROOT
ATOM      1  C   UNL     1       2.501   7.409  18.775  0.00  0.00    +0.000 C 
ATOM      2  C   UNL     1       2.193   7.088  20.047  0.00  0.00    +0.000 C 
ATOM      3  C   UNL     1       1.294   7.918  20.933  0.00  0.00    +0.000 C 
ATOM      4  C   UNL     1       1.203   9.386  20.487  0.00  0.00    +0.000 C 
ATOM      5  C   UNL     1       0.950   9.477  18.987  0.00  0.00    +0.000 C 
ATOM      6  C   UNL     1       1.980   8.697  18.202  0.00  0.00    +0.000 C 
ATOM      7  O   UNL     1       2.324   9.096  17.088  0.00  0.00    +0.000 OA
ENDROOT
BRANCH   4   8
ATOM      8  C   UNL     1       0.152  10.158  21.269  0.00  0.00    +0.000 A 
ATOM      9  C   UNL     1      -0.495  11.258  20.686  0.00  0.00    +0.000 A 
ATOM     10  C   UNL     1      -1.449  11.986  21.403  0.00  0.00    +0.000 A 
ATOM     11  C   UNL     1      -1.770  11.624  22.709  0.00  0.00    +0.000 A 
ATOM     12  C   UNL     1      -1.151  10.524  23.295  0.00  0.00    +0.000 A 
ATOM     13  C   UNL     1      -0.200   9.794  22.579  0.00  0.00    +0.000 A 
ENDBRANCH   4   8
BRANCH   2  14
ATOM     14  O   UNL     1       2.708   5.977  20.694  0.00  0.00    +0.000 OA
ATOM     15  H   UNL     1       2.984   5.322  20.021  0.00  0.00    +0.000 HD
ENDBRANCH   2  14
BRANCH   1  16
ATOM     16  S   UNL     1       3.612   6.506  17.792  0.00  0.00    +0.000 S 
BRANCH  16  24
ATOM     17  C   UNL     1       1.138   4.453  17.399  0.00  0.00    +0.000 C 
ATOM     18  C   UNL     1       2.343   4.001  18.181  0.00  0.00    +0.000 A 
ATOM     19  C   UNL     1       2.321   2.673  18.662  0.00  0.00    +0.000 A 
ATOM     20  C   UNL     1       3.416   2.126  19.321  0.00  0.00    +0.000 A 
ATOM     21  C   UNL     1       4.550   2.901  19.523  0.00  0.00    +0.000 A 
ATOM     22  C   UNL     1       4.578   4.235  19.093  0.00  0.00    +0.000 A 
ATOM     23 CL   UNL     1       6.053   5.100  19.397  0.00  0.00    +0.000 Cl
ATOM     24  C   UNL     1       3.470   4.821  18.434  0.00  0.00    +0.000 A 
ENDBRANCH  16  24
ENDBRANCH   1  16
TORSDOF 4
ENDMDL
MODEL 9
REMARK VINA RESULT:      -7.2      0.533      2.054
REMARK  Name = 
REMARK  5 active torsions:
REMARK  status: ('A' for Active; 'I' for Inactive)
REMARK    1  A    between atoms: C_1  and  C_2
REMARK    2  A    between atoms: C_8  and  S_9
REMARK    3  A    between atoms: S_9  and  C_10
REMARK    4  A    between atoms: C_11  and  O_12
REMARK    5  A    between atoms: C_14  and  C_15
REMARK                            x       y       z     vdW  Elec       q    Type
REMARK                         _______ _______ _______ _____ _____    ______ ____
ROOT
ATOM      1  C   UNL     1       5.250   4.839  18.083  0.00  0.00    +0.000 C 
ATOM      2  C   UNL     1       4.315   4.802  17.112  0.00  0.00    +0.000 C 
ATOM      3  C   UNL     1       4.624   4.564  15.652  0.00  0.00    +0.000 C 
ATOM      4  C   UNL     1       6.075   4.907  15.283  0.00  0.00    +0.000 C 
ATOM      5  C   UNL     1       7.044   4.297  16.289  0.00  0.00    +0.000 C 
ATOM      6  C   UNL     1       6.698   4.699  17.706  0.00  0.00    +0.000 C 
ATOM      7  O   UNL     1       7.600   4.840  18.534  0.00  0.00    +0.000 OA
ENDROOT
BRANCH   4   8
ATOM      8  C   UNL     1       6.421   4.484  13.864  0.00  0.00    +0.000 A 
ATOM      9  C   UNL     1       5.696   3.461  13.236  0.00  0.00    +0.000 A 
ATOM     10  C   UNL     1       6.017   3.052  11.938  0.00  0.00    +0.000 A 
ATOM     11  C   UNL     1       7.064   3.661  11.251  0.00  0.00    +0.000 A 
ATOM     12  C   UNL     1       7.780   4.692  11.853  0.00  0.00    +0.000 A 
ATOM     13  C   UNL     1       7.459   5.103  13.148  0.00  0.00    +0.000 A 
ENDBRANCH   4   8
BRANCH   2  14
ATOM     14  O   UNL     1       2.969   5.024  17.348  0.00  0.00    +0.000 OA
ATOM     15  H   UNL     1       2.733   4.630  18.213  0.00  0.00    +0.000 HD
ENDBRANCH   2  14
BRANCH   1  16
ATOM     16  S   UNL     1       4.905   5.210  19.743  0.00  0.00    +0.000 S 
BRANCH  16  24
ATOM     17  C   UNL     1       4.489   2.023  20.141  0.00  0.00    +0.000 C 
ATOM     18  C   UNL     1       3.292   2.931  20.237  0.00  0.00    +0.000 A 
ATOM     19  C   UNL     1       2.057   2.317  20.538  0.00  0.00    +0.000 A 
ATOM     20  C   UNL     1       0.905   3.069  20.734  0.00  0.00    +0.000 A 
ATOM     21  C   UNL     1       0.964   4.452  20.619  0.00  0.00    +0.000 A 
ATOM     22  C   UNL     1       2.170   5.080  20.278  0.00  0.00    +0.000 A 
ATOM     23 CL   UNL     1       2.119   6.813  20.171  0.00  0.00    +0.000 Cl
ATOM     24  C   UNL     1       3.353   4.335  20.057  0.00  0.00    +0.000 A 
ENDBRANCH  16  24
ENDBRANCH   1  16
TORSDOF 4
ENDMDL
