MODEL 1
REMARK VINA RESULT:      -7.0      0.000      0.000
REMARK  Name = 
REMARK  8 active torsions:
REMARK  status: ('A' for Active; 'I' for Inactive)
REMARK    1  A    between atoms: C_1  and  C_2
REMARK    2  A    between atoms: C_2  and  O_3
REMARK    3  A    between atoms: C_2  and  C_4
REMARK    4  A    between atoms: C_4  and  N_5
REMARK    5  A    between atoms: N_5  and  C_14
REMARK    6  A    between atoms: N_8  and  C_9
REMARK    7  A    between atoms: N_8  and  N_12
REMARK    8  A    between atoms: C_9  and  C_10
REMARK                            x       y       z     vdW  Elec       q    Type
REMARK                         _______ _______ _______ _____ _____    ______ ____
ROOT
ATOM      1  N   UNL     1       4.124   5.022  18.411  0.00  0.00    +0.000 N 
ATOM      2  C   UNL     1       5.106   5.618  17.554  0.00  0.00    +0.000 C 
ATOM      3  O   UNL     1       4.756   6.286  16.569  0.00  0.00    +0.000 OA
ATOM      4  N   UNL     1       6.455   5.596  17.940  0.00  0.00    +0.000 N 
ENDROOT
BRANCH   1   5
ATOM      5  C   UNL     1       2.733   5.606  18.283  0.00  0.00    +0.000 C 
ATOM      6  C   UNL     1       1.569   4.709  17.825  0.00  0.00    +0.000 C 
ATOM      7  C   UNL     1       1.216   3.606  18.830  0.00  0.00    +0.000 C 
ATOM      8  C   UNL     1       0.980   4.144  20.242  0.00  0.00    +0.000 C 
ATOM      9  C   UNL     1       1.969   5.225  20.677  0.00  0.00    +0.000 C 
ATOM     10  C   UNL     1       2.199   6.264  19.587  0.00  0.00    +0.000 C 
ENDBRANCH   1   5
BRANCH   4  11
ATOM     11  N   UNL     1       7.062   4.328  18.006  0.00  0.00    +0.000 NA
ATOM     12  O   UNL     1       7.991   4.209  17.197  0.00  0.00    +0.000 OA
ENDBRANCH   4  11
BRANCH   1  13
ATOM     13  C   UNL     1       4.478   4.094  19.519  0.00  0.00    +0.000 C 
BRANCH  13  15
ATOM     14  C   UNL     1       4.093   2.067  17.964  0.00  0.00    +0.000 C 
ATOM     15  C   UNL     1       4.212   2.568  19.396  0.00  0.00    +0.000 C 
BRANCH  15  16
ATOM     16  O   UNL     1       5.273   1.847  20.044  0.00  0.00    +0.000 OA
ATOM     17  H   UNL     1       4.895   1.340  20.781  0.00  0.00    +0.000 HD
ENDBRANCH  15  16
ENDBRANCH  13  15
ENDBRANCH   1  13
BRANCH   4  18
ATOM     18  C   UNL     1       7.338   6.639  17.363  0.00  0.00    +0.000 C 
BRANCH  18  19
ATOM     19  C   UNL     1       8.140   7.421  18.403  0.00  0.00    +0.000 C 
ATOM     20 CL   UNL     1       8.243   9.153  17.993  0.00  0.00    +0.000 Cl
ENDBRANCH  18  19
ENDBRANCH   4  18
TORSDOF 7
ENDMDL
MODEL 2
REMARK VINA RESULT:      -7.0      2.450      3.908
REMARK  Name = 
REMARK  8 active torsions:
REMARK  status: ('A' for Active; 'I' for Inactive)
REMARK    1  A    between atoms: C_1  and  C_2
REMARK    2  A    between atoms: C_2  and  O_3
REMARK    3  A    between atoms: C_2  and  C_4
REMARK    4  A    between atoms: C_4  and  N_5
REMARK    5  A    between atoms: N_5  and  C_14
REMARK    6  A    between atoms: N_8  and  C_9
REMARK    7  A    between atoms: N_8  and  N_12
REMARK    8  A    between atoms: C_9  and  C_10
REMARK                            x       y       z     vdW  Elec       q    Type
REMARK                         _______ _______ _______ _____ _____    ______ ____
ROOT
ATOM      1  N   UNL     1       3.849   4.868  18.943  0.00  0.00    +0.000 N 
ATOM      2  C   UNL     1       5.151   4.735  18.359  0.00  0.00    +0.000 C 
ATOM      3  O   UNL     1       6.017   4.037  18.909  0.00  0.00    +0.000 OA
ATOM      4  N   UNL     1       5.379   5.246  17.073  0.00  0.00    +0.000 N 
ENDROOT
BRANCH   1   5
ATOM      5  C   UNL     1       3.504   3.808  19.968  0.00  0.00    +0.000 C 
ATOM      6  C   UNL     1       2.280   4.000  20.881  0.00  0.00    +0.000 C 
ATOM      7  C   UNL     1       0.945   3.972  20.126  0.00  0.00    +0.000 C 
ATOM      8  C   UNL     1       0.790   2.734  19.242  0.00  0.00    +0.000 C 
ATOM      9  C   UNL     1       2.055   2.341  18.481  0.00  0.00    +0.000 C 
ATOM     10  C   UNL     1       3.294   2.389  19.366  0.00  0.00    +0.000 C 
ENDBRANCH   1   5
BRANCH   4  11
ATOM     11  N   UNL     1       5.294   6.644  16.934  0.00  0.00    +0.000 NA
ATOM     12  O   UNL     1       5.173   6.993  15.753  0.00  0.00    +0.000 OA
ENDBRANCH   4  11
BRANCH   1  13
ATOM     13  C   UNL     1       2.819   5.801  18.412  0.00  0.00    +0.000 C 
BRANCH  13  15
ATOM     14  C   UNL     1       1.984   8.203  17.957  0.00  0.00    +0.000 C 
ATOM     15  C   UNL     1       2.766   7.281  18.881  0.00  0.00    +0.000 C 
BRANCH  15  16
ATOM     16  O   UNL     1       2.179   7.343  20.191  0.00  0.00    +0.000 OA
ATOM     17  H   UNL     1       2.253   8.255  20.518  0.00  0.00    +0.000 HD
ENDBRANCH  15  16
ENDBRANCH  13  15
ENDBRANCH   1  13
BRANCH   4  18
ATOM     18  C   UNL     1       6.494   4.648  16.297  0.00  0.00    +0.000 C 
BRANCH  18  19
ATOM     19  C   UNL     1       6.047   3.625  15.252  0.00  0.00    +0.000 C 
ATOM     20 CL   UNL     1       6.481   4.135  13.600  0.00  0.00    +0.000 Cl
ENDBRANCH  18  19
ENDBRANCH   4  18
TORSDOF 7
ENDMDL
MODEL 3
REMARK VINA RESULT:      -7.0      2.313      3.803
REMARK  Name = 
REMARK  8 active torsions:
REMARK  status: ('A' for Active; 'I' for Inactive)
REMARK    1  A    between atoms: C_1  and  C_2
REMARK    2  A    between atoms: C_2  and  O_3
REMARK    3  A    between atoms: C_2  and  C_4
REMARK    4  A    between atoms: C_4  and  N_5
REMARK    5  A    between atoms: N_5  and  C_14
REMARK    6  A    between atoms: N_8  and  C_9
REMARK    7  A    between atoms: N_8  and  N_12
REMARK    8  A    between atoms: C_9  and  C_10
REMARK                            x       y       z     vdW  Elec       q    Type
REMARK                         _______ _______ _______ _____ _____    ______ ____
ROOT
ATOM      1  N   UNL     1       3.985   4.776  18.601  0.00  0.00    +0.000 N 
ATOM      2  C   UNL     1       5.355   4.767  18.179  0.00  0.00    +0.000 C 
ATOM      3  O   UNL     1       6.229   4.260  18.899  0.00  0.00    +0.000 OA
ATOM      4  N   UNL     1       5.671   5.165  16.872  0.00  0.00    +0.000 N 
ENDROOT
BRANCH   1   5
ATOM      5  C   UNL     1       3.656   3.793  19.704  0.00  0.00    +0.000 C 
ATOM      6  C   UNL     1       2.310   3.898  20.443  0.00  0.00    +0.000 C 
ATOM      7  C   UNL     1       1.099   3.592  19.553  0.00  0.00    +0.000 C 
ATOM      8  C   UNL     1       1.226   2.256  18.819  0.00  0.00    +0.000 C 
ATOM      9  C   UNL     1       2.620   1.976  18.259  0.00  0.00    +0.000 C 
ATOM     10  C   UNL     1       3.718   2.302  19.264  0.00  0.00    +0.000 C 
ENDBRANCH   1   5
BRANCH   4  11
ATOM     11  N   UNL     1       5.425   6.514  16.556  0.00  0.00    +0.000 NA
ATOM     12  O   UNL     1       6.283   7.272  17.028  0.00  0.00    +0.000 OA
ENDBRANCH   4  11
BRANCH   1  13
ATOM     13  C   UNL     1       2.916   5.492  17.853  0.00  0.00    +0.000 C 
BRANCH  13  15
ATOM     14  C   UNL     1       2.349   7.079  19.811  0.00  0.00    +0.000 C 
ATOM     15  C   UNL     1       2.437   6.900  18.302  0.00  0.00    +0.000 C 
BRANCH  15  16
ATOM     16  O   UNL     1       3.329   7.896  17.776  0.00  0.00    +0.000 OA
ATOM     17  H   UNL     1       2.840   8.443  17.141  0.00  0.00    +0.000 HD
ENDBRANCH  15  16
ENDBRANCH  13  15
ENDBRANCH   1  13
BRANCH   4  18
ATOM     18  C   UNL     1       6.939   4.652  16.298  0.00  0.00    +0.000 C 
BRANCH  18  19
ATOM     19  C   UNL     1       7.021   4.755  14.775  0.00  0.00    +0.000 C 
ATOM     20 CL   UNL     1       5.544   4.138  13.990  0.00  0.00    +0.000 Cl
ENDBRANCH  18  19
ENDBRANCH   4  18
TORSDOF 7
ENDMDL
MODEL 4
REMARK VINA RESULT:      -6.7      0.827      1.123
REMARK  Name = 
REMARK  8 active torsions:
REMARK  status: ('A' for Active; 'I' for Inactive)
REMARK    1  A    between atoms: C_1  and  C_2
REMARK    2  A    between atoms: C_2  and  O_3
REMARK    3  A    between atoms: C_2  and  C_4
REMARK    4  A    between atoms: C_4  and  N_5
REMARK    5  A    between atoms: N_5  and  C_14
REMARK    6  A    between atoms: N_8  and  C_9
REMARK    7  A    between atoms: N_8  and  N_12
REMARK    8  A    between atoms: C_9  and  C_10
REMARK                            x       y       z     vdW  Elec       q    Type
REMARK                         _______ _______ _______ _____ _____    ______ ____
ROOT
ATOM      1  N   UNL     1       4.066   4.580  18.125  0.00  0.00    +0.000 N 
ATOM      2  C   UNL     1       4.982   5.128  17.169  0.00  0.00    +0.000 C 
ATOM      3  O   UNL     1       4.567   5.582  16.092  0.00  0.00    +0.000 OA
ATOM      4  N   UNL     1       6.322   5.317  17.536  0.00  0.00    +0.000 N 
ENDROOT
BRANCH   1   5
ATOM      5  C   UNL     1       2.620   4.979  17.918  0.00  0.00    +0.000 C 
ATOM      6  C   UNL     1       1.511   4.272  18.718  0.00  0.00    +0.000 C 
ATOM      7  C   UNL     1       1.569   4.555  20.224  0.00  0.00    +0.000 C 
ATOM      8  C   UNL     1       1.619   6.050  20.545  0.00  0.00    +0.000 C 
ATOM      9  C   UNL     1       2.528   6.862  19.624  0.00  0.00    +0.000 C 
ATOM     10  C   UNL     1       2.340   6.490  18.159  0.00  0.00    +0.000 C 
ENDBRANCH   1   5
BRANCH   4  11
ATOM     11  N   UNL     1       7.064   4.151  17.804  0.00  0.00    +0.000 NA
ATOM     12  O   UNL     1       8.153   4.141  17.215  0.00  0.00    +0.000 OA
ENDBRANCH   4  11
BRANCH   1  13
ATOM     13  C   UNL     1       4.512   3.891  19.366  0.00  0.00    +0.000 C 
BRANCH  13  15
ATOM     14  C   UNL     1       3.803   1.618  18.364  0.00  0.00    +0.000 C 
ATOM     15  C   UNL     1       4.162   2.399  19.620  0.00  0.00    +0.000 C 
BRANCH  15  16
ATOM     16  O   UNL     1       5.276   1.751  20.256  0.00  0.00    +0.000 OA
ATOM     17  H   UNL     1       5.090   1.683  21.207  0.00  0.00    +0.000 HD
ENDBRANCH  15  16
ENDBRANCH  13  15
ENDBRANCH   1  13
BRANCH   4  18
ATOM     18  C   UNL     1       7.090   6.340  16.785  0.00  0.00    +0.000 C 
BRANCH  18  19
ATOM     19  C   UNL     1       7.443   7.581  17.604  0.00  0.00    +0.000 C 
ATOM     20 CL   UNL     1       8.439   7.174  19.026  0.00  0.00    +0.000 Cl
ENDBRANCH  18  19
ENDBRANCH   4  18
TORSDOF 7
ENDMDL
MODEL 5
REMARK VINA RESULT:      -6.5      3.330      4.606
REMARK  Name = 
REMARK  8 active torsions:
REMARK  status: ('A' for Active; 'I' for Inactive)
REMARK    1  A    between atoms: C_1  and  C_2
REMARK    2  A    between atoms: C_2  and  O_3
REMARK    3  A    between atoms: C_2  and  C_4
REMARK    4  A    between atoms: C_4  and  N_5
REMARK    5  A    between atoms: N_5  and  C_14
REMARK    6  A    between atoms: N_8  and  C_9
REMARK    7  A    between atoms: N_8  and  N_12
REMARK    8  A    between atoms: C_9  and  C_10
REMARK                            x       y       z     vdW  Elec       q    Type
REMARK                         _______ _______ _______ _____ _____    ______ ____
ROOT
ATOM      1  N   UNL     1       5.485   4.920  17.143  0.00  0.00    +0.000 N 
ATOM      2  C   UNL     1       5.640   4.121  15.964  0.00  0.00    +0.000 C 
ATOM      3  O   UNL     1       5.589   2.883  16.034  0.00  0.00    +0.000 OA
ATOM      4  N   UNL     1       5.665   4.748  14.710  0.00  0.00    +0.000 N 
ENDROOT
BRANCH   1   5
ATOM      5  C   UNL     1       4.853   4.202  18.316  0.00  0.00    +0.000 C 
ATOM      6  C   UNL     1       4.433   5.000  19.563  0.00  0.00    +0.000 C 
ATOM      7  C   UNL     1       3.282   5.979  19.302  0.00  0.00    +0.000 C 
ATOM      8  C   UNL     1       2.076   5.312  18.637  0.00  0.00    +0.000 C 
ATOM      9  C   UNL     1       2.435   4.315  17.538  0.00  0.00    +0.000 C 
ATOM     10  C   UNL     1       3.576   3.392  17.951  0.00  0.00    +0.000 C 
ENDBRANCH   1   5
BRANCH   4  11
ATOM     11  N   UNL     1       6.759   5.598  14.461  0.00  0.00    +0.000 NA
ATOM     12  O   UNL     1       7.819   5.143  14.908  0.00  0.00    +0.000 OA
ENDBRANCH   4  11
BRANCH   1  13
ATOM     13  C   UNL     1       5.679   6.395  17.147  0.00  0.00    +0.000 C 
BRANCH  13  15
ATOM     14  C   UNL     1       7.727   6.136  18.701  0.00  0.00    +0.000 C 
ATOM     15  C   UNL     1       6.979   7.026  17.719  0.00  0.00    +0.000 C 
BRANCH  15  16
ATOM     16  O   UNL     1       7.864   7.353  16.636  0.00  0.00    +0.000 OA
ATOM     17  H   UNL     1       7.445   8.042  16.093  0.00  0.00    +0.000 HD
ENDBRANCH  15  16
ENDBRANCH  13  15
ENDBRANCH   1  13
BRANCH   4  18
ATOM     18  C   UNL     1       5.285   3.925  13.536  0.00  0.00    +0.000 C 
BRANCH  18  19
ATOM     19  C   UNL     1       6.437   3.643  12.572  0.00  0.00    +0.000 C 
ATOM     20 CL   UNL     1       6.135   2.188  11.587  0.00  0.00    +0.000 Cl
ENDBRANCH  18  19
ENDBRANCH   4  18
TORSDOF 7
ENDMDL
MODEL 6
REMARK VINA RESULT:      -6.4      0.955      1.111
REMARK  Name = 
REMARK  8 active torsions:
REMARK  status: ('A' for Active; 'I' for Inactive)
REMARK    1  A    between atoms: C_1  and  C_2
REMARK    2  A    between atoms: C_2  and  O_3
REMARK    3  A    between atoms: C_2  and  C_4
REMARK    4  A    between atoms: C_4  and  N_5
REMARK    5  A    between atoms: N_5  and  C_14
REMARK    6  A    between atoms: N_8  and  C_9
REMARK    7  A    between atoms: N_8  and  N_12
REMARK    8  A    between atoms: C_9  and  C_10
REMARK                            x       y       z     vdW  Elec       q    Type
REMARK                         _______ _______ _______ _____ _____    ______ ____
ROOT
ATOM      1  N   UNL     1       3.983   4.966  17.324  0.00  0.00    +0.000 N 
ATOM      2  C   UNL     1       4.974   5.839  16.768  0.00  0.00    +0.000 C 
ATOM      3  O   UNL     1       4.637   6.881  16.186  0.00  0.00    +0.000 OA
ATOM      4  N   UNL     1       6.328   5.603  17.048  0.00  0.00    +0.000 N 
ENDROOT
BRANCH   1   5
ATOM      5  C   UNL     1       2.621   5.598  17.520  0.00  0.00    +0.000 C 
ATOM      6  C   UNL     1       1.388   4.702  17.730  0.00  0.00    +0.000 C 
ATOM      7  C   UNL     1       1.420   3.916  19.047  0.00  0.00    +0.000 C 
ATOM      8  C   UNL     1       1.672   4.809  20.263  0.00  0.00    +0.000 C 
ATOM      9  C   UNL     1       2.729   5.889  20.043  0.00  0.00    +0.000 C 
ATOM     10  C   UNL     1       2.554   6.601  18.707  0.00  0.00    +0.000 C 
ENDBRANCH   1   5
BRANCH   4  11
ATOM     11  N   UNL     1       6.872   4.411  16.533  0.00  0.00    +0.000 NA
ATOM     12  O   UNL     1       8.001   4.177  16.981  0.00  0.00    +0.000 OA
ENDBRANCH   4  11
BRANCH   1  13
ATOM     13  C   UNL     1       4.314   3.636  17.904  0.00  0.00    +0.000 C 
BRANCH  13  15
ATOM     14  C   UNL     1       4.516   2.161  20.014  0.00  0.00    +0.000 C 
ATOM     15  C   UNL     1       4.812   3.507  19.370  0.00  0.00    +0.000 C 
BRANCH  15  16
ATOM     16  O   UNL     1       6.230   3.730  19.411  0.00  0.00    +0.000 OA
ATOM     17  H   UNL     1       6.632   3.301  18.638  0.00  0.00    +0.000 HD
ENDBRANCH  15  16
ENDBRANCH  13  15
ENDBRANCH   1  13
BRANCH   4  18
ATOM     18  C   UNL     1       7.251   6.760  16.943  0.00  0.00    +0.000 C 
BRANCH  18  19
ATOM     19  C   UNL     1       7.837   7.213  18.280  0.00  0.00    +0.000 C 
ATOM     20 CL   UNL     1       8.371   8.914  18.225  0.00  0.00    +0.000 Cl
ENDBRANCH  18  19
ENDBRANCH   4  18
TORSDOF 7
ENDMDL
MODEL 7
REMARK VINA RESULT:      -6.4      2.103      3.699
REMARK  Name = 
REMARK  8 active torsions:
REMARK  status: ('A' for Active; 'I' for Inactive)
REMARK    1  A    between atoms: C_1  and  C_2
REMARK    2  A    between atoms: C_2  and  O_3
REMARK    3  A    between atoms: C_2  and  C_4
REMARK    4  A    between atoms: C_4  and  N_5
REMARK    5  A    between atoms: N_5  and  C_14
REMARK    6  A    between atoms: N_8  and  C_9
REMARK    7  A    between atoms: N_8  and  N_12
REMARK    8  A    between atoms: C_9  and  C_10
REMARK                            x       y       z     vdW  Elec       q    Type
REMARK                         _______ _______ _______ _____ _____    ______ ____
ROOT
ATOM      1  N   UNL     1       3.720   4.067  18.479  0.00  0.00    +0.000 N 
ATOM      2  C   UNL     1       5.101   4.362  18.239  0.00  0.00    +0.000 C 
ATOM      3  O   UNL     1       5.988   3.764  18.869  0.00  0.00    +0.000 OA
ATOM      4  N   UNL     1       5.448   5.191  17.163  0.00  0.00    +0.000 N 
ENDROOT
BRANCH   1   5
ATOM      5  C   UNL     1       3.465   2.751  19.183  0.00  0.00    +0.000 C 
ATOM      6  C   UNL     1       3.416   2.706  20.721  0.00  0.00    +0.000 C 
ATOM      7  C   UNL     1       2.227   3.469  21.317  0.00  0.00    +0.000 C 
ATOM      8  C   UNL     1       0.888   3.051  20.705  0.00  0.00    +0.000 C 
ATOM      9  C   UNL     1       0.925   2.843  19.193  0.00  0.00    +0.000 C 
ATOM     10  C   UNL     1       2.147   2.047  18.752  0.00  0.00    +0.000 C 
ENDBRANCH   1   5
BRANCH   4  11
ATOM     11  N   UNL     1       5.021   6.530  17.247  0.00  0.00    +0.000 NA
ATOM     12  O   UNL     1       4.815   7.028  16.133  0.00  0.00    +0.000 OA
ENDBRANCH   4  11
BRANCH   1  13
ATOM     13  C   UNL     1       2.611   4.848  17.865  0.00  0.00    +0.000 C 
BRANCH  13  15
ATOM     14  C   UNL     1       2.625   6.381  19.944  0.00  0.00    +0.000 C 
ATOM     15  C   UNL     1       2.058   6.125  18.556  0.00  0.00    +0.000 C 
BRANCH  15  16
ATOM     16  O   UNL     1       2.336   7.268  17.732  0.00  0.00    +0.000 OA
ATOM     17  H   UNL     1       1.614   7.368  17.089  0.00  0.00    +0.000 HD
ENDBRANCH  15  16
ENDBRANCH  13  15
ENDBRANCH   1  13
BRANCH   4  18
ATOM     18  C   UNL     1       6.818   5.047  16.614  0.00  0.00    +0.000 C 
BRANCH  18  19
ATOM     19  C   UNL     1       6.903   4.152  15.377  0.00  0.00    +0.000 C 
ATOM     20 CL   UNL     1       7.267   5.090  13.905  0.00  0.00    +0.000 Cl
ENDBRANCH  18  19
ENDBRANCH   4  18
TORSDOF 7
ENDMDL
MODEL 8
REMARK VINA RESULT:      -6.3      3.466      4.595
REMARK  Name = 
REMARK  8 active torsions:
REMARK  status: ('A' for Active; 'I' for Inactive)
REMARK    1  A    between atoms: C_1  and  C_2
REMARK    2  A    between atoms: C_2  and  O_3
REMARK    3  A    between atoms: C_2  and  C_4
REMARK    4  A    between atoms: C_4  and  N_5
REMARK    5  A    between atoms: N_5  and  C_14
REMARK    6  A    between atoms: N_8  and  C_9
REMARK    7  A    between atoms: N_8  and  N_12
REMARK    8  A    between atoms: C_9  and  C_10
REMARK                            x       y       z     vdW  Elec       q    Type
REMARK                         _______ _______ _______ _____ _____    ______ ____
ROOT
ATOM      1  N   UNL     1       5.054   4.738  16.628  0.00  0.00    +0.000 N 
ATOM      2  C   UNL     1       5.761   3.983  15.636  0.00  0.00    +0.000 C 
ATOM      3  O   UNL     1       5.722   2.743  15.647  0.00  0.00    +0.000 OA
ATOM      4  N   UNL     1       6.341   4.654  14.550  0.00  0.00    +0.000 N 
ENDROOT
BRANCH   1   5
ATOM      5  C   UNL     1       3.975   3.969  17.361  0.00  0.00    +0.000 C 
ATOM      6  C   UNL     1       4.251   3.429  18.775  0.00  0.00    +0.000 C 
ATOM      7  C   UNL     1       4.438   4.532  19.824  0.00  0.00    +0.000 C 
ATOM      8  C   UNL     1       3.293   5.545  19.829  0.00  0.00    +0.000 C 
ATOM      9  C   UNL     1       2.803   5.949  18.440  0.00  0.00    +0.000 C 
ATOM     10  C   UNL     1       2.638   4.748  17.518  0.00  0.00    +0.000 C 
ENDBRANCH   1   5
BRANCH   4  11
ATOM     11  N   UNL     1       7.399   5.531  14.853  0.00  0.00    +0.000 NA
ATOM     12  O   UNL     1       8.196   5.649  13.914  0.00  0.00    +0.000 OA
ENDBRANCH   4  11
BRANCH   1  13
ATOM     13  C   UNL     1       5.178   6.216  16.755  0.00  0.00    +0.000 C 
BRANCH  13  15
ATOM     14  C   UNL     1       7.181   5.840  18.343  0.00  0.00    +0.000 C 
ATOM     15  C   UNL     1       6.314   6.850  17.606  0.00  0.00    +0.000 C 
BRANCH  15  16
ATOM     16  O   UNL     1       7.158   7.642  16.756  0.00  0.00    +0.000 OA
ATOM     17  H   UNL     1       7.446   8.426  17.252  0.00  0.00    +0.000 HD
ENDBRANCH  15  16
ENDBRANCH  13  15
ENDBRANCH   1  13
BRANCH   4  18
ATOM     18  C   UNL     1       6.571   3.865  13.314  0.00  0.00    +0.000 C 
BRANCH  18  19
ATOM     19  C   UNL     1       5.315   3.648  12.471  0.00  0.00    +0.000 C 
ATOM     20 CL   UNL     1       5.425   2.164  11.489  0.00  0.00    +0.000 Cl
ENDBRANCH  18  19
ENDBRANCH   4  18
TORSDOF 7
ENDMDL
MODEL 9
REMARK VINA RESULT:      -6.3      2.219      3.519
REMARK  Name = 
REMARK  8 active torsions:
REMARK  status: ('A' for Active; 'I' for Inactive)
REMARK    1  A    between atoms: C_1  and  C_2
REMARK    2  A    between atoms: C_2  and  O_3
REMARK    3  A    between atoms: C_2  and  C_4
REMARK    4  A    between atoms: C_4  and  N_5
REMARK    5  A    between atoms: N_5  and  C_14
REMARK    6  A    between atoms: N_8  and  C_9
REMARK    7  A    between atoms: N_8  and  N_12
REMARK    8  A    between atoms: C_9  and  C_10
REMARK                            x       y       z     vdW  Elec       q    Type
REMARK                         _______ _______ _______ _____ _____    ______ ____
ROOT
ATOM      1  N   UNL     1       3.880   4.558  18.928  0.00  0.00    +0.000 N 
ATOM      2  C   UNL     1       5.184   4.081  18.574  0.00  0.00    +0.000 C 
ATOM      3  O   UNL     1       5.417   2.862  18.538  0.00  0.00    +0.000 OA
ATOM      4  N   UNL     1       6.137   4.988  18.089  0.00  0.00    +0.000 N 
ENDROOT
BRANCH   1   5
ATOM      5  C   UNL     1       2.777   3.526  18.824  0.00  0.00    +0.000 C 
ATOM      6  C   UNL     1       2.849   2.245  19.675  0.00  0.00    +0.000 C 
ATOM      7  C   UNL     1       2.721   2.505  21.181  0.00  0.00    +0.000 C 
ATOM      8  C   UNL     1       1.489   3.339  21.536  0.00  0.00    +0.000 C 
ATOM      9  C   UNL     1       1.218   4.500  20.580  0.00  0.00    +0.000 C 
ATOM     10  C   UNL     1       1.357   4.086  19.120  0.00  0.00    +0.000 C 
ENDBRANCH   1   5
BRANCH   4  11
ATOM     11  N   UNL     1       6.578   5.970  18.996  0.00  0.00    +0.000 NA
ATOM     12  O   UNL     1       7.149   5.481  19.979  0.00  0.00    +0.000 OA
ENDBRANCH   4  11
BRANCH   1  13
ATOM     13  C   UNL     1       3.578   6.002  19.129  0.00  0.00    +0.000 C 
BRANCH  13  15
ATOM     14  C   UNL     1       2.282   8.099  18.358  0.00  0.00    +0.000 C 
ATOM     15  C   UNL     1       3.108   6.890  17.944  0.00  0.00    +0.000 C 
BRANCH  15  16
ATOM     16  O   UNL     1       4.255   7.351  17.212  0.00  0.00    +0.000 OA
ATOM     17  H   UNL     1       4.484   8.240  17.528  0.00  0.00    +0.000 HD
ENDBRANCH  15  16
ENDBRANCH  13  15
ENDBRANCH   1  13
BRANCH   4  18
ATOM     18  C   UNL     1       7.227   4.437  17.248  0.00  0.00    +0.000 C 
BRANCH  18  19
ATOM     19  C   UNL     1       7.117   4.801  15.767  0.00  0.00    +0.000 C 
ATOM     20 CL   UNL     1       5.664   4.088  15.018  0.00  0.00    +0.000 Cl
ENDBRANCH  18  19
ENDBRANCH   4  18
TORSDOF 7
ENDMDL
