MODEL 1
REMARK VINA RESULT:      -9.6      0.000      0.000
REMARK  Name = 
REMARK  4 active torsions:
REMARK  status: ('A' for Active; 'I' for Inactive)
REMARK    1  A    between atoms: C_1  and  C_2
REMARK    2  A    between atoms: C_2  and  C_3
REMARK    3  A    between atoms: C_2  and  C_4
REMARK    4  A    between atoms: C_9  and  C_11
REMARK                            x       y       z     vdW  Elec       q    Type
REMARK                         _______ _______ _______ _____ _____    ______ ____
ROOT
ATOM      1  C   UNL     1       3.067   5.843  18.531  0.00  0.00    +0.000 C 
ATOM      2  C   UNL     1       2.703   4.710  19.470  0.00  0.00    +0.000 A 
ATOM      3  C   UNL     1       1.385   4.537  19.931  0.00  0.00    +0.000 A 
ATOM      4  C   UNL     1       1.047   3.438  20.726  0.00  0.00    +0.000 A 
ATOM      5  C   UNL     1       2.009   2.489  21.052  0.00  0.00    +0.000 A 
ATOM      6  C   UNL     1       3.313   2.643  20.590  0.00  0.00    +0.000 A 
ATOM      7  C   UNL     1       3.658   3.749  19.807  0.00  0.00    +0.000 A 
ATOM      8  O   UNL     1       4.966   3.797  19.397  0.00  0.00    +0.000 OA
ATOM      9  C   UNL     1       5.391   4.866  18.654  0.00  0.00    +0.000 A 
ATOM     10  C   UNL     1       6.746   4.851  18.309  0.00  0.00    +0.000 A 
ATOM     11  C   UNL     1       7.285   5.872  17.537  0.00  0.00    +0.000 A 
ATOM     12  C   UNL     1       6.463   6.908  17.092  0.00  0.00    +0.000 A 
ATOM     13  C   UNL     1       5.104   6.919  17.427  0.00  0.00    +0.000 A 
ATOM     14  C   UNL     1       4.554   5.909  18.232  0.00  0.00    +0.000 A 
ENDROOT
BRANCH   1  20
ATOM     15  C   UNL     1       0.354  10.471  21.371  0.00  0.00    +0.000 A 
ATOM     16  N   UNL     1       0.933   9.931  22.423  0.00  0.00    +0.000 NA
ATOM     17  N   UNL     1       1.593   8.752  22.105  0.00  0.00    +0.000 NA
ATOM     18  C   UNL     1       1.546   8.484  20.821  0.00  0.00    +0.000 A 
ATOM     19  N   UNL     1       2.128   7.353  20.263  0.00  0.00    +0.000 N 
ATOM     20  C   UNL     1       2.416   7.185  18.925  0.00  0.00    +0.000 C 
ATOM     21  O   UNL     1       2.196   8.019  18.045  0.00  0.00    +0.000 OA
ATOM     22  S   UNL     1       0.617   9.595  19.916  0.00  0.00    +0.000 S 
ATOM     23  H   UNL     1       2.462   6.685  20.943  0.00  0.00    +0.000 HD
BRANCH  15  25
ATOM     24  C   UNL     1      -1.478  11.735  20.216  0.00  0.00    +0.000 C 
ATOM     25  C   UNL     1      -0.479  11.730  21.376  0.00  0.00    +0.000 C 
ATOM     26  C   UNL     1      -1.212  11.900  22.707  0.00  0.00    +0.000 C 
ENDBRANCH  15  25
ENDBRANCH   1  20
TORSDOF 2
ENDMDL
MODEL 2
REMARK VINA RESULT:      -9.4      1.256      3.881
REMARK  Name = 
REMARK  4 active torsions:
REMARK  status: ('A' for Active; 'I' for Inactive)
REMARK    1  A    between atoms: C_1  and  C_2
REMARK    2  A    between atoms: C_2  and  C_3
REMARK    3  A    between atoms: C_2  and  C_4
REMARK    4  A    between atoms: C_9  and  C_11
REMARK                            x       y       z     vdW  Elec       q    Type
REMARK                         _______ _______ _______ _____ _____    ______ ____
ROOT
ATOM      1  C   UNL     1       3.180   5.764  19.043  0.00  0.00    +0.000 C 
ATOM      2  C   UNL     1       4.090   5.761  17.830  0.00  0.00    +0.000 A 
ATOM      3  C   UNL     1       4.939   6.847  17.551  0.00  0.00    +0.000 A 
ATOM      4  C   UNL     1       5.835   6.793  16.479  0.00  0.00    +0.000 A 
ATOM      5  C   UNL     1       5.911   5.652  15.689  0.00  0.00    +0.000 A 
ATOM      6  C   UNL     1       5.085   4.565  15.965  0.00  0.00    +0.000 A 
ATOM      7  C   UNL     1       4.177   4.623  17.027  0.00  0.00    +0.000 A 
ATOM      8  O   UNL     1       3.420   3.495  17.216  0.00  0.00    +0.000 OA
ATOM      9  C   UNL     1       2.484   3.483  18.217  0.00  0.00    +0.000 A 
ATOM     10  C   UNL     1       1.733   2.307  18.316  0.00  0.00    +0.000 A 
ATOM     11  C   UNL     1       0.770   2.171  19.307  0.00  0.00    +0.000 A 
ATOM     12  C   UNL     1       0.564   3.210  20.216  0.00  0.00    +0.000 A 
ATOM     13  C   UNL     1       1.322   4.383  20.124  0.00  0.00    +0.000 A 
ATOM     14  C   UNL     1       2.278   4.544  19.108  0.00  0.00    +0.000 A 
ENDROOT
BRANCH   1  20
ATOM     15  C   UNL     1       0.211  10.575  21.251  0.00  0.00    +0.000 A 
ATOM     16  N   UNL     1       0.762  10.174  22.377  0.00  0.00    +0.000 NA
ATOM     17  N   UNL     1       1.470   8.991  22.216  0.00  0.00    +0.000 NA
ATOM     18  C   UNL     1       1.485   8.584  20.969  0.00  0.00    +0.000 A 
ATOM     19  N   UNL     1       2.124   7.420  20.562  0.00  0.00    +0.000 N 
ATOM     20  C   UNL     1       2.472   7.117  19.262  0.00  0.00    +0.000 C 
ATOM     21  O   UNL     1       2.263   7.842  18.288  0.00  0.00    +0.000 OA
ATOM     22  S   UNL     1       0.560   9.556  19.913  0.00  0.00    +0.000 S 
ATOM     23  H   UNL     1       2.449   6.842  21.323  0.00  0.00    +0.000 HD
BRANCH  15  25
ATOM     24  C   UNL     1      -1.567  11.666  19.859  0.00  0.00    +0.000 C 
ATOM     25  C   UNL     1      -0.661  11.797  21.086  0.00  0.00    +0.000 C 
ATOM     26  C   UNL     1      -1.499  12.049  22.340  0.00  0.00    +0.000 C 
ENDBRANCH  15  25
ENDBRANCH   1  20
TORSDOF 2
ENDMDL
MODEL 3
REMARK VINA RESULT:      -9.1      1.103      1.273
REMARK  Name = 
REMARK  4 active torsions:
REMARK  status: ('A' for Active; 'I' for Inactive)
REMARK    1  A    between atoms: C_1  and  C_2
REMARK    2  A    between atoms: C_2  and  C_3
REMARK    3  A    between atoms: C_2  and  C_4
REMARK    4  A    between atoms: C_9  and  C_11
REMARK                            x       y       z     vdW  Elec       q    Type
REMARK                         _______ _______ _______ _____ _____    ______ ____
ROOT
ATOM      1  C   UNL     1       3.466   5.979  17.702  0.00  0.00    +0.000 C 
ATOM      2  C   UNL     1       2.879   4.662  18.171  0.00  0.00    +0.000 A 
ATOM      3  C   UNL     1       1.489   4.457  18.217  0.00  0.00    +0.000 A 
ATOM      4  C   UNL     1       0.964   3.209  18.567  0.00  0.00    +0.000 A 
ATOM      5  C   UNL     1       1.815   2.149  18.854  0.00  0.00    +0.000 A 
ATOM      6  C   UNL     1       3.194   2.337  18.798  0.00  0.00    +0.000 A 
ATOM      7  C   UNL     1       3.721   3.588  18.462  0.00  0.00    +0.000 A 
ATOM      8  O   UNL     1       5.091   3.660  18.427  0.00  0.00    +0.000 OA
ATOM      9  C   UNL     1       5.686   4.859  18.137  0.00  0.00    +0.000 A 
ATOM     10  C   UNL     1       7.084   4.850  18.157  0.00  0.00    +0.000 A 
ATOM     11  C   UNL     1       7.797   6.004  17.857  0.00  0.00    +0.000 A 
ATOM     12  C   UNL     1       7.111   7.171  17.519  0.00  0.00    +0.000 A 
ATOM     13  C   UNL     1       5.712   7.178  17.489  0.00  0.00    +0.000 A 
ATOM     14  C   UNL     1       4.979   6.027  17.820  0.00  0.00    +0.000 A 
ENDROOT
BRANCH   1  20
ATOM     15  C   UNL     1       0.344   9.936  21.084  0.00  0.00    +0.000 A 
ATOM     16  N   UNL     1       0.881   9.245  22.068  0.00  0.00    +0.000 NA
ATOM     17  N   UNL     1       1.620   8.166  21.602  0.00  0.00    +0.000 NA
ATOM     18  C   UNL     1       1.669   8.123  20.292  0.00  0.00    +0.000 A 
ATOM     19  N   UNL     1       2.343   7.129  19.594  0.00  0.00    +0.000 N 
ATOM     20  C   UNL     1       2.724   7.206  18.270  0.00  0.00    +0.000 C 
ATOM     21  O   UNL     1       2.518   8.170  17.531  0.00  0.00    +0.000 OA
ATOM     22  S   UNL     1       0.744   9.336  19.524  0.00  0.00    +0.000 S 
ATOM     23  H   UNL     1       2.665   6.367  20.172  0.00  0.00    +0.000 HD
BRANCH  15  25
ATOM     24  C   UNL     1      -0.943  11.348  22.708  0.00  0.00    +0.000 C 
ATOM     25  C   UNL     1      -0.552  11.141  21.242  0.00  0.00    +0.000 C 
ATOM     26  C   UNL     1       0.117  12.400  20.689  0.00  0.00    +0.000 C 
ENDBRANCH  15  25
ENDBRANCH   1  20
TORSDOF 2
ENDMDL
MODEL 4
REMARK VINA RESULT:      -9.0      1.593      1.780
REMARK  Name = 
REMARK  4 active torsions:
REMARK  status: ('A' for Active; 'I' for Inactive)
REMARK    1  A    between atoms: C_1  and  C_2
REMARK    2  A    between atoms: C_2  and  C_3
REMARK    3  A    between atoms: C_2  and  C_4
REMARK    4  A    between atoms: C_9  and  C_11
REMARK                            x       y       z     vdW  Elec       q    Type
REMARK                         _______ _______ _______ _____ _____    ______ ____
ROOT
ATOM      1  C   UNL     1       3.950   6.031  17.568  0.00  0.00    +0.000 C 
ATOM      2  C   UNL     1       3.307   4.785  18.144  0.00  0.00    +0.000 A 
ATOM      3  C   UNL     1       1.939   4.515  17.956  0.00  0.00    +0.000 A 
ATOM      4  C   UNL     1       1.379   3.321  18.418  0.00  0.00    +0.000 A 
ATOM      5  C   UNL     1       2.175   2.374  19.051  0.00  0.00    +0.000 A 
ATOM      6  C   UNL     1       3.534   2.624  19.230  0.00  0.00    +0.000 A 
ATOM      7  C   UNL     1       4.094   3.825  18.782  0.00  0.00    +0.000 A 
ATOM      8  O   UNL     1       5.440   3.965  19.001  0.00  0.00    +0.000 OA
ATOM      9  C   UNL     1       6.058   5.127  18.621  0.00  0.00    +0.000 A 
ATOM     10  C   UNL     1       7.424   5.198  18.913  0.00  0.00    +0.000 A 
ATOM     11  C   UNL     1       8.161   6.319  18.553  0.00  0.00    +0.000 A 
ATOM     12  C   UNL     1       7.534   7.371  17.884  0.00  0.00    +0.000 A 
ATOM     13  C   UNL     1       6.170   7.296  17.582  0.00  0.00    +0.000 A 
ATOM     14  C   UNL     1       5.408   6.182  17.967  0.00  0.00    +0.000 A 
ENDROOT
BRANCH   1  20
ATOM     15  C   UNL     1       0.153  10.346  19.518  0.00  0.00    +0.000 A 
ATOM     16  N   UNL     1       0.510   9.877  20.695  0.00  0.00    +0.000 NA
ATOM     17  N   UNL     1       1.348   8.776  20.584  0.00  0.00    +0.000 NA
ATOM     18  C   UNL     1       1.646   8.500  19.337  0.00  0.00    +0.000 A 
ATOM     19  N   UNL     1       2.462   7.437  18.973  0.00  0.00    +0.000 N 
ATOM     20  C   UNL     1       3.086   7.295  17.750  0.00  0.00    +0.000 C 
ATOM     21  O   UNL     1       3.002   8.097  16.818  0.00  0.00    +0.000 OA
ATOM     22  S   UNL     1       0.856   9.499  18.199  0.00  0.00    +0.000 S 
ATOM     23  H   UNL     1       2.687   6.812  19.733  0.00  0.00    +0.000 HD
BRANCH  15  25
ATOM     24  C   UNL     1      -0.016  12.750  18.825  0.00  0.00    +0.000 C 
ATOM     25  C   UNL     1      -0.784  11.507  19.281  0.00  0.00    +0.000 C 
ATOM     26  C   UNL     1      -1.862  11.143  18.260  0.00  0.00    +0.000 C 
ENDBRANCH  15  25
ENDBRANCH   1  20
TORSDOF 2
ENDMDL
MODEL 5
REMARK VINA RESULT:      -8.8      1.849      1.883
REMARK  Name = 
REMARK  4 active torsions:
REMARK  status: ('A' for Active; 'I' for Inactive)
REMARK    1  A    between atoms: C_1  and  C_2
REMARK    2  A    between atoms: C_2  and  C_3
REMARK    3  A    between atoms: C_2  and  C_4
REMARK    4  A    between atoms: C_9  and  C_11
REMARK                            x       y       z     vdW  Elec       q    Type
REMARK                         _______ _______ _______ _____ _____    ______ ____
ROOT
ATOM      1  C   UNL     1       3.249   5.831  17.827  0.00  0.00    +0.000 C 
ATOM      2  C   UNL     1       2.830   4.409  18.145  0.00  0.00    +0.000 A 
ATOM      3  C   UNL     1       1.478   4.068  18.325  0.00  0.00    +0.000 A 
ATOM      4  C   UNL     1       1.100   2.738  18.531  0.00  0.00    +0.000 A 
ATOM      5  C   UNL     1       2.058   1.732  18.537  0.00  0.00    +0.000 A 
ATOM      6  C   UNL     1       3.399   2.056  18.345  0.00  0.00    +0.000 A 
ATOM      7  C   UNL     1       3.782   3.387  18.154  0.00  0.00    +0.000 A 
ATOM      8  O   UNL     1       5.125   3.593  17.966  0.00  0.00    +0.000 OA
ATOM      9  C   UNL     1       5.584   4.874  17.804  0.00  0.00    +0.000 A 
ATOM     10  C   UNL     1       6.969   4.994  17.653  0.00  0.00    +0.000 A 
ATOM     11  C   UNL     1       7.547   6.242  17.459  0.00  0.00    +0.000 A 
ATOM     12  C   UNL     1       6.737   7.377  17.400  0.00  0.00    +0.000 A 
ATOM     13  C   UNL     1       5.350   7.256  17.541  0.00  0.00    +0.000 A 
ATOM     14  C   UNL     1       4.756   6.004  17.768  0.00  0.00    +0.000 A 
ENDROOT
BRANCH   1  20
ATOM     15  C   UNL     1       0.277  10.701  19.897  0.00  0.00    +0.000 A 
ATOM     16  N   UNL     1      -0.132  10.761  18.648  0.00  0.00    +0.000 NA
ATOM     17  N   UNL     1       0.463   9.786  17.859  0.00  0.00    +0.000 NA
ATOM     18  C   UNL     1       1.242   8.990  18.552  0.00  0.00    +0.000 A 
ATOM     19  N   UNL     1       1.954   7.943  17.981  0.00  0.00    +0.000 N 
ATOM     20  C   UNL     1       2.500   6.882  18.672  0.00  0.00    +0.000 C 
ATOM     21  O   UNL     1       2.426   6.721  19.892  0.00  0.00    +0.000 OA
ATOM     22  S   UNL     1       1.383   9.422  20.198  0.00  0.00    +0.000 S 
ATOM     23  H   UNL     1       1.936   7.938  16.971  0.00  0.00    +0.000 HD
BRANCH  15  25
ATOM     24  C   UNL     1      -1.355  12.474  20.591  0.00  0.00    +0.000 C 
ATOM     25  C   UNL     1      -0.140  11.640  21.005  0.00  0.00    +0.000 C 
ATOM     26  C   UNL     1      -0.437  10.872  22.293  0.00  0.00    +0.000 C 
ENDBRANCH  15  25
ENDBRANCH   1  20
TORSDOF 2
ENDMDL
MODEL 6
REMARK VINA RESULT:      -8.7      1.587      4.021
REMARK  Name = 
REMARK  4 active torsions:
REMARK  status: ('A' for Active; 'I' for Inactive)
REMARK    1  A    between atoms: C_1  and  C_2
REMARK    2  A    between atoms: C_2  and  C_3
REMARK    3  A    between atoms: C_2  and  C_4
REMARK    4  A    between atoms: C_9  and  C_11
REMARK                            x       y       z     vdW  Elec       q    Type
REMARK                         _______ _______ _______ _____ _____    ______ ____
ROOT
ATOM      1  C   UNL     1       3.272   6.118  18.715  0.00  0.00    +0.000 C 
ATOM      2  C   UNL     1       4.081   5.828  17.466  0.00  0.00    +0.000 A 
ATOM      3  C   UNL     1       4.791   6.844  16.803  0.00  0.00    +0.000 A 
ATOM      4  C   UNL     1       5.602   6.546  15.704  0.00  0.00    +0.000 A 
ATOM      5  C   UNL     1       5.734   5.233  15.269  0.00  0.00    +0.000 A 
ATOM      6  C   UNL     1       5.047   4.216  15.927  0.00  0.00    +0.000 A 
ATOM      7  C   UNL     1       4.223   4.514  17.017  0.00  0.00    +0.000 A 
ATOM      8  O   UNL     1       3.601   3.437  17.597  0.00  0.00    +0.000 OA
ATOM      9  C   UNL     1       2.751   3.649  18.650  0.00  0.00    +0.000 A 
ATOM     10  C   UNL     1       2.135   2.501  19.158  0.00  0.00    +0.000 A 
ATOM     11  C   UNL     1       1.270   2.590  20.241  0.00  0.00    +0.000 A 
ATOM     12  C   UNL     1       1.029   3.830  20.832  0.00  0.00    +0.000 A 
ATOM     13  C   UNL     1       1.654   4.979  20.331  0.00  0.00    +0.000 A 
ATOM     14  C   UNL     1       2.507   4.907  19.218  0.00  0.00    +0.000 A 
ENDROOT
BRANCH   1  20
ATOM     15  C   UNL     1      -0.225  10.977  19.712  0.00  0.00    +0.000 A 
ATOM     16  N   UNL     1       0.258  10.853  20.930  0.00  0.00    +0.000 NA
ATOM     17  N   UNL     1       1.065   9.731  21.057  0.00  0.00    +0.000 NA
ATOM     18  C   UNL     1       1.214   9.093  19.920  0.00  0.00    +0.000 A 
ATOM     19  N   UNL     1       1.971   7.934  19.798  0.00  0.00    +0.000 N 
ATOM     20  C   UNL     1       2.448   7.418  18.611  0.00  0.00    +0.000 C 
ATOM     21  O   UNL     1       2.267   7.919  17.500  0.00  0.00    +0.000 OA
ATOM     22  S   UNL     1       0.311   9.754  18.631  0.00  0.00    +0.000 S 
ATOM     23  H   UNL     1       2.274   7.547  20.680  0.00  0.00    +0.000 HD
BRANCH  15  25
ATOM     24  C   UNL     1      -0.405  13.216  18.596  0.00  0.00    +0.000 C 
ATOM     25  C   UNL     1      -1.170  12.061  19.248  0.00  0.00    +0.000 C 
ATOM     26  C   UNL     1      -2.213  11.502  18.280  0.00  0.00    +0.000 C 
ENDBRANCH  15  25
ENDBRANCH   1  20
TORSDOF 2
ENDMDL
MODEL 7
REMARK VINA RESULT:      -8.7      4.020      7.416
REMARK  Name = 
REMARK  4 active torsions:
REMARK  status: ('A' for Active; 'I' for Inactive)
REMARK    1  A    between atoms: C_1  and  C_2
REMARK    2  A    between atoms: C_2  and  C_3
REMARK    3  A    between atoms: C_2  and  C_4
REMARK    4  A    between atoms: C_9  and  C_11
REMARK                            x       y       z     vdW  Elec       q    Type
REMARK                         _______ _______ _______ _____ _____    ______ ____
ROOT
ATOM      1  C   UNL     1       3.955   5.584  18.877  0.00  0.00    +0.000 C 
ATOM      2  C   UNL     1       3.405   4.514  19.800  0.00  0.00    +0.000 A 
ATOM      3  C   UNL     1       4.063   3.282  19.964  0.00  0.00    +0.000 A 
ATOM      4  C   UNL     1       3.592   2.340  20.883  0.00  0.00    +0.000 A 
ATOM      5  C   UNL     1       2.477   2.621  21.663  0.00  0.00    +0.000 A 
ATOM      6  C   UNL     1       1.826   3.844  21.519  0.00  0.00    +0.000 A 
ATOM      7  C   UNL     1       2.286   4.782  20.590  0.00  0.00    +0.000 A 
ATOM      8  O   UNL     1       1.577   5.955  20.536  0.00  0.00    +0.000 OA
ATOM      9  C   UNL     1       1.945   6.913  19.629  0.00  0.00    +0.000 A 
ATOM     10  C   UNL     1       1.147   8.061  19.619  0.00  0.00    +0.000 A 
ATOM     11  C   UNL     1       1.438   9.110  18.756  0.00  0.00    +0.000 A 
ATOM     12  C   UNL     1       2.541   9.019  17.907  0.00  0.00    +0.000 A 
ATOM     13  C   UNL     1       3.346   7.874  17.923  0.00  0.00    +0.000 A 
ATOM     14  C   UNL     1       3.046   6.795  18.769  0.00  0.00    +0.000 A 
ENDROOT
BRANCH   1  20
ATOM     15  C   UNL     1       6.854   4.493  13.658  0.00  0.00    +0.000 A 
ATOM     16  N   UNL     1       7.842   5.092  14.289  0.00  0.00    +0.000 NA
ATOM     17  N   UNL     1       7.455   5.558  15.537  0.00  0.00    +0.000 NA
ATOM     18  C   UNL     1       6.217   5.236  15.828  0.00  0.00    +0.000 A 
ATOM     19  N   UNL     1       5.601   5.599  17.019  0.00  0.00    +0.000 N 
ATOM     20  C   UNL     1       4.460   5.020  17.534  0.00  0.00    +0.000 C 
ATOM     21  O   UNL     1       3.835   4.099  17.003  0.00  0.00    +0.000 OA
ATOM     22  S   UNL     1       5.399   4.422  14.569  0.00  0.00    +0.000 S 
ATOM     23  H   UNL     1       6.135   6.252  17.575  0.00  0.00    +0.000 HD
BRANCH  15  25
ATOM     24  C   UNL     1       5.613   3.216  11.892  0.00  0.00    +0.000 C 
ATOM     25  C   UNL     1       6.925   3.910  12.266  0.00  0.00    +0.000 C 
ATOM     26  C   UNL     1       7.268   4.987  11.236  0.00  0.00    +0.000 C 
ENDBRANCH  15  25
ENDBRANCH   1  20
TORSDOF 2
ENDMDL
MODEL 8
REMARK VINA RESULT:      -8.0      3.667      7.618
REMARK  Name = 
REMARK  4 active torsions:
REMARK  status: ('A' for Active; 'I' for Inactive)
REMARK    1  A    between atoms: C_1  and  C_2
REMARK    2  A    between atoms: C_2  and  C_3
REMARK    3  A    between atoms: C_2  and  C_4
REMARK    4  A    between atoms: C_9  and  C_11
REMARK                            x       y       z     vdW  Elec       q    Type
REMARK                         _______ _______ _______ _____ _____    ______ ____
ROOT
ATOM      1  C   UNL     1       2.308   4.971  18.197  0.00  0.00    +0.000 C 
ATOM      2  C   UNL     1       2.205   6.446  18.529  0.00  0.00    +0.000 A 
ATOM      3  C   UNL     1       2.226   7.426  17.521  0.00  0.00    +0.000 A 
ATOM      4  C   UNL     1       2.043   8.776  17.835  0.00  0.00    +0.000 A 
ATOM      5  C   UNL     1       1.816   9.163  19.150  0.00  0.00    +0.000 A 
ATOM      6  C   UNL     1       1.778   8.199  20.156  0.00  0.00    +0.000 A 
ATOM      7  C   UNL     1       1.976   6.850  19.846  0.00  0.00    +0.000 A 
ATOM      8  O   UNL     1       1.910   5.986  20.909  0.00  0.00    +0.000 OA
ATOM      9  C   UNL     1       2.124   4.650  20.693  0.00  0.00    +0.000 A 
ATOM     10  C   UNL     1       2.072   3.847  21.837  0.00  0.00    +0.000 A 
ATOM     11  C   UNL     1       2.252   2.473  21.738  0.00  0.00    +0.000 A 
ATOM     12  C   UNL     1       2.471   1.894  20.487  0.00  0.00    +0.000 A 
ATOM     13  C   UNL     1       2.514   2.696  19.341  0.00  0.00    +0.000 A 
ATOM     14  C   UNL     1       2.363   4.089  19.431  0.00  0.00    +0.000 A 
ENDROOT
BRANCH   1  20
ATOM     15  C   UNL     1       7.049   5.054  14.409  0.00  0.00    +0.000 A 
ATOM     16  N   UNL     1       7.581   5.771  15.376  0.00  0.00    +0.000 NA
ATOM     17  N   UNL     1       6.678   6.013  16.401  0.00  0.00    +0.000 NA
ATOM     18  C   UNL     1       5.526   5.416  16.202  0.00  0.00    +0.000 A 
ATOM     19  N   UNL     1       4.460   5.518  17.087  0.00  0.00    +0.000 N 
ATOM     20  C   UNL     1       3.374   4.667  17.125  0.00  0.00    +0.000 C 
ATOM     21  O   UNL     1       3.208   3.701  16.378  0.00  0.00    +0.000 OA
ATOM     22  S   UNL     1       5.422   4.592  14.710  0.00  0.00    +0.000 S 
ATOM     23  H   UNL     1       4.595   6.203  17.816  0.00  0.00    +0.000 HD
BRANCH  15  25
ATOM     24  C   UNL     1       6.815   3.826  12.235  0.00  0.00    +0.000 C 
ATOM     25  C   UNL     1       7.743   4.650  13.130  0.00  0.00    +0.000 C 
ATOM     26  C   UNL     1       8.260   5.875  12.374  0.00  0.00    +0.000 C 
ENDBRANCH  15  25
ENDBRANCH   1  20
TORSDOF 2
ENDMDL
MODEL 9
REMARK VINA RESULT:      -8.0      1.741      1.990
REMARK  Name = 
REMARK  4 active torsions:
REMARK  status: ('A' for Active; 'I' for Inactive)
REMARK    1  A    between atoms: C_1  and  C_2
REMARK    2  A    between atoms: C_2  and  C_3
REMARK    3  A    between atoms: C_2  and  C_4
REMARK    4  A    between atoms: C_9  and  C_11
REMARK                            x       y       z     vdW  Elec       q    Type
REMARK                         _______ _______ _______ _____ _____    ______ ____
ROOT
ATOM      1  C   UNL     1       2.914   5.905  18.611  0.00  0.00    +0.000 C 
ATOM      2  C   UNL     1       2.594   4.717  19.497  0.00  0.00    +0.000 A 
ATOM      3  C   UNL     1       1.297   4.509  20.000  0.00  0.00    +0.000 A 
ATOM      4  C   UNL     1       0.997   3.364  20.743  0.00  0.00    +0.000 A 
ATOM      5  C   UNL     1       1.976   2.404  20.975  0.00  0.00    +0.000 A 
ATOM      6  C   UNL     1       3.260   2.593  20.469  0.00  0.00    +0.000 A 
ATOM      7  C   UNL     1       3.566   3.745  19.739  0.00  0.00    +0.000 A 
ATOM      8  O   UNL     1       4.857   3.826  19.280  0.00  0.00    +0.000 OA
ATOM      9  C   UNL     1       5.245   4.939  18.583  0.00  0.00    +0.000 A 
ATOM     10  C   UNL     1       6.586   4.953  18.183  0.00  0.00    +0.000 A 
ATOM     11  C   UNL     1       7.088   6.021  17.450  0.00  0.00    +0.000 A 
ATOM     12  C   UNL     1       6.244   7.075  17.099  0.00  0.00    +0.000 A 
ATOM     13  C   UNL     1       4.900   7.057  17.490  0.00  0.00    +0.000 A 
ATOM     14  C   UNL     1       4.387   5.998  18.257  0.00  0.00    +0.000 A 
ENDROOT
BRANCH   1  20
ATOM     15  C   UNL     1       0.134  11.273  19.154  0.00  0.00    +0.000 A 
ATOM     16  N   UNL     1      -0.478  10.866  18.062  0.00  0.00    +0.000 NA
ATOM     17  N   UNL     1       0.018   9.650  17.612  0.00  0.00    +0.000 NA
ATOM     18  C   UNL     1       0.931   9.156  18.414  0.00  0.00    +0.000 A 
ATOM     19  N   UNL     1       1.580   7.952  18.169  0.00  0.00    +0.000 N 
ATOM     20  C   UNL     1       2.274   7.218  19.109  0.00  0.00    +0.000 C 
ATOM     21  O   UNL     1       2.409   7.533  20.293  0.00  0.00    +0.000 OA
ATOM     22  S   UNL     1       1.325  10.175  19.726  0.00  0.00    +0.000 S 
ATOM     23  H   UNL     1       1.396   7.564  17.255  0.00  0.00    +0.000 HD
BRANCH  15  25
ATOM     24  C   UNL     1       1.023  12.925  20.818  0.00  0.00    +0.000 C 
ATOM     25  C   UNL     1      -0.131  12.572  19.877  0.00  0.00    +0.000 C 
ATOM     26  C   UNL     1      -0.377  13.712  18.888  0.00  0.00    +0.000 C 
ENDBRANCH  15  25
ENDBRANCH   1  20
TORSDOF 2
ENDMDL
