MODEL 1
REMARK VINA RESULT:      -7.7      0.000      0.000
REMARK  Name = 
REMARK  13 active torsions:
REMARK  status: ('A' for Active; 'I' for Inactive)
REMARK    1  A    between atoms: C_1  and  C_2
REMARK    2  A    between atoms: C_2  and  O_3
REMARK    3  A    between atoms: O_3  and  C_4
REMARK    4  A    between atoms: C_4  and  C_6
REMARK    5  A    between atoms: C_7  and  N_8
REMARK    6  A    between atoms: C_9  and  C_11
REMARK    7  A    between atoms: C_11  and  O_12
REMARK    8  A    between atoms: O_12  and  C_13
REMARK    9  A    between atoms: C_18  and  C_19
REMARK   10  A    between atoms: C_25  and  C_26
REMARK   11  A    between atoms: C_25  and  C_27
REMARK   12  A    between atoms: C_29  and  C_30
REMARK   13  A    between atoms: C_29  and  C_31
REMARK                            x       y       z     vdW  Elec       q    Type
REMARK                         _______ _______ _______ _____ _____    ______ ____
ROOT
ATOM      1  C   UNL     1       4.435   5.932  18.128  0.00  0.00    +0.000 A 
ATOM      2  C   UNL     1       3.330   6.754  17.956  0.00  0.00    +0.000 A 
ATOM      3  S   UNL     1       1.856   5.958  18.237  0.00  0.00    +0.000 S 
ATOM      4  C   UNL     1       2.650   4.621  18.942  0.00  0.00    +0.000 A 
ATOM      5  C   UNL     1       4.021   4.679  18.746  0.00  0.00    +0.000 A 
ATOM      6  C   UNL     1       4.910   3.538  19.199  0.00  0.00    +0.000 C 
ATOM      7  C   UNL     1       4.092   2.241  19.511  0.00  0.00    +0.000 C 
ATOM      8  C   UNL     1       4.908   1.301  20.428  0.00  0.00    +0.000 C 
ATOM      9  C   UNL     1       3.815   1.457  18.215  0.00  0.00    +0.000 C 
ATOM     10  N   UNL     1       2.853   2.548  20.272  0.00  0.00    +0.000 NA
ATOM     11  C   UNL     1       1.902   3.502  19.645  0.00  0.00    +0.000 C 
ATOM     12  C   UNL     1       0.944   2.761  18.698  0.00  0.00    +0.000 C 
ATOM     13  C   UNL     1       1.060   4.076  20.811  0.00  0.00    +0.000 C 
ATOM     14  H   UNL     1       3.146   2.948  21.166  0.00  0.00    +0.000 HD
ENDROOT
BRANCH   2  15
ATOM     15  N   UNL     1       3.237   8.047  17.495  0.00  0.00    +0.000 N 
ATOM     16  C   UNL     1       2.303   8.934  17.997  0.00  0.00    +0.000 C 
ATOM     17  O   UNL     1       1.924   9.876  17.296  0.00  0.00    +0.000 OA
ATOM     18  H   UNL     1       3.339   8.177  16.492  0.00  0.00    +0.000 HD
BRANCH  16  19
ATOM     19  C   UNL     1       1.775   8.739  19.420  0.00  0.00    +0.000 C 
BRANCH  19  20
ATOM     20  O   UNL     1       0.396   9.069  19.509  0.00  0.00    +0.000 OA
BRANCH  20  21
ATOM     21  C   UNL     1      -0.029   9.627  20.692  0.00  0.00    +0.000 A 
ATOM     22  C   UNL     1       0.118   9.015  21.946  0.00  0.00    +0.000 A 
ATOM     23  C   UNL     1      -0.302   9.658  23.111  0.00  0.00    +0.000 A 
ATOM     24  C   UNL     1      -0.867  10.926  23.042  0.00  0.00    +0.000 A 
ATOM     25  C   UNL     1      -1.035  11.543  21.800  0.00  0.00    +0.000 A 
ATOM     26  C   UNL     1      -0.630  10.893  20.623  0.00  0.00    +0.000 A 
BRANCH  26  27
ATOM     27  C   UNL     1      -0.898  11.548  19.368  0.00  0.00    +0.000 C 
ATOM     28  N   UNL     1      -1.141  12.143  18.402  0.00  0.00    +0.000 NA
ENDBRANCH  26  27
ENDBRANCH  20  21
ENDBRANCH  19  20
ENDBRANCH  16  19
ENDBRANCH   2  15
BRANCH   1  29
ATOM     29  C   UNL     1       5.819   6.288  17.784  0.00  0.00    +0.000 C 
ATOM     30  O   UNL     1       6.733   6.234  18.601  0.00  0.00    +0.000 OA
BRANCH  29  31
ATOM     31  O   UNL     1       5.997   6.643  16.480  0.00  0.00    +0.000 OA
BRANCH  31  33
ATOM     32  C   UNL     1       6.724   4.469  15.667  0.00  0.00    +0.000 C 
ATOM     33  C   UNL     1       5.749   5.618  15.505  0.00  0.00    +0.000 C 
ENDBRANCH  31  33
ENDBRANCH  29  31
ENDBRANCH   1  29
TORSDOF 8
ENDMDL
MODEL 2
REMARK VINA RESULT:      -7.3      0.697      1.231
REMARK  Name = 
REMARK  13 active torsions:
REMARK  status: ('A' for Active; 'I' for Inactive)
REMARK    1  A    between atoms: C_1  and  C_2
REMARK    2  A    between atoms: C_2  and  O_3
REMARK    3  A    between atoms: O_3  and  C_4
REMARK    4  A    between atoms: C_4  and  C_6
REMARK    5  A    between atoms: C_7  and  N_8
REMARK    6  A    between atoms: C_9  and  C_11
REMARK    7  A    between atoms: C_11  and  O_12
REMARK    8  A    between atoms: O_12  and  C_13
REMARK    9  A    between atoms: C_18  and  C_19
REMARK   10  A    between atoms: C_25  and  C_26
REMARK   11  A    between atoms: C_25  and  C_27
REMARK   12  A    between atoms: C_29  and  C_30
REMARK   13  A    between atoms: C_29  and  C_31
REMARK                            x       y       z     vdW  Elec       q    Type
REMARK                         _______ _______ _______ _____ _____    ______ ____
ROOT
ATOM      1  C   UNL     1       4.388   5.971  18.010  0.00  0.00    +0.000 A 
ATOM      2  C   UNL     1       3.287   6.809  17.908  0.00  0.00    +0.000 A 
ATOM      3  S   UNL     1       1.822   6.034  18.282  0.00  0.00    +0.000 S 
ATOM      4  C   UNL     1       2.639   4.685  18.936  0.00  0.00    +0.000 A 
ATOM      5  C   UNL     1       3.996   4.724  18.653  0.00  0.00    +0.000 A 
ATOM      6  C   UNL     1       4.895   3.569  19.049  0.00  0.00    +0.000 C 
ATOM      7  C   UNL     1       4.079   2.285  19.413  0.00  0.00    +0.000 C 
ATOM      8  C   UNL     1       4.937   1.332  20.277  0.00  0.00    +0.000 C 
ATOM      9  C   UNL     1       3.709   1.506  18.138  0.00  0.00    +0.000 C 
ATOM     10  N   UNL     1       2.895   2.610  20.251  0.00  0.00    +0.000 NA
ATOM     11  C   UNL     1       1.921   3.578  19.685  0.00  0.00    +0.000 C 
ATOM     12  C   UNL     1       0.894   2.852  18.800  0.00  0.00    +0.000 C 
ATOM     13  C   UNL     1       1.163   4.163  20.901  0.00  0.00    +0.000 C 
ATOM     14  H   UNL     1       3.250   3.005  21.124  0.00  0.00    +0.000 HD
ENDROOT
BRANCH   2  15
ATOM     15  N   UNL     1       3.184   8.104  17.453  0.00  0.00    +0.000 N 
ATOM     16  C   UNL     1       2.250   8.984  17.966  0.00  0.00    +0.000 C 
ATOM     17  O   UNL     1       1.861   9.927  17.271  0.00  0.00    +0.000 OA
ATOM     18  H   UNL     1       3.277   8.238  16.450  0.00  0.00    +0.000 HD
BRANCH  16  19
ATOM     19  C   UNL     1       1.733   8.780  19.392  0.00  0.00    +0.000 C 
BRANCH  19  20
ATOM     20  O   UNL     1       0.359   9.125  19.498  0.00  0.00    +0.000 OA
BRANCH  20  21
ATOM     21  C   UNL     1      -0.059   9.626  20.709  0.00  0.00    +0.000 A 
ATOM     22  C   UNL     1       0.105   8.959  21.933  0.00  0.00    +0.000 A 
ATOM     23  C   UNL     1      -0.308   9.546  23.130  0.00  0.00    +0.000 A 
ATOM     24  C   UNL     1      -0.883  10.811  23.123  0.00  0.00    +0.000 A 
ATOM     25  C   UNL     1      -1.068  11.481  21.912  0.00  0.00    +0.000 A 
ATOM     26  C   UNL     1      -0.670  10.888  20.702  0.00  0.00    +0.000 A 
BRANCH  26  27
ATOM     27  C   UNL     1      -0.956  11.598  19.481  0.00  0.00    +0.000 C 
ATOM     28  N   UNL     1      -1.266  12.146  18.507  0.00  0.00    +0.000 NA
ENDBRANCH  26  27
ENDBRANCH  20  21
ENDBRANCH  19  20
ENDBRANCH  16  19
ENDBRANCH   2  15
BRANCH   1  29
ATOM     29  C   UNL     1       5.752   6.307  17.579  0.00  0.00    +0.000 C 
ATOM     30  O   UNL     1       6.043   6.489  16.400  0.00  0.00    +0.000 OA
BRANCH  29  31
ATOM     31  O   UNL     1       6.647   6.433  18.600  0.00  0.00    +0.000 OA
BRANCH  31  33
ATOM     32  C   UNL     1       8.123   8.296  18.086  0.00  0.00    +0.000 C 
ATOM     33  C   UNL     1       7.987   6.793  18.228  0.00  0.00    +0.000 C 
ENDBRANCH  31  33
ENDBRANCH  29  31
ENDBRANCH   1  29
TORSDOF 8
ENDMDL
MODEL 3
REMARK VINA RESULT:      -7.2      0.963      1.201
REMARK  Name = 
REMARK  13 active torsions:
REMARK  status: ('A' for Active; 'I' for Inactive)
REMARK    1  A    between atoms: C_1  and  C_2
REMARK    2  A    between atoms: C_2  and  O_3
REMARK    3  A    between atoms: O_3  and  C_4
REMARK    4  A    between atoms: C_4  and  C_6
REMARK    5  A    between atoms: C_7  and  N_8
REMARK    6  A    between atoms: C_9  and  C_11
REMARK    7  A    between atoms: C_11  and  O_12
REMARK    8  A    between atoms: O_12  and  C_13
REMARK    9  A    between atoms: C_18  and  C_19
REMARK   10  A    between atoms: C_25  and  C_26
REMARK   11  A    between atoms: C_25  and  C_27
REMARK   12  A    between atoms: C_29  and  C_30
REMARK   13  A    between atoms: C_29  and  C_31
REMARK                            x       y       z     vdW  Elec       q    Type
REMARK                         _______ _______ _______ _____ _____    ______ ____
ROOT
ATOM      1  C   UNL     1       4.418   5.926  18.103  0.00  0.00    +0.000 A 
ATOM      2  C   UNL     1       3.308   6.741  17.935  0.00  0.00    +0.000 A 
ATOM      3  S   UNL     1       1.840   5.940  18.238  0.00  0.00    +0.000 S 
ATOM      4  C   UNL     1       2.648   4.613  18.946  0.00  0.00    +0.000 A 
ATOM      5  C   UNL     1       4.017   4.677  18.736  0.00  0.00    +0.000 A 
ATOM      6  C   UNL     1       4.916   3.544  19.190  0.00  0.00    +0.000 C 
ATOM      7  C   UNL     1       4.107   2.246  19.521  0.00  0.00    +0.000 C 
ATOM      8  C   UNL     1       4.937   1.318  20.438  0.00  0.00    +0.000 C 
ATOM      9  C   UNL     1       3.821   1.449  18.235  0.00  0.00    +0.000 C 
ATOM     10  N   UNL     1       2.874   2.554  20.292  0.00  0.00    +0.000 NA
ATOM     11  C   UNL     1       1.913   3.497  19.666  0.00  0.00    +0.000 C 
ATOM     12  C   UNL     1       0.949   2.744  18.734  0.00  0.00    +0.000 C 
ATOM     13  C   UNL     1       1.080   4.077  20.835  0.00  0.00    +0.000 C 
ATOM     14  H   UNL     1       3.175   2.962  21.179  0.00  0.00    +0.000 HD
ENDROOT
BRANCH   2  15
ATOM     15  N   UNL     1       3.203   8.030  17.464  0.00  0.00    +0.000 N 
ATOM     16  C   UNL     1       2.290   8.926  17.987  0.00  0.00    +0.000 C 
ATOM     17  O   UNL     1       1.891   9.861  17.289  0.00  0.00    +0.000 OA
ATOM     18  H   UNL     1       3.272   8.149  16.457  0.00  0.00    +0.000 HD
BRANCH  16  19
ATOM     19  C   UNL     1       1.809   8.747  19.429  0.00  0.00    +0.000 C 
BRANCH  19  20
ATOM     20  O   UNL     1       0.417   9.007  19.546  0.00  0.00    +0.000 OA
BRANCH  20  21
ATOM     21  C   UNL     1       0.057  10.271  19.949  0.00  0.00    +0.000 A 
ATOM     22  C   UNL     1       0.557  10.899  21.101  0.00  0.00    +0.000 A 
ATOM     23  C   UNL     1       0.178  12.201  21.430  0.00  0.00    +0.000 A 
ATOM     24  C   UNL     1      -0.699  12.900  20.608  0.00  0.00    +0.000 A 
ATOM     25  C   UNL     1      -1.217  12.284  19.466  0.00  0.00    +0.000 A 
ATOM     26  C   UNL     1      -0.853  10.967  19.140  0.00  0.00    +0.000 A 
BRANCH  26  27
ATOM     27  C   UNL     1      -1.479  10.362  17.992  0.00  0.00    +0.000 C 
ATOM     28  N   UNL     1      -1.988   9.803  17.112  0.00  0.00    +0.000 NA
ENDBRANCH  26  27
ENDBRANCH  20  21
ENDBRANCH  19  20
ENDBRANCH  16  19
ENDBRANCH   2  15
BRANCH   1  29
ATOM     29  C   UNL     1       5.797   6.286  17.742  0.00  0.00    +0.000 C 
ATOM     30  O   UNL     1       6.722   6.233  18.548  0.00  0.00    +0.000 OA
BRANCH  29  31
ATOM     31  O   UNL     1       5.958   6.643  16.437  0.00  0.00    +0.000 OA
BRANCH  31  33
ATOM     32  C   UNL     1       6.742   4.571  15.434  0.00  0.00    +0.000 C 
ATOM     33  C   UNL     1       5.660   5.632  15.461  0.00  0.00    +0.000 C 
ENDBRANCH  31  33
ENDBRANCH  29  31
ENDBRANCH   1  29
TORSDOF 8
ENDMDL
MODEL 4
REMARK VINA RESULT:      -6.9      6.465      9.610
REMARK  Name = 
REMARK  13 active torsions:
REMARK  status: ('A' for Active; 'I' for Inactive)
REMARK    1  A    between atoms: C_1  and  C_2
REMARK    2  A    between atoms: C_2  and  O_3
REMARK    3  A    between atoms: O_3  and  C_4
REMARK    4  A    between atoms: C_4  and  C_6
REMARK    5  A    between atoms: C_7  and  N_8
REMARK    6  A    between atoms: C_9  and  C_11
REMARK    7  A    between atoms: C_11  and  O_12
REMARK    8  A    between atoms: O_12  and  C_13
REMARK    9  A    between atoms: C_18  and  C_19
REMARK   10  A    between atoms: C_25  and  C_26
REMARK   11  A    between atoms: C_25  and  C_27
REMARK   12  A    between atoms: C_29  and  C_30
REMARK   13  A    between atoms: C_29  and  C_31
REMARK                            x       y       z     vdW  Elec       q    Type
REMARK                         _______ _______ _______ _____ _____    ______ ____
ROOT
ATOM      1  C   UNL     1       0.347  12.874  20.513  0.00  0.00    +0.000 A 
ATOM      2  C   UNL     1      -0.808  13.278  21.167  0.00  0.00    +0.000 A 
ATOM      3  S   UNL     1      -0.979  14.967  21.238  0.00  0.00    +0.000 S 
ATOM      4  C   UNL     1       0.271  15.196  20.098  0.00  0.00    +0.000 A 
ATOM      5  C   UNL     1       0.962  14.019  19.854  0.00  0.00    +0.000 A 
ATOM      6  C   UNL     1       2.181  14.018  18.952  0.00  0.00    +0.000 C 
ATOM      7  C   UNL     1       2.728  15.461  18.699  0.00  0.00    +0.000 C 
ATOM      8  C   UNL     1       3.600  15.487  17.423  0.00  0.00    +0.000 C 
ATOM      9  C   UNL     1       3.639  15.900  19.861  0.00  0.00    +0.000 C 
ATOM     10  N   UNL     1       1.627  16.425  18.437  0.00  0.00    +0.000 NA
ATOM     11  C   UNL     1       0.585  16.551  19.489  0.00  0.00    +0.000 C 
ATOM     12  C   UNL     1       1.014  17.577  20.551  0.00  0.00    +0.000 C 
ATOM     13  C   UNL     1      -0.665  17.113  18.769  0.00  0.00    +0.000 C 
ATOM     14  H   UNL     1       1.164  16.118  17.580  0.00  0.00    +0.000 HD
ENDROOT
BRANCH   2  15
ATOM     15  N   UNL     1      -1.755  12.548  21.848  0.00  0.00    +0.000 N 
ATOM     16  C   UNL     1      -3.093  12.589  21.505  0.00  0.00    +0.000 C 
ATOM     17  O   UNL     1      -3.946  12.333  22.359  0.00  0.00    +0.000 OA
ATOM     18  H   UNL     1      -1.654  12.511  22.859  0.00  0.00    +0.000 HD
BRANCH  16  19
ATOM     19  C   UNL     1      -3.486  12.933  20.066  0.00  0.00    +0.000 C 
BRANCH  19  20
ATOM     20  O   UNL     1      -4.188  11.861  19.451  0.00  0.00    +0.000 OA
BRANCH  20  21
ATOM     21  C   UNL     1      -3.624  11.327  18.316  0.00  0.00    +0.000 A 
ATOM     22  C   UNL     1      -2.397  10.646  18.296  0.00  0.00    +0.000 A 
ATOM     23  C   UNL     1      -1.903  10.095  17.113  0.00  0.00    +0.000 A 
ATOM     24  C   UNL     1      -2.632  10.206  15.934  0.00  0.00    +0.000 A 
ATOM     25  C   UNL     1      -3.848  10.894  15.935  0.00  0.00    +0.000 A 
ATOM     26  C   UNL     1      -4.341  11.467  17.119  0.00  0.00    +0.000 A 
BRANCH  26  27
ATOM     27  C   UNL     1      -5.563  12.227  17.039  0.00  0.00    +0.000 C 
ATOM     28  N   UNL     1      -6.561  12.817  17.055  0.00  0.00    +0.000 NA
ENDBRANCH  26  27
ENDBRANCH  20  21
ENDBRANCH  19  20
ENDBRANCH  16  19
ENDBRANCH   2  15
BRANCH   1  29
ATOM     29  C   UNL     1       0.850  11.494  20.453  0.00  0.00    +0.000 C 
ATOM     30  O   UNL     1       1.004  10.896  19.392  0.00  0.00    +0.000 OA
BRANCH  29  31
ATOM     31  O   UNL     1       1.163  10.960  21.668  0.00  0.00    +0.000 OA
BRANCH  31  33
ATOM     32  C   UNL     1      -0.131   9.574  23.191  0.00  0.00    +0.000 C 
ATOM     33  C   UNL     1       0.685   9.628  21.915  0.00  0.00    +0.000 C 
ENDBRANCH  31  33
ENDBRANCH  29  31
ENDBRANCH   1  29
TORSDOF 8
ENDMDL
MODEL 5
REMARK VINA RESULT:      -6.8      7.738     10.461
REMARK  Name = 
REMARK  13 active torsions:
REMARK  status: ('A' for Active; 'I' for Inactive)
REMARK    1  A    between atoms: C_1  and  C_2
REMARK    2  A    between atoms: C_2  and  O_3
REMARK    3  A    between atoms: O_3  and  C_4
REMARK    4  A    between atoms: C_4  and  C_6
REMARK    5  A    between atoms: C_7  and  N_8
REMARK    6  A    between atoms: C_9  and  C_11
REMARK    7  A    between atoms: C_11  and  O_12
REMARK    8  A    between atoms: O_12  and  C_13
REMARK    9  A    between atoms: C_18  and  C_19
REMARK   10  A    between atoms: C_25  and  C_26
REMARK   11  A    between atoms: C_25  and  C_27
REMARK   12  A    between atoms: C_29  and  C_30
REMARK   13  A    between atoms: C_29  and  C_31
REMARK                            x       y       z     vdW  Elec       q    Type
REMARK                         _______ _______ _______ _____ _____    ______ ____
ROOT
ATOM      1  C   UNL     1      -4.731  12.464  20.079  0.00  0.00    +0.000 A 
ATOM      2  C   UNL     1      -3.965  12.917  21.143  0.00  0.00    +0.000 A 
ATOM      3  S   UNL     1      -2.305  12.609  20.951  0.00  0.00    +0.000 S 
ATOM      4  C   UNL     1      -2.516  12.200  19.307  0.00  0.00    +0.000 A 
ATOM      5  C   UNL     1      -3.857  12.071  18.981  0.00  0.00    +0.000 A 
ATOM      6  C   UNL     1      -4.269  11.609  17.597  0.00  0.00    +0.000 C 
ATOM      7  C   UNL     1      -3.077  10.970  16.810  0.00  0.00    +0.000 C 
ATOM      8  C   UNL     1      -3.368  10.986  15.292  0.00  0.00    +0.000 C 
ATOM      9  C   UNL     1      -2.903   9.493  17.207  0.00  0.00    +0.000 C 
ATOM     10  N   UNL     1      -1.829  11.760  16.975  0.00  0.00    +0.000 NA
ATOM     11  C   UNL     1      -1.349  11.968  18.365  0.00  0.00    +0.000 C 
ATOM     12  C   UNL     1      -0.470  10.788  18.813  0.00  0.00    +0.000 C 
ATOM     13  C   UNL     1      -0.451  13.228  18.310  0.00  0.00    +0.000 C 
ATOM     14  H   UNL     1      -2.006  12.681  16.569  0.00  0.00    +0.000 HD
ENDROOT
BRANCH   2  15
ATOM     15  N   UNL     1      -4.340  13.462  22.351  0.00  0.00    +0.000 N 
ATOM     16  C   UNL     1      -4.111  14.791  22.653  0.00  0.00    +0.000 C 
ATOM     17  O   UNL     1      -4.014  15.136  23.834  0.00  0.00    +0.000 OA
ATOM     18  H   UNL     1      -4.186  12.885  23.173  0.00  0.00    +0.000 HD
BRANCH  16  19
ATOM     19  C   UNL     1      -4.002  15.810  21.516  0.00  0.00    +0.000 C 
BRANCH  19  20
ATOM     20  O   UNL     1      -2.948  16.734  21.748  0.00  0.00    +0.000 OA
BRANCH  20  21
ATOM     21  C   UNL     1      -1.932  16.757  20.821  0.00  0.00    +0.000 A 
ATOM     22  C   UNL     1      -2.066  17.275  19.523  0.00  0.00    +0.000 A 
ATOM     23  C   UNL     1      -0.980  17.301  18.647  0.00  0.00    +0.000 A 
ATOM     24  C   UNL     1       0.258  16.820  19.057  0.00  0.00    +0.000 A 
ATOM     25  C   UNL     1       0.403  16.287  20.340  0.00  0.00    +0.000 A 
ATOM     26  C   UNL     1      -0.690  16.241  21.220  0.00  0.00    +0.000 A 
BRANCH  26  27
ATOM     27  C   UNL     1      -0.495  15.612  22.501  0.00  0.00    +0.000 C 
ATOM     28  N   UNL     1      -0.282  15.166  23.551  0.00  0.00    +0.000 NA
ENDBRANCH  26  27
ENDBRANCH  20  21
ENDBRANCH  19  20
ENDBRANCH  16  19
ENDBRANCH   2  15
BRANCH   1  29
ATOM     29  C   UNL     1      -6.199  12.428  20.045  0.00  0.00    +0.000 C 
ATOM     30  O   UNL     1      -6.887  13.390  20.375  0.00  0.00    +0.000 OA
BRANCH  29  31
ATOM     31  O   UNL     1      -6.720  11.256  19.583  0.00  0.00    +0.000 OA
BRANCH  31  33
ATOM     32  C   UNL     1      -7.389   9.017  20.258  0.00  0.00    +0.000 C 
ATOM     33  C   UNL     1      -7.515  10.505  20.515  0.00  0.00    +0.000 C 
ENDBRANCH  31  33
ENDBRANCH  29  31
ENDBRANCH   1  29
TORSDOF 8
ENDMDL
MODEL 6
REMARK VINA RESULT:      -6.8      5.852      9.583
REMARK  Name = 
REMARK  13 active torsions:
REMARK  status: ('A' for Active; 'I' for Inactive)
REMARK    1  A    between atoms: C_1  and  C_2
REMARK    2  A    between atoms: C_2  and  O_3
REMARK    3  A    between atoms: O_3  and  C_4
REMARK    4  A    between atoms: C_4  and  C_6
REMARK    5  A    between atoms: C_7  and  N_8
REMARK    6  A    between atoms: C_9  and  C_11
REMARK    7  A    between atoms: C_11  and  O_12
REMARK    8  A    between atoms: O_12  and  C_13
REMARK    9  A    between atoms: C_18  and  C_19
REMARK   10  A    between atoms: C_25  and  C_26
REMARK   11  A    between atoms: C_25  and  C_27
REMARK   12  A    between atoms: C_29  and  C_30
REMARK   13  A    between atoms: C_29  and  C_31
REMARK                            x       y       z     vdW  Elec       q    Type
REMARK                         _______ _______ _______ _____ _____    ______ ____
ROOT
ATOM      1  C   UNL     1       0.243  13.121  20.511  0.00  0.00    +0.000 A 
ATOM      2  C   UNL     1      -0.931  13.518  21.136  0.00  0.00    +0.000 A 
ATOM      3  S   UNL     1      -1.145  15.203  21.146  0.00  0.00    +0.000 S 
ATOM      4  C   UNL     1       0.113  15.424  20.014  0.00  0.00    +0.000 A 
ATOM      5  C   UNL     1       0.837  14.258  19.820  0.00  0.00    +0.000 A 
ATOM      6  C   UNL     1       2.067  14.256  18.934  0.00  0.00    +0.000 C 
ATOM      7  C   UNL     1       2.581  15.704  18.637  0.00  0.00    +0.000 C 
ATOM      8  C   UNL     1       3.469  15.708  17.371  0.00  0.00    +0.000 C 
ATOM      9  C   UNL     1       3.465  16.207  19.793  0.00  0.00    +0.000 C 
ATOM     10  N   UNL     1       1.459  16.629  18.327  0.00  0.00    +0.000 NA
ATOM     11  C   UNL     1       0.401  16.764  19.361  0.00  0.00    +0.000 C 
ATOM     12  C   UNL     1       0.789  17.839  20.391  0.00  0.00    +0.000 C 
ATOM     13  C   UNL     1      -0.854  17.269  18.606  0.00  0.00    +0.000 C 
ATOM     14  H   UNL     1       1.015  16.280  17.475  0.00  0.00    +0.000 HD
ENDROOT
BRANCH   2  15
ATOM     15  N   UNL     1      -1.868  12.788  21.832  0.00  0.00    +0.000 N 
ATOM     16  C   UNL     1      -3.175  12.679  21.397  0.00  0.00    +0.000 C 
ATOM     17  O   UNL     1      -4.068  12.445  22.216  0.00  0.00    +0.000 OA
ATOM     18  H   UNL     1      -1.841  12.869  22.845  0.00  0.00    +0.000 HD
BRANCH  16  19
ATOM     19  C   UNL     1      -3.484  12.831  19.906  0.00  0.00    +0.000 C 
BRANCH  19  20
ATOM     20  O   UNL     1      -4.119  11.671  19.388  0.00  0.00    +0.000 OA
BRANCH  20  21
ATOM     21  C   UNL     1      -3.623  11.171  18.207  0.00  0.00    +0.000 A 
ATOM     22  C   UNL     1      -2.434  10.431  18.107  0.00  0.00    +0.000 A 
ATOM     23  C   UNL     1      -2.010   9.920  16.879  0.00  0.00    +0.000 A 
ATOM     24  C   UNL     1      -2.771  10.133  15.735  0.00  0.00    +0.000 A 
ATOM     25  C   UNL     1      -3.947  10.882  15.816  0.00  0.00    +0.000 A 
ATOM     26  C   UNL     1      -4.370  11.413  17.045  0.00  0.00    +0.000 A 
BRANCH  26  27
ATOM     27  C   UNL     1      -5.552  12.238  17.049  0.00  0.00    +0.000 C 
ATOM     28  N   UNL     1      -6.481  12.928  16.976  0.00  0.00    +0.000 NA
ENDBRANCH  26  27
ENDBRANCH  20  21
ENDBRANCH  19  20
ENDBRANCH  16  19
ENDBRANCH   2  15
BRANCH   1  29
ATOM     29  C   UNL     1       0.781  11.754  20.507  0.00  0.00    +0.000 C 
ATOM     30  O   UNL     1       1.102  11.171  21.539  0.00  0.00    +0.000 OA
BRANCH  29  31
ATOM     31  O   UNL     1       0.856  11.186  19.270  0.00  0.00    +0.000 OA
BRANCH  31  33
ATOM     32  C   UNL     1       1.556   9.336  17.854  0.00  0.00    +0.000 C 
ATOM     33  C   UNL     1       1.114   9.773  19.237  0.00  0.00    +0.000 C 
ENDBRANCH  31  33
ENDBRANCH  29  31
ENDBRANCH   1  29
TORSDOF 8
ENDMDL
MODEL 7
REMARK VINA RESULT:      -6.8      7.667     10.639
REMARK  Name = 
REMARK  13 active torsions:
REMARK  status: ('A' for Active; 'I' for Inactive)
REMARK    1  A    between atoms: C_1  and  C_2
REMARK    2  A    between atoms: C_2  and  O_3
REMARK    3  A    between atoms: O_3  and  C_4
REMARK    4  A    between atoms: C_4  and  C_6
REMARK    5  A    between atoms: C_7  and  N_8
REMARK    6  A    between atoms: C_9  and  C_11
REMARK    7  A    between atoms: C_11  and  O_12
REMARK    8  A    between atoms: O_12  and  C_13
REMARK    9  A    between atoms: C_18  and  C_19
REMARK   10  A    between atoms: C_25  and  C_26
REMARK   11  A    between atoms: C_25  and  C_27
REMARK   12  A    between atoms: C_29  and  C_30
REMARK   13  A    between atoms: C_29  and  C_31
REMARK                            x       y       z     vdW  Elec       q    Type
REMARK                         _______ _______ _______ _____ _____    ______ ____
ROOT
ATOM      1  C   UNL     1      -4.468  12.603  20.504  0.00  0.00    +0.000 A 
ATOM      2  C   UNL     1      -3.574  13.038  21.472  0.00  0.00    +0.000 A 
ATOM      3  S   UNL     1      -1.956  12.689  21.092  0.00  0.00    +0.000 S 
ATOM      4  C   UNL     1      -2.364  12.286  19.484  0.00  0.00    +0.000 A 
ATOM      5  C   UNL     1      -3.736  12.190  19.314  0.00  0.00    +0.000 A 
ATOM      6  C   UNL     1      -4.315  11.739  17.987  0.00  0.00    +0.000 C 
ATOM      7  C   UNL     1      -3.237  11.072  17.070  0.00  0.00    +0.000 C 
ATOM      8  C   UNL     1      -3.700  11.095  15.595  0.00  0.00    +0.000 C 
ATOM      9  C   UNL     1      -3.055   9.590  17.448  0.00  0.00    +0.000 C 
ATOM     10  N   UNL     1      -1.959  11.831  17.089  0.00  0.00    +0.000 NA
ATOM     11  C   UNL     1      -1.318  12.026  18.415  0.00  0.00    +0.000 C 
ATOM     12  C   UNL     1      -0.423  10.824  18.762  0.00  0.00    +0.000 C 
ATOM     13  C   UNL     1      -0.402  13.264  18.254  0.00  0.00    +0.000 C 
ATOM     14  H   UNL     1      -2.159  12.756  16.704  0.00  0.00    +0.000 HD
ENDROOT
BRANCH   2  15
ATOM     15  N   UNL     1      -3.795  13.591  22.713  0.00  0.00    +0.000 N 
ATOM     16  C   UNL     1      -3.312  14.842  23.050  0.00  0.00    +0.000 C 
ATOM     17  O   UNL     1      -3.107  15.112  24.236  0.00  0.00    +0.000 OA
ATOM     18  H   UNL     1      -3.720  12.962  23.507  0.00  0.00    +0.000 HD
BRANCH  16  19
ATOM     19  C   UNL     1      -3.059  15.869  21.944  0.00  0.00    +0.000 C 
BRANCH  19  20
ATOM     20  O   UNL     1      -1.707  16.306  21.944  0.00  0.00    +0.000 OA
BRANCH  20  21
ATOM     21  C   UNL     1      -1.147  16.576  20.717  0.00  0.00    +0.000 A 
ATOM     22  C   UNL     1      -1.818  17.240  19.677  0.00  0.00    +0.000 A 
ATOM     23  C   UNL     1      -1.174  17.515  18.470  0.00  0.00    +0.000 A 
ATOM     24  C   UNL     1       0.152  17.140  18.286  0.00  0.00    +0.000 A 
ATOM     25  C   UNL     1       0.828  16.465  19.305  0.00  0.00    +0.000 A 
ATOM     26  C   UNL     1       0.180  16.169  20.516  0.00  0.00    +0.000 A 
BRANCH  26  27
ATOM     27  C   UNL     1       0.907  15.405  21.498  0.00  0.00    +0.000 C 
ATOM     28  N   UNL     1       1.487  14.725  22.236  0.00  0.00    +0.000 NA
ENDBRANCH  26  27
ENDBRANCH  20  21
ENDBRANCH  19  20
ENDBRANCH  16  19
ENDBRANCH   2  15
BRANCH   1  29
ATOM     29  C   UNL     1      -5.931  12.604  20.639  0.00  0.00    +0.000 C 
ATOM     30  O   UNL     1      -6.664  13.183  19.841  0.00  0.00    +0.000 OA
BRANCH  29  31
ATOM     31  O   UNL     1      -6.396  11.879  21.696  0.00  0.00    +0.000 OA
BRANCH  31  33
ATOM     32  C   UNL     1      -7.088  12.606  23.911  0.00  0.00    +0.000 C 
ATOM     33  C   UNL     1      -7.465  12.473  22.449  0.00  0.00    +0.000 C 
ENDBRANCH  31  33
ENDBRANCH  29  31
ENDBRANCH   1  29
TORSDOF 8
ENDMDL
MODEL 8
REMARK VINA RESULT:      -6.8      2.692      5.151
REMARK  Name = 
REMARK  13 active torsions:
REMARK  status: ('A' for Active; 'I' for Inactive)
REMARK    1  A    between atoms: C_1  and  C_2
REMARK    2  A    between atoms: C_2  and  O_3
REMARK    3  A    between atoms: O_3  and  C_4
REMARK    4  A    between atoms: C_4  and  C_6
REMARK    5  A    between atoms: C_7  and  N_8
REMARK    6  A    between atoms: C_9  and  C_11
REMARK    7  A    between atoms: C_11  and  O_12
REMARK    8  A    between atoms: O_12  and  C_13
REMARK    9  A    between atoms: C_18  and  C_19
REMARK   10  A    between atoms: C_25  and  C_26
REMARK   11  A    between atoms: C_25  and  C_27
REMARK   12  A    between atoms: C_29  and  C_30
REMARK   13  A    between atoms: C_29  and  C_31
REMARK                            x       y       z     vdW  Elec       q    Type
REMARK                         _______ _______ _______ _____ _____    ______ ____
ROOT
ATOM      1  C   UNL     1       3.985   3.294  18.197  0.00  0.00    +0.000 A 
ATOM      2  C   UNL     1       4.004   3.941  19.424  0.00  0.00    +0.000 A 
ATOM      3  S   UNL     1       5.036   5.290  19.452  0.00  0.00    +0.000 S 
ATOM      4  C   UNL     1       5.200   5.268  17.753  0.00  0.00    +0.000 A 
ATOM      5  C   UNL     1       4.671   4.109  17.204  0.00  0.00    +0.000 A 
ATOM      6  C   UNL     1       4.804   3.834  15.719  0.00  0.00    +0.000 C 
ATOM      7  C   UNL     1       5.875   4.753  15.043  0.00  0.00    +0.000 C 
ATOM      8  C   UNL     1       5.634   4.823  13.517  0.00  0.00    +0.000 C 
ATOM      9  C   UNL     1       7.285   4.166  15.237  0.00  0.00    +0.000 C 
ATOM     10  N   UNL     1       5.767   6.157  15.518  0.00  0.00    +0.000 NA
ATOM     11  C   UNL     1       5.891   6.378  16.982  0.00  0.00    +0.000 C 
ATOM     12  C   UNL     1       7.369   6.526  17.381  0.00  0.00    +0.000 C 
ATOM     13  C   UNL     1       5.191   7.732  17.258  0.00  0.00    +0.000 C 
ATOM     14  H   UNL     1       4.847   6.496  15.232  0.00  0.00    +0.000 HD
ENDROOT
BRANCH   2  15
ATOM     15  N   UNL     1       3.421   3.605  20.625  0.00  0.00    +0.000 N 
ATOM     16  C   UNL     1       2.523   4.442  21.260  0.00  0.00    +0.000 C 
ATOM     17  O   UNL     1       2.384   4.365  22.483  0.00  0.00    +0.000 OA
ATOM     18  H   UNL     1       4.025   3.156  21.309  0.00  0.00    +0.000 HD
BRANCH  16  19
ATOM     19  C   UNL     1       1.709   5.435  20.427  0.00  0.00    +0.000 C 
BRANCH  19  20
ATOM     20  O   UNL     1       1.770   6.744  20.976  0.00  0.00    +0.000 OA
BRANCH  20  21
ATOM     21  C   UNL     1       1.665   7.789  20.090  0.00  0.00    +0.000 A 
ATOM     22  C   UNL     1       1.961   7.690  18.721  0.00  0.00    +0.000 A 
ATOM     23  C   UNL     1       1.794   8.785  17.871  0.00  0.00    +0.000 A 
ATOM     24  C   UNL     1       1.319   9.991  18.372  0.00  0.00    +0.000 A 
ATOM     25  C   UNL     1       1.034  10.110  19.735  0.00  0.00    +0.000 A 
ATOM     26  C   UNL     1       1.217   9.017  20.598  0.00  0.00    +0.000 A 
BRANCH  26  27
ATOM     27  C   UNL     1       0.978   9.225  22.004  0.00  0.00    +0.000 C 
ATOM     28  N   UNL     1       0.733   9.455  23.114  0.00  0.00    +0.000 NA
ENDBRANCH  26  27
ENDBRANCH  20  21
ENDBRANCH  19  20
ENDBRANCH  16  19
ENDBRANCH   2  15
BRANCH   1  29
ATOM     29  C   UNL     1       3.332   2.005  17.928  0.00  0.00    +0.000 C 
ATOM     30  O   UNL     1       3.816   0.936  18.287  0.00  0.00    +0.000 OA
BRANCH  29  31
ATOM     31  O   UNL     1       2.135   2.109  17.283  0.00  0.00    +0.000 OA
BRANCH  31  33
ATOM     32  C   UNL     1       0.552   2.175  19.129  0.00  0.00    +0.000 C 
ATOM     33  C   UNL     1       1.132   2.905  17.934  0.00  0.00    +0.000 C 
ENDBRANCH  31  33
ENDBRANCH  29  31
ENDBRANCH   1  29
TORSDOF 8
ENDMDL
MODEL 9
REMARK VINA RESULT:      -6.7      1.435      1.710
REMARK  Name = 
REMARK  13 active torsions:
REMARK  status: ('A' for Active; 'I' for Inactive)
REMARK    1  A    between atoms: C_1  and  C_2
REMARK    2  A    between atoms: C_2  and  O_3
REMARK    3  A    between atoms: O_3  and  C_4
REMARK    4  A    between atoms: C_4  and  C_6
REMARK    5  A    between atoms: C_7  and  N_8
REMARK    6  A    between atoms: C_9  and  C_11
REMARK    7  A    between atoms: C_11  and  O_12
REMARK    8  A    between atoms: O_12  and  C_13
REMARK    9  A    between atoms: C_18  and  C_19
REMARK   10  A    between atoms: C_25  and  C_26
REMARK   11  A    between atoms: C_25  and  C_27
REMARK   12  A    between atoms: C_29  and  C_30
REMARK   13  A    between atoms: C_29  and  C_31
REMARK                            x       y       z     vdW  Elec       q    Type
REMARK                         _______ _______ _______ _____ _____    ______ ____
ROOT
ATOM      1  C   UNL     1       4.471   5.920  18.162  0.00  0.00    +0.000 A 
ATOM      2  C   UNL     1       3.385   6.766  17.994  0.00  0.00    +0.000 A 
ATOM      3  S   UNL     1       1.892   5.996  18.251  0.00  0.00    +0.000 S 
ATOM      4  C   UNL     1       2.653   4.633  18.941  0.00  0.00    +0.000 A 
ATOM      5  C   UNL     1       4.027   4.666  18.757  0.00  0.00    +0.000 A 
ATOM      6  C   UNL     1       4.889   3.500  19.199  0.00  0.00    +0.000 C 
ATOM      7  C   UNL     1       4.042   2.216  19.484  0.00  0.00    +0.000 C 
ATOM      8  C   UNL     1       4.832   1.245  20.392  0.00  0.00    +0.000 C 
ATOM      9  C   UNL     1       3.760   1.458  18.174  0.00  0.00    +0.000 C 
ATOM     10  N   UNL     1       2.804   2.536  20.241  0.00  0.00    +0.000 NA
ATOM     11  C   UNL     1       1.878   3.519  19.621  0.00  0.00    +0.000 C 
ATOM     12  C   UNL     1       0.912   2.812  18.654  0.00  0.00    +0.000 C 
ATOM     13  C   UNL     1       1.038   4.091  20.789  0.00  0.00    +0.000 C 
ATOM     14  H   UNL     1       3.098   2.916  21.143  0.00  0.00    +0.000 HD
ENDROOT
BRANCH   2  15
ATOM     15  N   UNL     1       3.321   8.069  17.553  0.00  0.00    +0.000 N 
ATOM     16  C   UNL     1       2.306   8.922  17.943  0.00  0.00    +0.000 C 
ATOM     17  O   UNL     1       2.001   9.872  17.217  0.00  0.00    +0.000 OA
ATOM     18  H   UNL     1       3.554   8.225  16.576  0.00  0.00    +0.000 HD
BRANCH  16  19
ATOM     19  C   UNL     1       1.596   8.680  19.277  0.00  0.00    +0.000 C 
BRANCH  19  20
ATOM     20  O   UNL     1       1.369   9.899  19.971  0.00  0.00    +0.000 OA
BRANCH  20  21
ATOM     21  C   UNL     1       0.220  10.583  19.655  0.00  0.00    +0.000 A 
ATOM     22  C   UNL     1      -0.885  10.005  19.008  0.00  0.00    +0.000 A 
ATOM     23  C   UNL     1      -2.036  10.751  18.753  0.00  0.00    +0.000 A 
ATOM     24  C   UNL     1      -2.107  12.082  19.148  0.00  0.00    +0.000 A 
ATOM     25  C   UNL     1      -1.010  12.676  19.779  0.00  0.00    +0.000 A 
ATOM     26  C   UNL     1       0.158  11.935  20.022  0.00  0.00    +0.000 A 
BRANCH  26  27
ATOM     27  C   UNL     1       1.280  12.624  20.608  0.00  0.00    +0.000 C 
ATOM     28  N   UNL     1       2.186  13.118  21.137  0.00  0.00    +0.000 NA
ENDBRANCH  26  27
ENDBRANCH  20  21
ENDBRANCH  19  20
ENDBRANCH  16  19
ENDBRANCH   2  15
BRANCH   1  29
ATOM     29  C   UNL     1       5.865   6.253  17.834  0.00  0.00    +0.000 C 
ATOM     30  O   UNL     1       6.766   6.200  18.667  0.00  0.00    +0.000 OA
BRANCH  29  31
ATOM     31  O   UNL     1       6.068   6.586  16.528  0.00  0.00    +0.000 OA
BRANCH  31  33
ATOM     32  C   UNL     1       6.982   4.772  15.191  0.00  0.00    +0.000 C 
ATOM     33  C   UNL     1       5.750   5.574  15.560  0.00  0.00    +0.000 C 
ENDBRANCH  31  33
ENDBRANCH  29  31
ENDBRANCH   1  29
TORSDOF 8
ENDMDL
