MODEL 1
REMARK VINA RESULT:      -7.8      0.000      0.000
REMARK  Name = 
REMARK  5 active torsions:
REMARK  status: ('A' for Active; 'I' for Inactive)
REMARK    1  A    between atoms: N_1  and  S_2
REMARK    2  A    between atoms: S_2  and  C_5
REMARK    3  A    between atoms: C_8  and  N_9
REMARK    4  A    between atoms: C_11  and  C_12
REMARK    5  A    between atoms: C_24  and  S_25
REMARK                            x       y       z     vdW  Elec       q    Type
REMARK                         _______ _______ _______ _____ _____    ______ ____
ROOT
ATOM      1  N   UNL     1       2.517   7.438  18.642  0.00  0.00    +0.000 N 
ATOM      2  C   UNL     1       3.432   7.297  17.604  0.00  0.00    +0.000 A 
ATOM      3  C   UNL     1       4.130   6.107  17.732  0.00  0.00    +0.000 A 
ATOM      4  C   UNL     1       3.573   5.486  18.859  0.00  0.00    +0.000 A 
ATOM      5  C   UNL     1       2.606   6.297  19.438  0.00  0.00    +0.000 A 
ATOM      6  N   UNL     1       1.810   6.008  20.528  0.00  0.00    +0.000 NA
ATOM      7  C   UNL     1       2.002   4.834  21.081  0.00  0.00    +0.000 A 
ATOM      8  N   UNL     1       2.957   3.935  20.602  0.00  0.00    +0.000 N 
ATOM      9  N   UNL     1       3.193   2.706  21.103  0.00  0.00    +0.000 NA
ATOM     10  C   UNL     1       4.165   2.292  20.275  0.00  0.00    +0.000 A 
ATOM     11  N   UNL     1       4.545   3.175  19.300  0.00  0.00    +0.000 NA
ATOM     12  C   UNL     1       3.761   4.196  19.533  0.00  0.00    +0.000 A 
ENDROOT
BRANCH   1  16
ATOM     13  C   UNL     1      -0.021  10.768  19.164  0.00  0.00    +0.000 A 
ATOM     14  C   UNL     1       0.508  10.123  20.284  0.00  0.00    +0.000 A 
ATOM     15  C   UNL     1       1.334   9.008  20.110  0.00  0.00    +0.000 A 
ATOM     16  C   UNL     1       1.649   8.556  18.818  0.00  0.00    +0.000 A 
ATOM     17  C   UNL     1       1.107   9.211  17.704  0.00  0.00    +0.000 A 
ATOM     18  C   UNL     1       0.261  10.308  17.876  0.00  0.00    +0.000 A 
BRANCH  13  19
ATOM     19  S   UNL     1      -1.024  12.207  19.379  0.00  0.00    +0.000 S 
ATOM     20  O   UNL     1      -0.284  13.190  20.126  0.00  0.00    +0.000 OA
ATOM     21  O   UNL     1      -2.370  11.805  19.734  0.00  0.00    +0.000 OA
BRANCH  19  22
ATOM     22  N   UNL     1      -1.144  12.780  17.803  0.00  0.00    +0.000 NA
ATOM     23  H   UNL     1      -0.579  13.625  17.711  0.00  0.00    +0.000 HD
ATOM     24  H   UNL     1      -2.119  12.905  17.546  0.00  0.00    +0.000 HD
ENDBRANCH  19  22
ENDBRANCH  13  19
ENDBRANCH   1  16
BRANCH   3  25
ATOM     25  C   UNL     1       5.161   5.673  16.800  0.00  0.00    +0.000 A 
ATOM     26  C   UNL     1       6.488   6.105  16.939  0.00  0.00    +0.000 A 
ATOM     27  C   UNL     1       7.467   5.699  16.026  0.00  0.00    +0.000 A 
ATOM     28  C   UNL     1       7.136   4.846  14.978  0.00  0.00    +0.000 A 
ATOM     29  C   UNL     1       5.827   4.394  14.840  0.00  0.00    +0.000 A 
ATOM     30  C   UNL     1       4.847   4.814  15.740  0.00  0.00    +0.000 A 
ENDBRANCH   3  25
BRANCH  10  31
ATOM     31  S   UNL     1       4.882   0.717  20.426  0.00  0.00    +0.000 S 
ATOM     32  H   UNL     1       4.366   0.212  19.302  0.00  0.00    +0.000 HD
ENDBRANCH  10  31
TORSDOF 5
ENDMDL
MODEL 2
REMARK VINA RESULT:      -7.7      0.436      1.342
REMARK  Name = 
REMARK  5 active torsions:
REMARK  status: ('A' for Active; 'I' for Inactive)
REMARK    1  A    between atoms: N_1  and  S_2
REMARK    2  A    between atoms: S_2  and  C_5
REMARK    3  A    between atoms: C_8  and  N_9
REMARK    4  A    between atoms: C_11  and  C_12
REMARK    5  A    between atoms: C_24  and  S_25
REMARK                            x       y       z     vdW  Elec       q    Type
REMARK                         _______ _______ _______ _____ _____    ______ ____
ROOT
ATOM      1  N   UNL     1       2.378   7.532  18.779  0.00  0.00    +0.000 N 
ATOM      2  C   UNL     1       3.305   7.450  17.745  0.00  0.00    +0.000 A 
ATOM      3  C   UNL     1       4.029   6.271  17.837  0.00  0.00    +0.000 A 
ATOM      4  C   UNL     1       3.475   5.597  18.934  0.00  0.00    +0.000 A 
ATOM      5  C   UNL     1       2.485   6.364  19.532  0.00  0.00    +0.000 A 
ATOM      6  N   UNL     1       1.686   6.018  20.603  0.00  0.00    +0.000 NA
ATOM      7  C   UNL     1       1.899   4.829  21.114  0.00  0.00    +0.000 A 
ATOM      8  N   UNL     1       2.878   3.970  20.613  0.00  0.00    +0.000 N 
ATOM      9  N   UNL     1       3.137   2.729  21.071  0.00  0.00    +0.000 NA
ATOM     10  C   UNL     1       4.125   2.366  20.238  0.00  0.00    +0.000 A 
ATOM     11  N   UNL     1       4.494   3.293  19.300  0.00  0.00    +0.000 NA
ATOM     12  C   UNL     1       3.686   4.287  19.562  0.00  0.00    +0.000 A 
ENDROOT
BRANCH   1  16
ATOM     13  C   UNL     1      -0.294  10.739  19.389  0.00  0.00    +0.000 A 
ATOM     14  C   UNL     1       0.024  10.346  18.087  0.00  0.00    +0.000 A 
ATOM     15  C   UNL     1       0.924   9.295  17.886  0.00  0.00    +0.000 A 
ATOM     16  C   UNL     1       1.484   8.624  18.986  0.00  0.00    +0.000 A 
ATOM     17  C   UNL     1       1.158   9.033  20.286  0.00  0.00    +0.000 A 
ATOM     18  C   UNL     1       0.281  10.099  20.488  0.00  0.00    +0.000 A 
BRANCH  13  19
ATOM     19  S   UNL     1      -1.470  12.034  19.646  0.00  0.00    +0.000 S 
ATOM     20  O   UNL     1      -1.338  12.530  20.991  0.00  0.00    +0.000 OA
ATOM     21  O   UNL     1      -2.744  11.643  19.078  0.00  0.00    +0.000 OA
BRANCH  19  22
ATOM     22  N   UNL     1      -0.888  13.234  18.623  0.00  0.00    +0.000 NA
ATOM     23  H   UNL     1       0.085  13.430  18.857  0.00  0.00    +0.000 HD
ATOM     24  H   UNL     1      -1.493  14.050  18.656  0.00  0.00    +0.000 HD
ENDBRANCH  19  22
ENDBRANCH  13  19
ENDBRANCH   1  16
BRANCH   3  25
ATOM     25  C   UNL     1       5.078   5.895  16.900  0.00  0.00    +0.000 A 
ATOM     26  C   UNL     1       4.812   5.034  15.825  0.00  0.00    +0.000 A 
ATOM     27  C   UNL     1       5.832   4.662  14.943  0.00  0.00    +0.000 A 
ATOM     28  C   UNL     1       7.121   5.160  15.113  0.00  0.00    +0.000 A 
ATOM     29  C   UNL     1       7.394   6.032  16.162  0.00  0.00    +0.000 A 
ATOM     30  C   UNL     1       6.380   6.387  17.054  0.00  0.00    +0.000 A 
ENDBRANCH   3  25
BRANCH  10  31
ATOM     31  S   UNL     1       4.876   0.803  20.338  0.00  0.00    +0.000 S 
ATOM     32  H   UNL     1       5.145   0.853  21.646  0.00  0.00    +0.000 HD
ENDBRANCH  10  31
TORSDOF 5
ENDMDL
MODEL 3
REMARK VINA RESULT:      -7.6      4.056      9.840
REMARK  Name = 
REMARK  5 active torsions:
REMARK  status: ('A' for Active; 'I' for Inactive)
REMARK    1  A    between atoms: N_1  and  S_2
REMARK    2  A    between atoms: S_2  and  C_5
REMARK    3  A    between atoms: C_8  and  N_9
REMARK    4  A    between atoms: C_11  and  C_12
REMARK    5  A    between atoms: C_24  and  S_25
REMARK                            x       y       z     vdW  Elec       q    Type
REMARK                         _______ _______ _______ _____ _____    ______ ____
ROOT
ATOM      1  N   UNL     1       0.570  10.298  19.004  0.00  0.00    +0.000 N 
ATOM      2  C   UNL     1      -0.818  10.316  19.098  0.00  0.00    +0.000 A 
ATOM      3  C   UNL     1      -1.284  11.620  19.134  0.00  0.00    +0.000 A 
ATOM      4  C   UNL     1      -0.136  12.414  19.001  0.00  0.00    +0.000 A 
ATOM      5  C   UNL     1       1.003  11.622  18.946  0.00  0.00    +0.000 A 
ATOM      6  N   UNL     1       2.307  12.037  18.770  0.00  0.00    +0.000 NA
ATOM      7  C   UNL     1       2.483  13.332  18.652  0.00  0.00    +0.000 A 
ATOM      8  N   UNL     1       1.420  14.235  18.708  0.00  0.00    +0.000 N 
ATOM      9  N   UNL     1       1.522  15.571  18.571  0.00  0.00    +0.000 NA
ATOM     10  C   UNL     1       0.232  15.924  18.687  0.00  0.00    +0.000 A 
ATOM     11  N   UNL     1      -0.658  14.902  18.884  0.00  0.00    +0.000 NA
ATOM     12  C   UNL     1       0.123  13.853  18.888  0.00  0.00    +0.000 A 
ENDROOT
BRANCH   1  16
ATOM     13  C   UNL     1       2.904   6.786  18.871  0.00  0.00    +0.000 A 
ATOM     14  C   UNL     1       2.223   7.117  20.044  0.00  0.00    +0.000 A 
ATOM     15  C   UNL     1       1.465   8.291  20.093  0.00  0.00    +0.000 A 
ATOM     16  C   UNL     1       1.369   9.117  18.962  0.00  0.00    +0.000 A 
ATOM     17  C   UNL     1       2.061   8.775  17.793  0.00  0.00    +0.000 A 
ATOM     18  C   UNL     1       2.840   7.618  17.751  0.00  0.00    +0.000 A 
BRANCH  13  19
ATOM     19  S   UNL     1       3.822   5.278  18.790  0.00  0.00    +0.000 S 
ATOM     20  O   UNL     1       5.126   5.489  19.360  0.00  0.00    +0.000 OA
ATOM     21  O   UNL     1       3.625   4.667  17.491  0.00  0.00    +0.000 OA
BRANCH  19  22
ATOM     22  N   UNL     1       2.972   4.302  19.863  0.00  0.00    +0.000 NA
ATOM     23  H   UNL     1       2.703   4.855  20.677  0.00  0.00    +0.000 HD
ATOM     24  H   UNL     1       3.513   3.472  20.089  0.00  0.00    +0.000 HD
ENDBRANCH  19  22
ENDBRANCH  13  19
ENDBRANCH   1  16
BRANCH   3  25
ATOM     25  C   UNL     1      -2.695  11.969  19.233  0.00  0.00    +0.000 A 
ATOM     26  C   UNL     1      -3.182  12.705  20.322  0.00  0.00    +0.000 A 
ATOM     27  C   UNL     1      -4.542  13.017  20.418  0.00  0.00    +0.000 A 
ATOM     28  C   UNL     1      -5.425  12.614  19.420  0.00  0.00    +0.000 A 
ATOM     29  C   UNL     1      -4.951  11.901  18.323  0.00  0.00    +0.000 A 
ATOM     30  C   UNL     1      -3.597  11.573  18.238  0.00  0.00    +0.000 A 
ENDBRANCH   3  25
BRANCH  10  31
ATOM     31  S   UNL     1      -0.275  17.582  18.573  0.00  0.00    +0.000 S 
ATOM     32  H   UNL     1       0.745  18.095  19.267  0.00  0.00    +0.000 HD
ENDBRANCH  10  31
TORSDOF 5
ENDMDL
MODEL 4
REMARK VINA RESULT:      -7.6      4.123      9.867
REMARK  Name = 
REMARK  5 active torsions:
REMARK  status: ('A' for Active; 'I' for Inactive)
REMARK    1  A    between atoms: N_1  and  S_2
REMARK    2  A    between atoms: S_2  and  C_5
REMARK    3  A    between atoms: C_8  and  N_9
REMARK    4  A    between atoms: C_11  and  C_12
REMARK    5  A    between atoms: C_24  and  S_25
REMARK                            x       y       z     vdW  Elec       q    Type
REMARK                         _______ _______ _______ _____ _____    ______ ____
ROOT
ATOM      1  N   UNL     1       0.570  10.280  19.008  0.00  0.00    +0.000 N 
ATOM      2  C   UNL     1      -0.819  10.298  19.092  0.00  0.00    +0.000 A 
ATOM      3  C   UNL     1      -1.285  11.603  19.123  0.00  0.00    +0.000 A 
ATOM      4  C   UNL     1      -0.136  12.396  18.998  0.00  0.00    +0.000 A 
ATOM      5  C   UNL     1       1.003  11.604  18.952  0.00  0.00    +0.000 A 
ATOM      6  N   UNL     1       2.309  12.019  18.786  0.00  0.00    +0.000 NA
ATOM      7  C   UNL     1       2.487  13.313  18.667  0.00  0.00    +0.000 A 
ATOM      8  N   UNL     1       1.423  14.216  18.715  0.00  0.00    +0.000 N 
ATOM      9  N   UNL     1       1.526  15.553  18.577  0.00  0.00    +0.000 NA
ATOM     10  C   UNL     1       0.236  15.906  18.683  0.00  0.00    +0.000 A 
ATOM     11  N   UNL     1      -0.656  14.884  18.875  0.00  0.00    +0.000 NA
ATOM     12  C   UNL     1       0.125  13.835  18.885  0.00  0.00    +0.000 A 
ENDROOT
BRANCH   1  16
ATOM     13  C   UNL     1       2.904   6.768  18.895  0.00  0.00    +0.000 A 
ATOM     14  C   UNL     1       2.201   7.091  20.058  0.00  0.00    +0.000 A 
ATOM     15  C   UNL     1       1.443   8.265  20.101  0.00  0.00    +0.000 A 
ATOM     16  C   UNL     1       1.368   9.099  18.973  0.00  0.00    +0.000 A 
ATOM     17  C   UNL     1       2.082   8.764  17.815  0.00  0.00    +0.000 A 
ATOM     18  C   UNL     1       2.861   7.606  17.780  0.00  0.00    +0.000 A 
BRANCH  13  19
ATOM     19  S   UNL     1       3.822   5.259  18.821  0.00  0.00    +0.000 S 
ATOM     20  O   UNL     1       2.971   4.170  19.225  0.00  0.00    +0.000 OA
ATOM     21  O   UNL     1       5.140   5.472  19.383  0.00  0.00    +0.000 OA
BRANCH  19  22
ATOM     22  N   UNL     1       4.075   5.093  17.167  0.00  0.00    +0.000 NA
ATOM     23  H   UNL     1       4.723   5.816  16.854  0.00  0.00    +0.000 HD
ATOM     24  H   UNL     1       3.187   5.092  16.673  0.00  0.00    +0.000 HD
ENDBRANCH  19  22
ENDBRANCH  13  19
ENDBRANCH   1  16
BRANCH   3  25
ATOM     25  C   UNL     1      -2.696  11.952  19.211  0.00  0.00    +0.000 A 
ATOM     26  C   UNL     1      -3.600  11.564  18.212  0.00  0.00    +0.000 A 
ATOM     27  C   UNL     1      -4.949  11.922  18.295  0.00  0.00    +0.000 A 
ATOM     28  C   UNL     1      -5.413  12.656  19.384  0.00  0.00    +0.000 A 
ATOM     29  C   UNL     1      -4.531  13.030  20.393  0.00  0.00    +0.000 A 
ATOM     30  C   UNL     1      -3.180  12.688  20.300  0.00  0.00    +0.000 A 
ENDBRANCH   3  25
BRANCH  10  31
ATOM     31  S   UNL     1      -0.270  17.563  18.564  0.00  0.00    +0.000 S 
ATOM     32  H   UNL     1       0.792  17.991  17.875  0.00  0.00    +0.000 HD
ENDBRANCH  10  31
TORSDOF 5
ENDMDL
MODEL 5
REMARK VINA RESULT:      -7.5      0.759      1.350
REMARK  Name = 
REMARK  5 active torsions:
REMARK  status: ('A' for Active; 'I' for Inactive)
REMARK    1  A    between atoms: N_1  and  S_2
REMARK    2  A    between atoms: S_2  and  C_5
REMARK    3  A    between atoms: C_8  and  N_9
REMARK    4  A    between atoms: C_11  and  C_12
REMARK    5  A    between atoms: C_24  and  S_25
REMARK                            x       y       z     vdW  Elec       q    Type
REMARK                         _______ _______ _______ _____ _____    ______ ____
ROOT
ATOM      1  N   UNL     1       2.483   7.395  18.844  0.00  0.00    +0.000 N 
ATOM      2  C   UNL     1       3.385   7.304  17.789  0.00  0.00    +0.000 A 
ATOM      3  C   UNL     1       4.093   6.115  17.858  0.00  0.00    +0.000 A 
ATOM      4  C   UNL     1       3.556   5.443  18.965  0.00  0.00    +0.000 A 
ATOM      5  C   UNL     1       2.591   6.222  19.590  0.00  0.00    +0.000 A 
ATOM      6  N   UNL     1       1.812   5.883  20.678  0.00  0.00    +0.000 NA
ATOM      7  C   UNL     1       2.020   4.688  21.179  0.00  0.00    +0.000 A 
ATOM      8  N   UNL     1       2.974   3.817  20.651  0.00  0.00    +0.000 N 
ATOM      9  N   UNL     1       3.225   2.571  21.097  0.00  0.00    +0.000 NA
ATOM     10  C   UNL     1       4.189   2.198  20.240  0.00  0.00    +0.000 A 
ATOM     11  N   UNL     1       4.549   3.123  19.297  0.00  0.00    +0.000 NA
ATOM     12  C   UNL     1       3.762   4.128  19.582  0.00  0.00    +0.000 A 
ENDROOT
BRANCH   1  16
ATOM     13  C   UNL     1      -0.126  10.639  19.527  0.00  0.00    +0.000 A 
ATOM     14  C   UNL     1       0.252  10.322  18.221  0.00  0.00    +0.000 A 
ATOM     15  C   UNL     1       1.132   9.259  17.997  0.00  0.00    +0.000 A 
ATOM     16  C   UNL     1       1.611   8.499  19.077  0.00  0.00    +0.000 A 
ATOM     17  C   UNL     1       1.226   8.831  20.382  0.00  0.00    +0.000 A 
ATOM     18  C   UNL     1       0.369   9.909  20.609  0.00  0.00    +0.000 A 
BRANCH  13  19
ATOM     19  S   UNL     1      -1.277  11.950  19.809  0.00  0.00    +0.000 S 
ATOM     20  O   UNL     1      -2.529  11.622  19.178  0.00  0.00    +0.000 OA
ATOM     21  O   UNL     1      -0.612  13.222  19.613  0.00  0.00    +0.000 OA
BRANCH  19  22
ATOM     22  N   UNL     1      -1.523  11.840  21.468  0.00  0.00    +0.000 NA
ATOM     23  H   UNL     1      -1.733  10.871  21.711  0.00  0.00    +0.000 HD
ATOM     24  H   UNL     1      -2.234  12.503  21.764  0.00  0.00    +0.000 HD
ENDBRANCH  19  22
ENDBRANCH  13  19
ENDBRANCH   1  16
BRANCH   3  25
ATOM     25  C   UNL     1       5.115   5.728  16.895  0.00  0.00    +0.000 A 
ATOM     26  C   UNL     1       6.409   6.262  16.961  0.00  0.00    +0.000 A 
ATOM     27  C   UNL     1       7.377   5.900  16.018  0.00  0.00    +0.000 A 
ATOM     28  C   UNL     1       7.068   4.988  15.013  0.00  0.00    +0.000 A 
ATOM     29  C   UNL     1       5.794   4.434  14.949  0.00  0.00    +0.000 A 
ATOM     30  C   UNL     1       4.823   4.810  15.878  0.00  0.00    +0.000 A 
ENDBRANCH   3  25
BRANCH  10  31
ATOM     31  S   UNL     1       4.918   0.623  20.315  0.00  0.00    +0.000 S 
ATOM     32  H   UNL     1       6.068   1.021  20.868  0.00  0.00    +0.000 HD
ENDBRANCH  10  31
TORSDOF 5
ENDMDL
MODEL 6
REMARK VINA RESULT:      -7.5      4.137      9.862
REMARK  Name = 
REMARK  5 active torsions:
REMARK  status: ('A' for Active; 'I' for Inactive)
REMARK    1  A    between atoms: N_1  and  S_2
REMARK    2  A    between atoms: S_2  and  C_5
REMARK    3  A    between atoms: C_8  and  N_9
REMARK    4  A    between atoms: C_11  and  C_12
REMARK    5  A    between atoms: C_24  and  S_25
REMARK                            x       y       z     vdW  Elec       q    Type
REMARK                         _______ _______ _______ _____ _____    ______ ____
ROOT
ATOM      1  N   UNL     1       0.599  10.263  19.016  0.00  0.00    +0.000 N 
ATOM      2  C   UNL     1      -0.787  10.305  19.130  0.00  0.00    +0.000 A 
ATOM      3  C   UNL     1      -1.230  11.617  19.166  0.00  0.00    +0.000 A 
ATOM      4  C   UNL     1      -0.071  12.390  19.012  0.00  0.00    +0.000 A 
ATOM      5  C   UNL     1       1.053  11.579  18.945  0.00  0.00    +0.000 A 
ATOM      6  N   UNL     1       2.362  11.971  18.748  0.00  0.00    +0.000 NA
ATOM      7  C   UNL     1       2.558  13.262  18.620  0.00  0.00    +0.000 A 
ATOM      8  N   UNL     1       1.511  14.183  18.688  0.00  0.00    +0.000 N 
ATOM      9  N   UNL     1       1.634  15.517  18.542  0.00  0.00    +0.000 NA
ATOM     10  C   UNL     1       0.352  15.892  18.675  0.00  0.00    +0.000 A 
ATOM     11  N   UNL     1      -0.552  14.887  18.890  0.00  0.00    +0.000 NA
ATOM     12  C   UNL     1       0.211  13.825  18.888  0.00  0.00    +0.000 A 
ENDROOT
BRANCH   1  16
ATOM     13  C   UNL     1       2.930   6.749  18.881  0.00  0.00    +0.000 A 
ATOM     14  C   UNL     1       2.834   7.557  17.745  0.00  0.00    +0.000 A 
ATOM     15  C   UNL     1       2.046   8.711  17.786  0.00  0.00    +0.000 A 
ATOM     16  C   UNL     1       1.377   9.069  18.968  0.00  0.00    +0.000 A 
ATOM     17  C   UNL     1       1.479   8.246  20.097  0.00  0.00    +0.000 A 
ATOM     18  C   UNL     1       2.244   7.080  20.051  0.00  0.00    +0.000 A 
BRANCH  13  19
ATOM     19  S   UNL     1       3.965   5.317  18.848  0.00  0.00    +0.000 S 
ATOM     20  O   UNL     1       3.157   4.146  19.066  0.00  0.00    +0.000 OA
ATOM     21  O   UNL     1       5.175   5.584  19.599  0.00  0.00    +0.000 OA
BRANCH  19  22
ATOM     22  N   UNL     1       4.451   5.282  17.239  0.00  0.00    +0.000 NA
ATOM     23  H   UNL     1       3.637   5.421  16.641  0.00  0.00    +0.000 HD
ATOM     24  H   UNL     1       4.965   4.427  17.045  0.00  0.00    +0.000 HD
ENDBRANCH  19  22
ENDBRANCH  13  19
ENDBRANCH   1  16
BRANCH   3  25
ATOM     25  C   UNL     1      -2.633  11.990  19.284  0.00  0.00    +0.000 A 
ATOM     26  C   UNL     1      -3.091  12.743  20.374  0.00  0.00    +0.000 A 
ATOM     27  C   UNL     1      -4.444  13.079  20.488  0.00  0.00    +0.000 A 
ATOM     28  C   UNL     1      -5.349  12.683  19.507  0.00  0.00    +0.000 A 
ATOM     29  C   UNL     1      -4.904  11.954  18.409  0.00  0.00    +0.000 A 
ATOM     30  C   UNL     1      -3.557  11.602  18.305  0.00  0.00    +0.000 A 
ENDBRANCH   3  25
BRANCH  10  31
ATOM     31  S   UNL     1      -0.128  17.558  18.560  0.00  0.00    +0.000 S 
ATOM     32  H   UNL     1       0.393  17.777  17.349  0.00  0.00    +0.000 HD
ENDBRANCH  10  31
TORSDOF 5
ENDMDL
MODEL 7
REMARK VINA RESULT:      -7.5      4.223     10.107
REMARK  Name = 
REMARK  5 active torsions:
REMARK  status: ('A' for Active; 'I' for Inactive)
REMARK    1  A    between atoms: N_1  and  S_2
REMARK    2  A    between atoms: S_2  and  C_5
REMARK    3  A    between atoms: C_8  and  N_9
REMARK    4  A    between atoms: C_11  and  C_12
REMARK    5  A    between atoms: C_24  and  S_25
REMARK                            x       y       z     vdW  Elec       q    Type
REMARK                         _______ _______ _______ _____ _____    ______ ____
ROOT
ATOM      1  N   UNL     1       0.633  10.476  19.735  0.00  0.00    +0.000 N 
ATOM      2  C   UNL     1      -0.533  10.520  20.492  0.00  0.00    +0.000 A 
ATOM      3  C   UNL     1      -0.926  11.832  20.701  0.00  0.00    +0.000 A 
ATOM      4  C   UNL     1       0.010  12.602  19.995  0.00  0.00    +0.000 A 
ATOM      5  C   UNL     1       0.980  11.790  19.423  0.00  0.00    +0.000 A 
ATOM      6  N   UNL     1       2.032  12.178  18.619  0.00  0.00    +0.000 NA
ATOM      7  C   UNL     1       2.125  13.464  18.380  0.00  0.00    +0.000 A 
ATOM      8  N   UNL     1       1.222  14.386  18.913  0.00  0.00    +0.000 N 
ATOM      9  N   UNL     1       1.241  15.715  18.693  0.00  0.00    +0.000 NA
ATOM     10  C   UNL     1       0.170  16.093  19.408  0.00  0.00    +0.000 A 
ATOM     11  N   UNL     1      -0.509  15.093  20.052  0.00  0.00    +0.000 NA
ATOM     12  C   UNL     1       0.178  14.032  19.715  0.00  0.00    +0.000 A 
ENDROOT
BRANCH   1  16
ATOM     13  C   UNL     1       2.675   6.960  18.612  0.00  0.00    +0.000 A 
ATOM     14  C   UNL     1       2.440   7.954  17.660  0.00  0.00    +0.000 A 
ATOM     15  C   UNL     1       1.747   9.110  18.029  0.00  0.00    +0.000 A 
ATOM     16  C   UNL     1       1.313   9.282  19.354  0.00  0.00    +0.000 A 
ATOM     17  C   UNL     1       1.552   8.274  20.297  0.00  0.00    +0.000 A 
ATOM     18  C   UNL     1       2.221   7.107  19.924  0.00  0.00    +0.000 A 
BRANCH  13  19
ATOM     19  S   UNL     1       3.595   5.519  18.161  0.00  0.00    +0.000 S 
ATOM     20  O   UNL     1       4.211   4.965  19.338  0.00  0.00    +0.000 OA
ATOM     21  O   UNL     1       4.333   5.785  16.943  0.00  0.00    +0.000 OA
BRANCH  19  22
ATOM     22  N   UNL     1       2.372   4.460  17.706  0.00  0.00    +0.000 NA
ATOM     23  H   UNL     1       1.554   4.621  18.294  0.00  0.00    +0.000 HD
ATOM     24  H   UNL     1       2.711   3.502  17.723  0.00  0.00    +0.000 HD
ENDBRANCH  19  22
ENDBRANCH  13  19
ENDBRANCH   1  16
BRANCH   3  25
ATOM     25  C   UNL     1      -2.110  12.208  21.461  0.00  0.00    +0.000 A 
ATOM     26  C   UNL     1      -3.225  12.776  20.827  0.00  0.00    +0.000 A 
ATOM     27  C   UNL     1      -4.349  13.153  21.568  0.00  0.00    +0.000 A 
ATOM     28  C   UNL     1      -4.380  12.949  22.945  0.00  0.00    +0.000 A 
ATOM     29  C   UNL     1      -3.290  12.367  23.584  0.00  0.00    +0.000 A 
ATOM     30  C   UNL     1      -2.160  12.009  22.846  0.00  0.00    +0.000 A 
ENDBRANCH   3  25
BRANCH  10  31
ATOM     31  S   UNL     1      -0.332  17.754  19.492  0.00  0.00    +0.000 S 
ATOM     32  H   UNL     1      -0.787  17.833  18.238  0.00  0.00    +0.000 HD
ENDBRANCH  10  31
TORSDOF 5
ENDMDL
MODEL 8
REMARK VINA RESULT:      -7.5      4.364     10.186
REMARK  Name = 
REMARK  5 active torsions:
REMARK  status: ('A' for Active; 'I' for Inactive)
REMARK    1  A    between atoms: N_1  and  S_2
REMARK    2  A    between atoms: S_2  and  C_5
REMARK    3  A    between atoms: C_8  and  N_9
REMARK    4  A    between atoms: C_11  and  C_12
REMARK    5  A    between atoms: C_24  and  S_25
REMARK                            x       y       z     vdW  Elec       q    Type
REMARK                         _______ _______ _______ _____ _____    ______ ____
ROOT
ATOM      1  N   UNL     1       0.492  10.596  19.830  0.00  0.00    +0.000 N 
ATOM      2  C   UNL     1      -0.660  10.623  20.610  0.00  0.00    +0.000 A 
ATOM      3  C   UNL     1      -1.077  11.929  20.812  0.00  0.00    +0.000 A 
ATOM      4  C   UNL     1      -0.172  12.710  20.079  0.00  0.00    +0.000 A 
ATOM      5  C   UNL     1       0.803  11.912  19.496  0.00  0.00    +0.000 A 
ATOM      6  N   UNL     1       1.831  12.313  18.666  0.00  0.00    +0.000 NA
ATOM      7  C   UNL     1       1.891  13.599  18.411  0.00  0.00    +0.000 A 
ATOM      8  N   UNL     1       0.979  14.507  18.951  0.00  0.00    +0.000 N 
ATOM      9  N   UNL     1       0.964  15.833  18.715  0.00  0.00    +0.000 NA
ATOM     10  C   UNL     1      -0.101  16.197  19.448  0.00  0.00    +0.000 A 
ATOM     11  N   UNL     1      -0.744  15.190  20.117  0.00  0.00    +0.000 NA
ATOM     12  C   UNL     1      -0.041  14.140  19.778  0.00  0.00    +0.000 A 
ENDROOT
BRANCH   1  16
ATOM     13  C   UNL     1       2.588   7.110  18.708  0.00  0.00    +0.000 A 
ATOM     14  C   UNL     1       2.324   8.094  17.752  0.00  0.00    +0.000 A 
ATOM     15  C   UNL     1       1.613   9.240  18.121  0.00  0.00    +0.000 A 
ATOM     16  C   UNL     1       1.190   9.412  19.449  0.00  0.00    +0.000 A 
ATOM     17  C   UNL     1       1.458   8.414  20.396  0.00  0.00    +0.000 A 
ATOM     18  C   UNL     1       2.144   7.258  20.023  0.00  0.00    +0.000 A 
BRANCH  13  19
ATOM     19  S   UNL     1       3.530   5.685  18.256  0.00  0.00    +0.000 S 
ATOM     20  O   UNL     1       2.654   4.709  17.663  0.00  0.00    +0.000 OA
ATOM     21  O   UNL     1       4.451   5.361  19.326  0.00  0.00    +0.000 OA
BRANCH  19  22
ATOM     22  N   UNL     1       4.495   6.290  17.020  0.00  0.00    +0.000 NA
ATOM     23  H   UNL     1       3.903   6.746  16.326  0.00  0.00    +0.000 HD
ATOM     24  H   UNL     1       5.084   5.553  16.640  0.00  0.00    +0.000 HD
ENDBRANCH  19  22
ENDBRANCH  13  19
ENDBRANCH   1  16
BRANCH   3  25
ATOM     25  C   UNL     1      -2.254  12.288  21.590  0.00  0.00    +0.000 A 
ATOM     26  C   UNL     1      -2.280  12.115  22.982  0.00  0.00    +0.000 A 
ATOM     27  C   UNL     1      -3.423  12.443  23.718  0.00  0.00    +0.000 A 
ATOM     28  C   UNL     1      -4.543  12.964  23.077  0.00  0.00    +0.000 A 
ATOM     29  C   UNL     1      -4.524  13.160  21.699  0.00  0.00    +0.000 A 
ATOM     30  C   UNL     1      -3.389  12.814  20.962  0.00  0.00    +0.000 A 
ENDBRANCH   3  25
BRANCH  10  31
ATOM     31  S   UNL     1      -0.637  17.847  19.522  0.00  0.00    +0.000 S 
ATOM     32  H   UNL     1      -1.843  17.634  18.988  0.00  0.00    +0.000 HD
ENDBRANCH  10  31
TORSDOF 5
ENDMDL
MODEL 9
REMARK VINA RESULT:      -7.4      4.232     10.040
REMARK  Name = 
REMARK  5 active torsions:
REMARK  status: ('A' for Active; 'I' for Inactive)
REMARK    1  A    between atoms: N_1  and  S_2
REMARK    2  A    between atoms: S_2  and  C_5
REMARK    3  A    between atoms: C_8  and  N_9
REMARK    4  A    between atoms: C_11  and  C_12
REMARK    5  A    between atoms: C_24  and  S_25
REMARK                            x       y       z     vdW  Elec       q    Type
REMARK                         _______ _______ _______ _____ _____    ______ ____
ROOT
ATOM      1  N   UNL     1       0.643  10.463  19.780  0.00  0.00    +0.000 N 
ATOM      2  C   UNL     1      -0.520  10.521  20.541  0.00  0.00    +0.000 A 
ATOM      3  C   UNL     1      -0.906  11.837  20.736  0.00  0.00    +0.000 A 
ATOM      4  C   UNL     1       0.031  12.594  20.018  0.00  0.00    +0.000 A 
ATOM      5  C   UNL     1       0.995  11.771  19.451  0.00  0.00    +0.000 A 
ATOM      6  N   UNL     1       2.046  12.145  18.639  0.00  0.00    +0.000 NA
ATOM      7  C   UNL     1       2.144  13.428  18.386  0.00  0.00    +0.000 A 
ATOM      8  N   UNL     1       1.247  14.360  18.911  0.00  0.00    +0.000 N 
ATOM      9  N   UNL     1       1.271  15.686  18.675  0.00  0.00    +0.000 NA
ATOM     10  C   UNL     1       0.205  16.078  19.391  0.00  0.00    +0.000 A 
ATOM     11  N   UNL     1      -0.476  15.088  20.049  0.00  0.00    +0.000 NA
ATOM     12  C   UNL     1       0.204  14.020  19.721  0.00  0.00    +0.000 A 
ENDROOT
BRANCH   1  16
ATOM     13  C   UNL     1       2.601   6.891  18.682  0.00  0.00    +0.000 A 
ATOM     14  C   UNL     1       2.185   7.071  20.002  0.00  0.00    +0.000 A 
ATOM     15  C   UNL     1       1.553   8.263  20.369  0.00  0.00    +0.000 A 
ATOM     16  C   UNL     1       1.316   9.261  19.410  0.00  0.00    +0.000 A 
ATOM     17  C   UNL     1       1.743   9.068  18.090  0.00  0.00    +0.000 A 
ATOM     18  C   UNL     1       2.398   7.890  17.728  0.00  0.00    +0.000 A 
BRANCH  13  19
ATOM     19  S   UNL     1       3.355   5.366  18.204  0.00  0.00    +0.000 S 
ATOM     20  O   UNL     1       3.873   4.709  19.375  0.00  0.00    +0.000 OA
ATOM     21  O   UNL     1       4.147   5.576  17.009  0.00  0.00    +0.000 OA
BRANCH  19  22
ATOM     22  N   UNL     1       2.026   4.473  17.691  0.00  0.00    +0.000 NA
ATOM     23  H   UNL     1       1.248   5.107  17.508  0.00  0.00    +0.000 HD
ATOM     24  H   UNL     1       1.812   3.741  18.364  0.00  0.00    +0.000 HD
ENDBRANCH  19  22
ENDBRANCH  13  19
ENDBRANCH   1  16
BRANCH   3  25
ATOM     25  C   UNL     1      -2.086  12.227  21.495  0.00  0.00    +0.000 A 
ATOM     26  C   UNL     1      -2.150  12.031  22.882  0.00  0.00    +0.000 A 
ATOM     27  C   UNL     1      -3.295  12.389  23.600  0.00  0.00    +0.000 A 
ATOM     28  C   UNL     1      -4.381  12.963  22.944  0.00  0.00    +0.000 A 
ATOM     29  C   UNL     1      -4.323  13.183  21.571  0.00  0.00    +0.000 A 
ATOM     30  C   UNL     1      -3.186  12.807  20.852  0.00  0.00    +0.000 A 
ENDBRANCH   3  25
BRANCH  10  31
ATOM     31  S   UNL     1      -0.289  17.741  19.457  0.00  0.00    +0.000 S 
ATOM     32  H   UNL     1       0.675  18.213  18.661  0.00  0.00    +0.000 HD
ENDBRANCH  10  31
TORSDOF 5
ENDMDL
