MODEL 1
REMARK VINA RESULT:      -6.8      0.000      0.000
REMARK  Name = 
REMARK  3 active torsions:
REMARK  status: ('A' for Active; 'I' for Inactive)
REMARK    1  A    between atoms: C_1  and  C_2
REMARK    2  A    between atoms: C_7  and  N_8
REMARK    3  A    between atoms: C_12  and  C_13
REMARK                            x       y       z     vdW  Elec       q    Type
REMARK                         _______ _______ _______ _____ _____    ______ ____
ROOT
ATOM      1  N   UNL     1       4.844   4.097  19.273  0.00  0.00    +0.000 N 
ATOM      2  C   UNL     1       5.289   4.984  18.328  0.00  0.00    +0.000 C 
ATOM      3  N   UNL     1       4.654   5.945  17.754  0.00  0.00    +0.000 NA
ATOM      4  C   UNL     1       5.428   6.546  16.666  0.00  0.00    +0.000 C 
ATOM      5  C   UNL     1       6.917   6.297  16.866  0.00  0.00    +0.000 C 
ATOM      6  C   UNL     1       7.596   7.432  17.619  0.00  0.00    +0.000 C 
ATOM      7  S   UNL     1       6.955   4.756  17.821  0.00  0.00    +0.000 S 
ATOM      8  H   UNL     1       5.495   3.349  19.468  0.00  0.00    +0.000 HD
ENDROOT
BRANCH   1  15
ATOM      9  C   UNL     1       3.558   1.677  18.147  0.00  0.00    +0.000 C 
ATOM     10  C   UNL     1       2.842   2.683  19.007  0.00  0.00    +0.000 A 
ATOM     11  C   UNL     1       1.462   2.496  19.223  0.00  0.00    +0.000 A 
ATOM     12  C   UNL     1       0.728   3.379  20.010  0.00  0.00    +0.000 A 
ATOM     13  C   UNL     1       1.369   4.448  20.616  0.00  0.00    +0.000 A 
ATOM     14  C   UNL     1       2.730   4.645  20.406  0.00  0.00    +0.000 A 
ATOM     15  C   UNL     1       3.490   3.810  19.564  0.00  0.00    +0.000 A 
ENDBRANCH   1  15
TORSDOF 1
ENDMDL
MODEL 2
REMARK VINA RESULT:      -6.6      1.759      5.586
REMARK  Name = 
REMARK  3 active torsions:
REMARK  status: ('A' for Active; 'I' for Inactive)
REMARK    1  A    between atoms: C_1  and  C_2
REMARK    2  A    between atoms: C_7  and  N_8
REMARK    3  A    between atoms: C_12  and  C_13
REMARK                            x       y       z     vdW  Elec       q    Type
REMARK                         _______ _______ _______ _____ _____    ______ ____
ROOT
ATOM      1  N   UNL     1       5.128   3.863  17.764  0.00  0.00    +0.000 N 
ATOM      2  C   UNL     1       4.097   3.511  18.595  0.00  0.00    +0.000 C 
ATOM      3  N   UNL     1       3.513   4.208  19.506  0.00  0.00    +0.000 NA
ATOM      4  C   UNL     1       2.579   3.408  20.299  0.00  0.00    +0.000 C 
ATOM      5  C   UNL     1       2.122   2.184  19.519  0.00  0.00    +0.000 C 
ATOM      6  C   UNL     1       0.835   2.438  18.748  0.00  0.00    +0.000 C 
ATOM      7  S   UNL     1       3.511   1.867  18.396  0.00  0.00    +0.000 S 
ATOM      8  H   UNL     1       5.500   3.092  17.226  0.00  0.00    +0.000 HD
ENDROOT
BRANCH   1  15
ATOM      9  C   UNL     1       5.136   6.152  15.884  0.00  0.00    +0.000 C 
ATOM     10  C   UNL     1       6.068   6.030  17.059  0.00  0.00    +0.000 A 
ATOM     11  C   UNL     1       7.049   7.029  17.225  0.00  0.00    +0.000 A 
ATOM     12  C   UNL     1       7.946   6.991  18.289  0.00  0.00    +0.000 A 
ATOM     13  C   UNL     1       7.858   5.968  19.219  0.00  0.00    +0.000 A 
ATOM     14  C   UNL     1       6.898   4.974  19.063  0.00  0.00    +0.000 A 
ATOM     15  C   UNL     1       6.018   4.944  17.964  0.00  0.00    +0.000 A 
ENDBRANCH   1  15
TORSDOF 1
ENDMDL
MODEL 3
REMARK VINA RESULT:      -6.5      1.592      2.653
REMARK  Name = 
REMARK  3 active torsions:
REMARK  status: ('A' for Active; 'I' for Inactive)
REMARK    1  A    between atoms: C_1  and  C_2
REMARK    2  A    between atoms: C_7  and  N_8
REMARK    3  A    between atoms: C_12  and  C_13
REMARK                            x       y       z     vdW  Elec       q    Type
REMARK                         _______ _______ _______ _____ _____    ______ ____
ROOT
ATOM      1  N   UNL     1       3.117   5.090  17.454  0.00  0.00    +0.000 N 
ATOM      2  C   UNL     1       4.478   5.045  17.302  0.00  0.00    +0.000 C 
ATOM      3  N   UNL     1       5.322   4.197  17.776  0.00  0.00    +0.000 NA
ATOM      4  C   UNL     1       6.707   4.602  17.536  0.00  0.00    +0.000 C 
ATOM      5  C   UNL     1       6.791   5.552  16.349  0.00  0.00    +0.000 C 
ATOM      6  C   UNL     1       7.059   4.820  15.042  0.00  0.00    +0.000 C 
ATOM      7  S   UNL     1       5.160   6.346  16.338  0.00  0.00    +0.000 S 
ATOM      8  H   UNL     1       2.694   5.934  17.093  0.00  0.00    +0.000 HD
ENDROOT
BRANCH   1  15
ATOM      9  C   UNL     1       2.339   6.525  19.926  0.00  0.00    +0.000 C 
ATOM     10  C   UNL     1       2.027   5.075  19.665  0.00  0.00    +0.000 A 
ATOM     11  C   UNL     1       1.394   4.346  20.692  0.00  0.00    +0.000 A 
ATOM     12  C   UNL     1       1.068   3.003  20.528  0.00  0.00    +0.000 A 
ATOM     13  C   UNL     1       1.345   2.375  19.324  0.00  0.00    +0.000 A 
ATOM     14  C   UNL     1       1.974   3.084  18.305  0.00  0.00    +0.000 A 
ATOM     15  C   UNL     1       2.377   4.424  18.459  0.00  0.00    +0.000 A 
ENDBRANCH   1  15
TORSDOF 1
ENDMDL
MODEL 4
REMARK VINA RESULT:      -6.5      1.492      1.839
REMARK  Name = 
REMARK  3 active torsions:
REMARK  status: ('A' for Active; 'I' for Inactive)
REMARK    1  A    between atoms: C_1  and  C_2
REMARK    2  A    between atoms: C_7  and  N_8
REMARK    3  A    between atoms: C_12  and  C_13
REMARK                            x       y       z     vdW  Elec       q    Type
REMARK                         _______ _______ _______ _____ _____    ______ ____
ROOT
ATOM      1  N   UNL     1       3.376   5.000  17.762  0.00  0.00    +0.000 N 
ATOM      2  C   UNL     1       4.708   5.016  17.443  0.00  0.00    +0.000 C 
ATOM      3  N   UNL     1       5.656   4.259  17.872  0.00  0.00    +0.000 NA
ATOM      4  C   UNL     1       6.973   4.717  17.428  0.00  0.00    +0.000 C 
ATOM      5  C   UNL     1       6.851   5.565  16.170  0.00  0.00    +0.000 C 
ATOM      6  C   UNL     1       7.005   4.739  14.901  0.00  0.00    +0.000 C 
ATOM      7  S   UNL     1       5.182   6.265  16.302  0.00  0.00    +0.000 S 
ATOM      8  H   UNL     1       2.858   5.785  17.393  0.00  0.00    +0.000 HD
ENDROOT
BRANCH   1  15
ATOM      9  C   UNL     1       2.439   2.192  17.625  0.00  0.00    +0.000 C 
ATOM     10  C   UNL     1       2.317   3.058  18.851  0.00  0.00    +0.000 A 
ATOM     11  C   UNL     1       1.649   2.519  19.970  0.00  0.00    +0.000 A 
ATOM     12  C   UNL     1       1.498   3.253  21.142  0.00  0.00    +0.000 A 
ATOM     13  C   UNL     1       2.036   4.527  21.224  0.00  0.00    +0.000 A 
ATOM     14  C   UNL     1       2.692   5.071  20.124  0.00  0.00    +0.000 A 
ATOM     15  C   UNL     1       2.807   4.383  18.901  0.00  0.00    +0.000 A 
ENDBRANCH   1  15
TORSDOF 1
ENDMDL
MODEL 5
REMARK VINA RESULT:      -6.3      1.035      1.081
REMARK  Name = 
REMARK  3 active torsions:
REMARK  status: ('A' for Active; 'I' for Inactive)
REMARK    1  A    between atoms: C_1  and  C_2
REMARK    2  A    between atoms: C_7  and  N_8
REMARK    3  A    between atoms: C_12  and  C_13
REMARK                            x       y       z     vdW  Elec       q    Type
REMARK                         _______ _______ _______ _____ _____    ______ ____
ROOT
ATOM      1  N   UNL     1       5.011   3.438  18.943  0.00  0.00    +0.000 N 
ATOM      2  C   UNL     1       5.366   4.619  18.348  0.00  0.00    +0.000 C 
ATOM      3  N   UNL     1       4.786   5.766  18.407  0.00  0.00    +0.000 NA
ATOM      4  C   UNL     1       5.378   6.733  17.481  0.00  0.00    +0.000 C 
ATOM      5  C   UNL     1       6.809   6.343  17.139  0.00  0.00    +0.000 C 
ATOM      6  C   UNL     1       7.823   7.007  18.060  0.00  0.00    +0.000 C 
ATOM      7  S   UNL     1       6.809   4.541  17.348  0.00  0.00    +0.000 S 
ATOM      8  H   UNL     1       5.555   2.645  18.633  0.00  0.00    +0.000 HD
ENDROOT
BRANCH   1  15
ATOM      9  C   UNL     1       2.704   3.099  17.114  0.00  0.00    +0.000 C 
ATOM     10  C   UNL     1       2.607   2.999  18.613  0.00  0.00    +0.000 A 
ATOM     11  C   UNL     1       1.329   2.807  19.176  0.00  0.00    +0.000 A 
ATOM     12  C   UNL     1       1.154   2.701  20.552  0.00  0.00    +0.000 A 
ATOM     13  C   UNL     1       2.259   2.756  21.387  0.00  0.00    +0.000 A 
ATOM     14  C   UNL     1       3.525   2.949  20.843  0.00  0.00    +0.000 A 
ATOM     15  C   UNL     1       3.731   3.127  19.462  0.00  0.00    +0.000 A 
ENDBRANCH   1  15
TORSDOF 1
ENDMDL
MODEL 6
REMARK VINA RESULT:      -6.3      0.877      2.036
REMARK  Name = 
REMARK  3 active torsions:
REMARK  status: ('A' for Active; 'I' for Inactive)
REMARK    1  A    between atoms: C_1  and  C_2
REMARK    2  A    between atoms: C_7  and  N_8
REMARK    3  A    between atoms: C_12  and  C_13
REMARK                            x       y       z     vdW  Elec       q    Type
REMARK                         _______ _______ _______ _____ _____    ______ ____
ROOT
ATOM      1  N   UNL     1       4.513   4.707  19.410  0.00  0.00    +0.000 N 
ATOM      2  C   UNL     1       5.354   5.200  18.448  0.00  0.00    +0.000 C 
ATOM      3  N   UNL     1       5.118   5.436  17.205  0.00  0.00    +0.000 NA
ATOM      4  C   UNL     1       6.334   5.788  16.469  0.00  0.00    +0.000 C 
ATOM      5  C   UNL     1       7.396   6.330  17.414  0.00  0.00    +0.000 C 
ATOM      6  C   UNL     1       7.347   7.847  17.529  0.00  0.00    +0.000 C 
ATOM      7  S   UNL     1       6.990   5.536  18.994  0.00  0.00    +0.000 S 
ATOM      8  H   UNL     1       4.975   4.485  20.281  0.00  0.00    +0.000 HD
ENDROOT
BRANCH   1  15
ATOM      9  C   UNL     1       1.972   5.688  20.575  0.00  0.00    +0.000 C 
ATOM     10  C   UNL     1       2.087   4.435  19.749  0.00  0.00    +0.000 A 
ATOM     11  C   UNL     1       0.927   3.649  19.587  0.00  0.00    +0.000 A 
ATOM     12  C   UNL     1       0.948   2.478  18.834  0.00  0.00    +0.000 A 
ATOM     13  C   UNL     1       2.122   2.091  18.208  0.00  0.00    +0.000 A 
ATOM     14  C   UNL     1       3.273   2.856  18.365  0.00  0.00    +0.000 A 
ATOM     15  C   UNL     1       3.305   4.009  19.172  0.00  0.00    +0.000 A 
ENDBRANCH   1  15
TORSDOF 1
ENDMDL
MODEL 7
REMARK VINA RESULT:      -6.3      2.213      5.683
REMARK  Name = 
REMARK  3 active torsions:
REMARK  status: ('A' for Active; 'I' for Inactive)
REMARK    1  A    between atoms: C_1  and  C_2
REMARK    2  A    between atoms: C_7  and  N_8
REMARK    3  A    between atoms: C_12  and  C_13
REMARK                            x       y       z     vdW  Elec       q    Type
REMARK                         _______ _______ _______ _____ _____    ______ ____
ROOT
ATOM      1  N   UNL     1       4.046   4.923  18.578  0.00  0.00    +0.000 N 
ATOM      2  C   UNL     1       3.144   3.981  18.995  0.00  0.00    +0.000 C 
ATOM      3  N   UNL     1       3.186   2.701  18.864  0.00  0.00    +0.000 NA
ATOM      4  C   UNL     1       1.938   2.062  19.284  0.00  0.00    +0.000 C 
ATOM      5  C   UNL     1       1.180   2.952  20.260  0.00  0.00    +0.000 C 
ATOM      6  C   UNL     1       1.518   2.637  21.710  0.00  0.00    +0.000 C 
ATOM      7  S   UNL     1       1.722   4.622  19.804  0.00  0.00    +0.000 S 
ATOM      8  H   UNL     1       3.721   5.874  18.681  0.00  0.00    +0.000 HD
ENDROOT
BRANCH   1  15
ATOM      9  C   UNL     1       6.890   5.445  19.225  0.00  0.00    +0.000 C 
ATOM     10  C   UNL     1       6.406   5.010  17.868  0.00  0.00    +0.000 A 
ATOM     11  C   UNL     1       7.357   4.921  16.831  0.00  0.00    +0.000 A 
ATOM     12  C   UNL     1       6.991   4.523  15.548  0.00  0.00    +0.000 A 
ATOM     13  C   UNL     1       5.673   4.180  15.290  0.00  0.00    +0.000 A 
ATOM     14  C   UNL     1       4.725   4.269  16.305  0.00  0.00    +0.000 A 
ATOM     15  C   UNL     1       5.047   4.731  17.596  0.00  0.00    +0.000 A 
ENDBRANCH   1  15
TORSDOF 1
ENDMDL
MODEL 8
REMARK VINA RESULT:      -6.2      2.048      5.627
REMARK  Name = 
REMARK  3 active torsions:
REMARK  status: ('A' for Active; 'I' for Inactive)
REMARK    1  A    between atoms: C_1  and  C_2
REMARK    2  A    between atoms: C_7  and  N_8
REMARK    3  A    between atoms: C_12  and  C_13
REMARK                            x       y       z     vdW  Elec       q    Type
REMARK                         _______ _______ _______ _____ _____    ______ ____
ROOT
ATOM      1  N   UNL     1       4.256   5.484  19.636  0.00  0.00    +0.000 N 
ATOM      2  C   UNL     1       3.204   4.608  19.703  0.00  0.00    +0.000 C 
ATOM      3  N   UNL     1       3.007   3.522  19.042  0.00  0.00    +0.000 NA
ATOM      4  C   UNL     1       1.672   2.969  19.273  0.00  0.00    +0.000 C 
ATOM      5  C   UNL     1       1.112   3.456  20.602  0.00  0.00    +0.000 C 
ATOM      6  C   UNL     1       1.416   2.496  21.744  0.00  0.00    +0.000 C 
ATOM      7  S   UNL     1       1.942   5.051  20.842  0.00  0.00    +0.000 S 
ATOM      8  H   UNL     1       4.112   6.334  20.162  0.00  0.00    +0.000 HD
ENDROOT
BRANCH   1  15
ATOM      9  C   UNL     1       3.736   7.322  17.372  0.00  0.00    +0.000 C 
ATOM     10  C   UNL     1       4.939   6.421  17.461  0.00  0.00    +0.000 A 
ATOM     11  C   UNL     1       5.825   6.402  16.364  0.00  0.00    +0.000 A 
ATOM     12  C   UNL     1       6.962   5.598  16.370  0.00  0.00    +0.000 A 
ATOM     13  C   UNL     1       7.245   4.824  17.483  0.00  0.00    +0.000 A 
ATOM     14  C   UNL     1       6.374   4.831  18.569  0.00  0.00    +0.000 A 
ATOM     15  C   UNL     1       5.182   5.580  18.571  0.00  0.00    +0.000 A 
ENDBRANCH   1  15
TORSDOF 1
ENDMDL
MODEL 9
REMARK VINA RESULT:      -6.1      1.222      1.467
REMARK  Name = 
REMARK  3 active torsions:
REMARK  status: ('A' for Active; 'I' for Inactive)
REMARK    1  A    between atoms: C_1  and  C_2
REMARK    2  A    between atoms: C_7  and  N_8
REMARK    3  A    between atoms: C_12  and  C_13
REMARK                            x       y       z     vdW  Elec       q    Type
REMARK                         _______ _______ _______ _____ _____    ______ ____
ROOT
ATOM      1  N   UNL     1       5.031   3.686  18.478  0.00  0.00    +0.000 N 
ATOM      2  C   UNL     1       5.550   4.857  17.992  0.00  0.00    +0.000 C 
ATOM      3  N   UNL     1       5.000   6.017  17.906  0.00  0.00    +0.000 NA
ATOM      4  C   UNL     1       5.825   6.966  17.158  0.00  0.00    +0.000 C 
ATOM      5  C   UNL     1       7.287   6.543  17.183  0.00  0.00    +0.000 C 
ATOM      6  C   UNL     1       8.055   7.188  18.328  0.00  0.00    +0.000 C 
ATOM      7  S   UNL     1       7.194   4.742  17.382  0.00  0.00    +0.000 S 
ATOM      8  H   UNL     1       5.617   2.880  18.312  0.00  0.00    +0.000 HD
ENDROOT
BRANCH   1  15
ATOM      9  C   UNL     1       4.140   2.039  20.773  0.00  0.00    +0.000 C 
ATOM     10  C   UNL     1       3.210   2.590  19.727  0.00  0.00    +0.000 A 
ATOM     11  C   UNL     1       1.848   2.235  19.809  0.00  0.00    +0.000 A 
ATOM     12  C   UNL     1       0.922   2.707  18.882  0.00  0.00    +0.000 A 
ATOM     13  C   UNL     1       1.339   3.563  17.876  0.00  0.00    +0.000 A 
ATOM     14  C   UNL     1       2.682   3.916  17.782  0.00  0.00    +0.000 A 
ATOM     15  C   UNL     1       3.656   3.406  18.662  0.00  0.00    +0.000 A 
ENDBRANCH   1  15
TORSDOF 1
ENDMDL
