MODEL 1
REMARK VINA RESULT:      -8.9      0.000      0.000
REMARK  Name = 
REMARK  4 active torsions:
REMARK  status: ('A' for Active; 'I' for Inactive)
REMARK    1  A    between atoms: C_1  and  C_2
REMARK    2  A    between atoms: C_5  and  C_6
REMARK    3  A    between atoms: N_9  and  C_13
REMARK    4  A    between atoms: N_24  and  C_25
REMARK                            x       y       z     vdW  Elec       q    Type
REMARK                         _______ _______ _______ _____ _____    ______ ____
ROOT
ATOM      1  C   UNL     1       2.509   6.351  19.822  0.00  0.00    +0.000 A 
ATOM      2  N   UNL     1       3.517   6.307  18.920  0.00  0.00    +0.000 NA
ATOM      3  C   UNL     1       4.164   5.126  18.687  0.00  0.00    +0.000 A 
ATOM      4  N   UNL     1       5.222   5.093  17.746  0.00  0.00    +0.000 N 
ATOM      5  C   UNL     1       5.255   4.136  16.739  0.00  0.00    +0.000 C 
ATOM      6  N   UNL     1       4.042   3.762  16.232  0.00  0.00    +0.000 N 
ATOM      7  O   UNL     1       6.266   3.684  16.204  0.00  0.00    +0.000 OA
ATOM      8  C   UNL     1       3.754   3.991  19.407  0.00  0.00    +0.000 A 
ATOM      9  N   UNL     1       4.183   2.677  19.454  0.00  0.00    +0.000 NA
ATOM     10  C   UNL     1       3.453   2.107  20.393  0.00  0.00    +0.000 A 
ATOM     11  N   UNL     1       2.553   2.982  20.933  0.00  0.00    +0.000 N 
ATOM     12  C   UNL     1       1.586   2.708  21.962  0.00  0.00    +0.000 C 
ATOM     13  C   UNL     1       2.732   4.187  20.320  0.00  0.00    +0.000 A 
ATOM     14  N   UNL     1       2.062   5.320  20.566  0.00  0.00    +0.000 NA
ATOM     15  H   UNL     1       3.164   3.939  16.692  0.00  0.00    +0.000 HD
ATOM     16  H   UNL     1       4.059   3.101  15.468  0.00  0.00    +0.000 HD
ENDROOT
BRANCH   4  17
ATOM     17  C   UNL     1       6.282   6.053  17.924  0.00  0.00    +0.000 A 
ATOM     18  C   UNL     1       6.401   7.183  17.097  0.00  0.00    +0.000 A 
ATOM     19  F   UNL     1       5.475   7.472  16.171  0.00  0.00    +0.000 F 
ATOM     20  C   UNL     1       7.433   8.116  17.253  0.00  0.00    +0.000 A 
ATOM     21  C   UNL     1       8.373   7.962  18.265  0.00  0.00    +0.000 A 
ATOM     22  C   UNL     1       8.278   6.864  19.111  0.00  0.00    +0.000 A 
ATOM     23  C   UNL     1       7.258   5.924  18.933  0.00  0.00    +0.000 A 
ATOM     24  F   UNL     1       7.289   4.855  19.744  0.00  0.00    +0.000 F 
ENDBRANCH   4  17
BRANCH   1  29
ATOM     25  C   UNL     1      -0.351  11.383  20.399  0.00  0.00    +0.000 C 
ATOM     26  C   UNL     1       0.399  10.094  20.246  0.00  0.00    +0.000 A 
ATOM     27  C   UNL     1       1.064   9.784  19.055  0.00  0.00    +0.000 A 
ATOM     28  C   UNL     1       1.755   8.577  18.925  0.00  0.00    +0.000 A 
ATOM     29  C   UNL     1       1.804   7.639  19.971  0.00  0.00    +0.000 A 
ATOM     30  C   UNL     1       1.133   7.973  21.164  0.00  0.00    +0.000 A 
ATOM     31  C   UNL     1       0.443   9.180  21.300  0.00  0.00    +0.000 A 
ENDBRANCH   1  29
TORSDOF 2
ENDMDL
MODEL 2
REMARK VINA RESULT:      -8.8      0.027      1.539
REMARK  Name = 
REMARK  4 active torsions:
REMARK  status: ('A' for Active; 'I' for Inactive)
REMARK    1  A    between atoms: C_1  and  C_2
REMARK    2  A    between atoms: C_5  and  C_6
REMARK    3  A    between atoms: N_9  and  C_13
REMARK    4  A    between atoms: N_24  and  C_25
REMARK                            x       y       z     vdW  Elec       q    Type
REMARK                         _______ _______ _______ _____ _____    ______ ____
ROOT
ATOM      1  C   UNL     1       2.494   6.360  19.824  0.00  0.00    +0.000 A 
ATOM      2  N   UNL     1       3.498   6.315  18.919  0.00  0.00    +0.000 NA
ATOM      3  C   UNL     1       4.141   5.132  18.684  0.00  0.00    +0.000 A 
ATOM      4  N   UNL     1       5.196   5.096  17.739  0.00  0.00    +0.000 N 
ATOM      5  C   UNL     1       5.223   4.140  16.732  0.00  0.00    +0.000 C 
ATOM      6  N   UNL     1       4.007   3.769  16.228  0.00  0.00    +0.000 N 
ATOM      7  O   UNL     1       6.231   3.685  16.193  0.00  0.00    +0.000 OA
ATOM      8  C   UNL     1       3.732   3.998  19.405  0.00  0.00    +0.000 A 
ATOM      9  N   UNL     1       4.157   2.683  19.450  0.00  0.00    +0.000 NA
ATOM     10  C   UNL     1       3.429   2.115  20.392  0.00  0.00    +0.000 A 
ATOM     11  N   UNL     1       2.534   2.991  20.935  0.00  0.00    +0.000 N 
ATOM     12  C   UNL     1       1.569   2.719  21.967  0.00  0.00    +0.000 C 
ATOM     13  C   UNL     1       2.713   4.196  20.322  0.00  0.00    +0.000 A 
ATOM     14  N   UNL     1       2.047   5.331  20.570  0.00  0.00    +0.000 NA
ATOM     15  H   UNL     1       3.131   3.948  16.691  0.00  0.00    +0.000 HD
ATOM     16  H   UNL     1       4.021   3.108  15.464  0.00  0.00    +0.000 HD
ENDROOT
BRANCH   4  17
ATOM     17  C   UNL     1       6.259   6.054  17.913  0.00  0.00    +0.000 A 
ATOM     18  C   UNL     1       7.232   5.904  18.917  0.00  0.00    +0.000 A 
ATOM     19  F   UNL     1       7.273   4.810  19.691  0.00  0.00    +0.000 F 
ATOM     20  C   UNL     1       8.261   6.834  19.103  0.00  0.00    +0.000 A 
ATOM     21  C   UNL     1       8.367   7.942  18.270  0.00  0.00    +0.000 A 
ATOM     22  C   UNL     1       7.432   8.115  17.257  0.00  0.00    +0.000 A 
ATOM     23  C   UNL     1       6.393   7.193  17.093  0.00  0.00    +0.000 A 
ATOM     24  F   UNL     1       5.490   7.481  16.142  0.00  0.00    +0.000 F 
ENDBRANCH   4  17
BRANCH   1  29
ATOM     25  C   UNL     1      -0.352  11.399  20.412  0.00  0.00    +0.000 C 
ATOM     26  C   UNL     1       0.394  10.108  20.256  0.00  0.00    +0.000 A 
ATOM     27  C   UNL     1       1.054   9.798  19.063  0.00  0.00    +0.000 A 
ATOM     28  C   UNL     1       1.742   8.589  18.930  0.00  0.00    +0.000 A 
ATOM     29  C   UNL     1       1.792   7.650  19.976  0.00  0.00    +0.000 A 
ATOM     30  C   UNL     1       1.125   7.986  21.172  0.00  0.00    +0.000 A 
ATOM     31  C   UNL     1       0.439   9.194  21.310  0.00  0.00    +0.000 A 
ENDBRANCH   1  29
TORSDOF 2
ENDMDL
MODEL 3
REMARK VINA RESULT:      -7.8      1.445      1.500
REMARK  Name = 
REMARK  4 active torsions:
REMARK  status: ('A' for Active; 'I' for Inactive)
REMARK    1  A    between atoms: C_1  and  C_2
REMARK    2  A    between atoms: C_5  and  C_6
REMARK    3  A    between atoms: N_9  and  C_13
REMARK    4  A    between atoms: N_24  and  C_25
REMARK                            x       y       z     vdW  Elec       q    Type
REMARK                         _______ _______ _______ _____ _____    ______ ____
ROOT
ATOM      1  C   UNL     1       2.512   6.388  18.411  0.00  0.00    +0.000 A 
ATOM      2  N   UNL     1       3.735   6.451  17.835  0.00  0.00    +0.000 NA
ATOM      3  C   UNL     1       4.345   5.301  17.419  0.00  0.00    +0.000 A 
ATOM      4  N   UNL     1       5.628   5.377  16.824  0.00  0.00    +0.000 N 
ATOM      5  C   UNL     1       5.893   4.751  15.613  0.00  0.00    +0.000 C 
ATOM      6  N   UNL     1       4.861   4.724  14.716  0.00  0.00    +0.000 N 
ATOM      7  O   UNL     1       6.986   4.322  15.244  0.00  0.00    +0.000 OA
ATOM      8  C   UNL     1       3.670   4.084  17.613  0.00  0.00    +0.000 A 
ATOM      9  N   UNL     1       3.981   2.762  17.354  0.00  0.00    +0.000 NA
ATOM     10  C   UNL     1       2.973   2.065  17.843  0.00  0.00    +0.000 A 
ATOM     11  N   UNL     1       2.013   2.876  18.377  0.00  0.00    +0.000 N 
ATOM     12  C   UNL     1       0.771   2.470  18.980  0.00  0.00    +0.000 C 
ATOM     13  C   UNL     1       2.440   4.164  18.243  0.00  0.00    +0.000 A 
ATOM     14  N   UNL     1       1.801   5.269  18.650  0.00  0.00    +0.000 NA
ATOM     15  H   UNL     1       3.900   4.893  14.964  0.00  0.00    +0.000 HD
ATOM     16  H   UNL     1       5.060   4.312  13.816  0.00  0.00    +0.000 HD
ENDROOT
BRANCH   4  17
ATOM     17  C   UNL     1       6.648   6.076  17.563  0.00  0.00    +0.000 A 
ATOM     18  C   UNL     1       7.014   7.397  17.250  0.00  0.00    +0.000 A 
ATOM     19  F   UNL     1       6.359   8.099  16.314  0.00  0.00    +0.000 F 
ATOM     20  C   UNL     1       8.011   8.082  17.954  0.00  0.00    +0.000 A 
ATOM     21  C   UNL     1       8.664   7.473  19.020  0.00  0.00    +0.000 A 
ATOM     22  C   UNL     1       8.318   6.173  19.368  0.00  0.00    +0.000 A 
ATOM     23  C   UNL     1       7.337   5.488  18.643  0.00  0.00    +0.000 A 
ATOM     24  F   UNL     1       7.123   4.211  18.998  0.00  0.00    +0.000 F 
ENDBRANCH   4  17
BRANCH   1  29
ATOM     25  C   UNL     1      -0.068  11.404  19.833  0.00  0.00    +0.000 C 
ATOM     26  C   UNL     1       0.608  10.119  19.458  0.00  0.00    +0.000 A 
ATOM     27  C   UNL     1       0.943   9.842  18.129  0.00  0.00    +0.000 A 
ATOM     28  C   UNL     1       1.569   8.638  17.795  0.00  0.00    +0.000 A 
ATOM     29  C   UNL     1       1.878   7.672  18.769  0.00  0.00    +0.000 A 
ATOM     30  C   UNL     1       1.538   7.975  20.103  0.00  0.00    +0.000 A 
ATOM     31  C   UNL     1       0.915   9.178  20.442  0.00  0.00    +0.000 A 
ENDBRANCH   1  29
TORSDOF 2
ENDMDL
MODEL 4
REMARK VINA RESULT:      -7.8      1.447      2.105
REMARK  Name = 
REMARK  4 active torsions:
REMARK  status: ('A' for Active; 'I' for Inactive)
REMARK    1  A    between atoms: C_1  and  C_2
REMARK    2  A    between atoms: C_5  and  C_6
REMARK    3  A    between atoms: N_9  and  C_13
REMARK    4  A    between atoms: N_24  and  C_25
REMARK                            x       y       z     vdW  Elec       q    Type
REMARK                         _______ _______ _______ _____ _____    ______ ____
ROOT
ATOM      1  C   UNL     1       2.513   6.392  18.415  0.00  0.00    +0.000 A 
ATOM      2  N   UNL     1       3.736   6.455  17.840  0.00  0.00    +0.000 NA
ATOM      3  C   UNL     1       4.346   5.306  17.420  0.00  0.00    +0.000 A 
ATOM      4  N   UNL     1       5.629   5.383  16.825  0.00  0.00    +0.000 N 
ATOM      5  C   UNL     1       5.893   4.760  15.612  0.00  0.00    +0.000 C 
ATOM      6  N   UNL     1       4.860   4.735  14.716  0.00  0.00    +0.000 N 
ATOM      7  O   UNL     1       6.985   4.331  15.242  0.00  0.00    +0.000 OA
ATOM      8  C   UNL     1       3.671   4.088  17.612  0.00  0.00    +0.000 A 
ATOM      9  N   UNL     1       3.981   2.767  17.350  0.00  0.00    +0.000 NA
ATOM     10  C   UNL     1       2.973   2.070  17.838  0.00  0.00    +0.000 A 
ATOM     11  N   UNL     1       2.014   2.879  18.375  0.00  0.00    +0.000 N 
ATOM     12  C   UNL     1       0.771   2.473  18.977  0.00  0.00    +0.000 C 
ATOM     13  C   UNL     1       2.441   4.168  18.243  0.00  0.00    +0.000 A 
ATOM     14  N   UNL     1       1.803   5.272  18.653  0.00  0.00    +0.000 NA
ATOM     15  H   UNL     1       3.899   4.903  14.965  0.00  0.00    +0.000 HD
ATOM     16  H   UNL     1       5.059   4.324  13.815  0.00  0.00    +0.000 HD
ENDROOT
BRANCH   4  17
ATOM     17  C   UNL     1       6.649   6.080  17.565  0.00  0.00    +0.000 A 
ATOM     18  C   UNL     1       7.334   5.473  18.632  0.00  0.00    +0.000 A 
ATOM     19  F   UNL     1       7.140   4.183  18.942  0.00  0.00    +0.000 F 
ATOM     20  C   UNL     1       8.319   6.145  19.366  0.00  0.00    +0.000 A 
ATOM     21  C   UNL     1       8.671   7.450  19.040  0.00  0.00    +0.000 A 
ATOM     22  C   UNL     1       8.024   8.078  17.982  0.00  0.00    +0.000 A 
ATOM     23  C   UNL     1       7.025   7.406  17.269  0.00  0.00    +0.000 A 
ATOM     24  F   UNL     1       6.400   8.115  16.316  0.00  0.00    +0.000 F 
ENDBRANCH   4  17
BRANCH   1  29
ATOM     25  C   UNL     1      -0.065  11.405  19.848  0.00  0.00    +0.000 C 
ATOM     26  C   UNL     1       0.610  10.121  19.472  0.00  0.00    +0.000 A 
ATOM     27  C   UNL     1       0.950   9.848  18.142  0.00  0.00    +0.000 A 
ATOM     28  C   UNL     1       1.575   8.645  17.806  0.00  0.00    +0.000 A 
ATOM     29  C   UNL     1       1.880   7.675  18.777  0.00  0.00    +0.000 A 
ATOM     30  C   UNL     1       1.535   7.973  20.111  0.00  0.00    +0.000 A 
ATOM     31  C   UNL     1       0.913   9.175  20.453  0.00  0.00    +0.000 A 
ENDBRANCH   1  29
TORSDOF 2
ENDMDL
MODEL 5
REMARK VINA RESULT:      -7.7      8.236     12.629
REMARK  Name = 
REMARK  4 active torsions:
REMARK  status: ('A' for Active; 'I' for Inactive)
REMARK    1  A    between atoms: C_1  and  C_2
REMARK    2  A    between atoms: C_5  and  C_6
REMARK    3  A    between atoms: N_9  and  C_13
REMARK    4  A    between atoms: N_24  and  C_25
REMARK                            x       y       z     vdW  Elec       q    Type
REMARK                         _______ _______ _______ _____ _____    ______ ____
ROOT
ATOM      1  C   UNL     1      -2.223  12.472  22.466  0.00  0.00    +0.000 A 
ATOM      2  N   UNL     1      -3.317  12.605  21.681  0.00  0.00    +0.000 NA
ATOM      3  C   UNL     1      -4.175  13.649  21.890  0.00  0.00    +0.000 A 
ATOM      4  N   UNL     1      -5.321  13.775  21.067  0.00  0.00    +0.000 N 
ATOM      5  C   UNL     1      -5.624  14.978  20.443  0.00  0.00    +0.000 C 
ATOM      6  N   UNL     1      -4.555  15.724  20.032  0.00  0.00    +0.000 N 
ATOM      7  O   UNL     1      -6.750  15.373  20.141  0.00  0.00    +0.000 OA
ATOM      8  C   UNL     1      -3.884  14.549  22.928  0.00  0.00    +0.000 A 
ATOM      9  N   UNL     1      -4.518  15.669  23.434  0.00  0.00    +0.000 NA
ATOM     10  C   UNL     1      -3.795  16.038  24.474  0.00  0.00    +0.000 A 
ATOM     11  N   UNL     1      -2.708  15.230  24.644  0.00  0.00    +0.000 N 
ATOM     12  C   UNL     1      -1.692  15.342  25.657  0.00  0.00    +0.000 C 
ATOM     13  C   UNL     1      -2.748  14.274  23.672  0.00  0.00    +0.000 A 
ATOM     14  N   UNL     1      -1.875  13.275  23.490  0.00  0.00    +0.000 NA
ATOM     15  H   UNL     1      -3.614  15.584  20.363  0.00  0.00    +0.000 HD
ATOM     16  H   UNL     1      -4.767  16.578  19.536  0.00  0.00    +0.000 HD
ENDROOT
BRANCH   4  17
ATOM     17  C   UNL     1      -6.178  12.622  20.964  0.00  0.00    +0.000 A 
ATOM     18  C   UNL     1      -7.087  12.283  21.982  0.00  0.00    +0.000 A 
ATOM     19  F   UNL     1      -7.269  13.076  23.047  0.00  0.00    +0.000 F 
ATOM     20  C   UNL     1      -7.916  11.158  21.897  0.00  0.00    +0.000 A 
ATOM     21  C   UNL     1      -7.881  10.341  20.773  0.00  0.00    +0.000 A 
ATOM     22  C   UNL     1      -7.005  10.653  19.741  0.00  0.00    +0.000 A 
ATOM     23  C   UNL     1      -6.163  11.766  19.844  0.00  0.00    +0.000 A 
ATOM     24  F   UNL     1      -5.294  11.947  18.837  0.00  0.00    +0.000 F 
ENDBRANCH   4  17
BRANCH   1  29
ATOM     25  C   UNL     1       1.346   8.076  21.135  0.00  0.00    +0.000 C 
ATOM     26  C   UNL     1       0.435   9.212  21.490  0.00  0.00    +0.000 A 
ATOM     27  C   UNL     1      -0.077   9.347  22.784  0.00  0.00    +0.000 A 
ATOM     28  C   UNL     1      -0.929  10.410  23.099  0.00  0.00    +0.000 A 
ATOM     29  C   UNL     1      -1.300  11.367  22.139  0.00  0.00    +0.000 A 
ATOM     30  C   UNL     1      -0.766  11.216  20.843  0.00  0.00    +0.000 A 
ATOM     31  C   UNL     1       0.087  10.158  20.524  0.00  0.00    +0.000 A 
ENDBRANCH   1  29
TORSDOF 2
ENDMDL
MODEL 6
REMARK VINA RESULT:      -7.7      8.306     12.666
REMARK  Name = 
REMARK  4 active torsions:
REMARK  status: ('A' for Active; 'I' for Inactive)
REMARK    1  A    between atoms: C_1  and  C_2
REMARK    2  A    between atoms: C_5  and  C_6
REMARK    3  A    between atoms: N_9  and  C_13
REMARK    4  A    between atoms: N_24  and  C_25
REMARK                            x       y       z     vdW  Elec       q    Type
REMARK                         _______ _______ _______ _____ _____    ______ ____
ROOT
ATOM      1  C   UNL     1      -2.285  12.548  22.505  0.00  0.00    +0.000 A 
ATOM      2  N   UNL     1      -3.380  12.679  21.721  0.00  0.00    +0.000 NA
ATOM      3  C   UNL     1      -4.245  13.715  21.936  0.00  0.00    +0.000 A 
ATOM      4  N   UNL     1      -5.391  13.839  21.113  0.00  0.00    +0.000 N 
ATOM      5  C   UNL     1      -5.702  15.044  20.497  0.00  0.00    +0.000 C 
ATOM      6  N   UNL     1      -4.638  15.800  20.091  0.00  0.00    +0.000 N 
ATOM      7  O   UNL     1      -6.830  15.433  20.196  0.00  0.00    +0.000 OA
ATOM      8  C   UNL     1      -3.961  14.611  22.980  0.00  0.00    +0.000 A 
ATOM      9  N   UNL     1      -4.604  15.722  23.494  0.00  0.00    +0.000 NA
ATOM     10  C   UNL     1      -3.884  16.089  24.536  0.00  0.00    +0.000 A 
ATOM     11  N   UNL     1      -2.791  15.287  24.702  0.00  0.00    +0.000 N 
ATOM     12  C   UNL     1      -1.777  15.400  25.717  0.00  0.00    +0.000 C 
ATOM     13  C   UNL     1      -2.824  14.338  23.723  0.00  0.00    +0.000 A 
ATOM     14  N   UNL     1      -1.944  13.347  23.535  0.00  0.00    +0.000 NA
ATOM     15  H   UNL     1      -3.696  15.664  20.422  0.00  0.00    +0.000 HD
ATOM     16  H   UNL     1      -4.856  16.656  19.601  0.00  0.00    +0.000 HD
ENDROOT
BRANCH   4  17
ATOM     17  C   UNL     1      -6.240  12.680  21.001  0.00  0.00    +0.000 A 
ATOM     18  C   UNL     1      -6.254  11.884  19.843  0.00  0.00    +0.000 A 
ATOM     19  F   UNL     1      -5.405  12.109  18.830  0.00  0.00    +0.000 F 
ATOM     20  C   UNL     1      -7.084  10.763  19.718  0.00  0.00    +0.000 A 
ATOM     21  C   UNL     1      -7.915  10.383  20.766  0.00  0.00    +0.000 A 
ATOM     22  C   UNL     1      -7.916  11.138  21.932  0.00  0.00    +0.000 A 
ATOM     23  C   UNL     1      -7.102  12.271  22.039  0.00  0.00    +0.000 A 
ATOM     24  F   UNL     1      -7.226  12.985  23.169  0.00  0.00    +0.000 F 
ENDBRANCH   4  17
BRANCH   1  29
ATOM     25  C   UNL     1       1.317   8.186  21.148  0.00  0.00    +0.000 C 
ATOM     26  C   UNL     1       0.397   9.314  21.510  0.00  0.00    +0.000 A 
ATOM     27  C   UNL     1      -0.117   9.437  22.805  0.00  0.00    +0.000 A 
ATOM     28  C   UNL     1      -0.976  10.491  23.126  0.00  0.00    +0.000 A 
ATOM     29  C   UNL     1      -1.354  11.452  22.172  0.00  0.00    +0.000 A 
ATOM     30  C   UNL     1      -0.819  11.313  20.875  0.00  0.00    +0.000 A 
ATOM     31  C   UNL     1       0.042  10.263  20.550  0.00  0.00    +0.000 A 
ENDBRANCH   1  29
TORSDOF 2
ENDMDL
MODEL 7
REMARK VINA RESULT:      -7.3      6.706     10.288
REMARK  Name = 
REMARK  4 active torsions:
REMARK  status: ('A' for Active; 'I' for Inactive)
REMARK    1  A    between atoms: C_1  and  C_2
REMARK    2  A    between atoms: C_5  and  C_6
REMARK    3  A    between atoms: N_9  and  C_13
REMARK    4  A    between atoms: N_24  and  C_25
REMARK                            x       y       z     vdW  Elec       q    Type
REMARK                         _______ _______ _______ _____ _____    ______ ____
ROOT
ATOM      1  C   UNL     1      -1.617  10.663  19.260  0.00  0.00    +0.000 A 
ATOM      2  N   UNL     1      -1.892  11.767  19.993  0.00  0.00    +0.000 NA
ATOM      3  C   UNL     1      -1.307  11.928  21.218  0.00  0.00    +0.000 A 
ATOM      4  N   UNL     1      -1.607  13.084  21.979  0.00  0.00    +0.000 N 
ATOM      5  C   UNL     1      -0.596  13.863  22.525  0.00  0.00    +0.000 C 
ATOM      6  N   UNL     1       0.548  13.962  21.783  0.00  0.00    +0.000 N 
ATOM      7  O   UNL     1      -0.678  14.543  23.547  0.00  0.00    +0.000 OA
ATOM      8  C   UNL     1      -0.438  10.924  21.675  0.00  0.00    +0.000 A 
ATOM      9  N   UNL     1       0.287  10.737  22.838  0.00  0.00    +0.000 NA
ATOM     10  C   UNL     1       0.850   9.551  22.711  0.00  0.00    +0.000 A 
ATOM     11  N   UNL     1       0.549   8.977  21.509  0.00  0.00    +0.000 N 
ATOM     12  C   UNL     1       1.000   7.701  21.019  0.00  0.00    +0.000 C 
ATOM     13  C   UNL     1      -0.273   9.834  20.837  0.00  0.00    +0.000 A 
ATOM     14  N   UNL     1      -0.811   9.646  19.626  0.00  0.00    +0.000 NA
ATOM     15  H   UNL     1       0.785  13.335  21.031  0.00  0.00    +0.000 HD
ATOM     16  H   UNL     1       1.272  14.564  22.151  0.00  0.00    +0.000 HD
ENDROOT
BRANCH   4  17
ATOM     17  C   UNL     1      -3.001  13.370  22.205  0.00  0.00    +0.000 A 
ATOM     18  C   UNL     1      -3.761  12.648  23.141  0.00  0.00    +0.000 A 
ATOM     19  F   UNL     1      -3.198  11.728  23.937  0.00  0.00    +0.000 F 
ATOM     20  C   UNL     1      -5.119  12.909  23.361  0.00  0.00    +0.000 A 
ATOM     21  C   UNL     1      -5.761  13.927  22.665  0.00  0.00    +0.000 A 
ATOM     22  C   UNL     1      -5.037  14.672  21.742  0.00  0.00    +0.000 A 
ATOM     23  C   UNL     1      -3.687  14.388  21.512  0.00  0.00    +0.000 A 
ATOM     24  F   UNL     1      -3.087  15.104  20.547  0.00  0.00    +0.000 F 
ENDBRANCH   4  17
BRANCH   1  29
ATOM     25  C   UNL     1      -4.069  10.314  13.997  0.00  0.00    +0.000 C 
ATOM     26  C   UNL     1      -3.423  10.406  15.347  0.00  0.00    +0.000 A 
ATOM     27  C   UNL     1      -2.300   9.635  15.663  0.00  0.00    +0.000 A 
ATOM     28  C   UNL     1      -1.711   9.729  16.927  0.00  0.00    +0.000 A 
ATOM     29  C   UNL     1      -2.221  10.587  17.916  0.00  0.00    +0.000 A 
ATOM     30  C   UNL     1      -3.349  11.360  17.575  0.00  0.00    +0.000 A 
ATOM     31  C   UNL     1      -3.940  11.272  16.312  0.00  0.00    +0.000 A 
ENDBRANCH   1  29
TORSDOF 2
ENDMDL
MODEL 8
REMARK VINA RESULT:      -7.3      6.675     10.154
REMARK  Name = 
REMARK  4 active torsions:
REMARK  status: ('A' for Active; 'I' for Inactive)
REMARK    1  A    between atoms: C_1  and  C_2
REMARK    2  A    between atoms: C_5  and  C_6
REMARK    3  A    between atoms: N_9  and  C_13
REMARK    4  A    between atoms: N_24  and  C_25
REMARK                            x       y       z     vdW  Elec       q    Type
REMARK                         _______ _______ _______ _____ _____    ______ ____
ROOT
ATOM      1  C   UNL     1      -1.605  10.648  19.238  0.00  0.00    +0.000 A 
ATOM      2  N   UNL     1      -1.871  11.754  19.969  0.00  0.00    +0.000 NA
ATOM      3  C   UNL     1      -1.278  11.915  21.190  0.00  0.00    +0.000 A 
ATOM      4  N   UNL     1      -1.569  13.074  21.951  0.00  0.00    +0.000 N 
ATOM      5  C   UNL     1      -0.550  13.850  22.490  0.00  0.00    +0.000 C 
ATOM      6  N   UNL     1       0.589  13.943  21.740  0.00  0.00    +0.000 N 
ATOM      7  O   UNL     1      -0.623  14.532  23.511  0.00  0.00    +0.000 OA
ATOM      8  C   UNL     1      -0.410  10.908  21.645  0.00  0.00    +0.000 A 
ATOM      9  N   UNL     1       0.321  10.721  22.803  0.00  0.00    +0.000 NA
ATOM     10  C   UNL     1       0.879   9.532  22.675  0.00  0.00    +0.000 A 
ATOM     11  N   UNL     1       0.567   8.957  21.476  0.00  0.00    +0.000 N 
ATOM     12  C   UNL     1       1.010   7.679  20.985  0.00  0.00    +0.000 C 
ATOM     13  C   UNL     1      -0.254   9.816  20.807  0.00  0.00    +0.000 A 
ATOM     14  N   UNL     1      -0.801   9.628  19.600  0.00  0.00    +0.000 NA
ATOM     15  H   UNL     1       0.818  13.313  20.989  0.00  0.00    +0.000 HD
ATOM     16  H   UNL     1       1.317  14.542  22.103  0.00  0.00    +0.000 HD
ENDROOT
BRANCH   4  17
ATOM     17  C   UNL     1      -2.960  13.366  22.186  0.00  0.00    +0.000 A 
ATOM     18  C   UNL     1      -3.627  14.391  21.492  0.00  0.00    +0.000 A 
ATOM     19  F   UNL     1      -3.025  15.074  20.508  0.00  0.00    +0.000 F 
ATOM     20  C   UNL     1      -4.975  14.692  21.721  0.00  0.00    +0.000 A 
ATOM     21  C   UNL     1      -5.714  13.956  22.640  0.00  0.00    +0.000 A 
ATOM     22  C   UNL     1      -5.091  12.926  23.334  0.00  0.00    +0.000 A 
ATOM     23  C   UNL     1      -3.737  12.648  23.117  0.00  0.00    +0.000 A 
ATOM     24  F   UNL     1      -3.198  11.689  23.887  0.00  0.00    +0.000 F 
ENDBRANCH   4  17
BRANCH   1  29
ATOM     25  C   UNL     1      -4.091  10.299  13.990  0.00  0.00    +0.000 C 
ATOM     26  C   UNL     1      -3.436  10.391  15.336  0.00  0.00    +0.000 A 
ATOM     27  C   UNL     1      -2.311   9.620  15.644  0.00  0.00    +0.000 A 
ATOM     28  C   UNL     1      -1.714   9.714  16.904  0.00  0.00    +0.000 A 
ATOM     29  C   UNL     1      -2.218  10.572  17.897  0.00  0.00    +0.000 A 
ATOM     30  C   UNL     1      -3.348  11.345  17.563  0.00  0.00    +0.000 A 
ATOM     31  C   UNL     1      -3.947  11.257  16.305  0.00  0.00    +0.000 A 
ENDBRANCH   1  29
TORSDOF 2
ENDMDL
MODEL 9
REMARK VINA RESULT:      -7.3      5.848      9.104
REMARK  Name = 
REMARK  4 active torsions:
REMARK  status: ('A' for Active; 'I' for Inactive)
REMARK    1  A    between atoms: C_1  and  C_2
REMARK    2  A    between atoms: C_5  and  C_6
REMARK    3  A    between atoms: N_9  and  C_13
REMARK    4  A    between atoms: N_24  and  C_25
REMARK                            x       y       z     vdW  Elec       q    Type
REMARK                         _______ _______ _______ _____ _____    ______ ____
ROOT
ATOM      1  C   UNL     1       1.602  14.033  19.626  0.00  0.00    +0.000 A 
ATOM      2  N   UNL     1       1.227  12.807  19.192  0.00  0.00    +0.000 NA
ATOM      3  C   UNL     1      -0.074  12.412  19.327  0.00  0.00    +0.000 A 
ATOM      4  N   UNL     1      -0.455  11.124  18.876  0.00  0.00    +0.000 N 
ATOM      5  C   UNL     1      -1.553  10.952  18.043  0.00  0.00    +0.000 C 
ATOM      6  N   UNL     1      -1.776  11.952  17.137  0.00  0.00    +0.000 N 
ATOM      7  O   UNL     1      -2.264   9.951  17.981  0.00  0.00    +0.000 OA
ATOM      8  C   UNL     1      -0.981  13.304  19.922  0.00  0.00    +0.000 A 
ATOM      9  N   UNL     1      -2.325  13.239  20.239  0.00  0.00    +0.000 NA
ATOM     10  C   UNL     1      -2.590  14.369  20.865  0.00  0.00    +0.000 A 
ATOM     11  N   UNL     1      -1.490  15.174  20.940  0.00  0.00    +0.000 N 
ATOM     12  C   UNL     1      -1.409  16.483  21.532  0.00  0.00    +0.000 C 
ATOM     13  C   UNL     1      -0.454  14.513  20.348  0.00  0.00    +0.000 A 
ATOM     14  N   UNL     1       0.807  14.944  20.220  0.00  0.00    +0.000 NA
ATOM     15  H   UNL     1      -1.369  12.870  17.204  0.00  0.00    +0.000 HD
ATOM     16  H   UNL     1      -2.546  11.813  16.497  0.00  0.00    +0.000 HD
ENDROOT
BRANCH   4  17
ATOM     17  C   UNL     1       0.312  10.009  19.371  0.00  0.00    +0.000 A 
ATOM     18  C   UNL     1       0.162   9.535  20.686  0.00  0.00    +0.000 A 
ATOM     19  F   UNL     1      -0.773  10.036  21.506  0.00  0.00    +0.000 F 
ATOM     20  C   UNL     1       0.910   8.461  21.182  0.00  0.00    +0.000 A 
ATOM     21  C   UNL     1       1.822   7.802  20.364  0.00  0.00    +0.000 A 
ATOM     22  C   UNL     1       1.986   8.233  19.054  0.00  0.00    +0.000 A 
ATOM     23  C   UNL     1       1.251   9.323  18.574  0.00  0.00    +0.000 A 
ATOM     24  F   UNL     1       1.531   9.720  17.323  0.00  0.00    +0.000 F 
ENDBRANCH   4  17
BRANCH   1  29
ATOM     25  C   UNL     1       7.105  15.668  18.688  0.00  0.00    +0.000 C 
ATOM     26  C   UNL     1       5.689  15.234  18.920  0.00  0.00    +0.000 A 
ATOM     27  C   UNL     1       4.846  14.920  17.849  0.00  0.00    +0.000 A 
ATOM     28  C   UNL     1       3.527  14.521  18.082  0.00  0.00    +0.000 A 
ATOM     29  C   UNL     1       3.004  14.425  19.383  0.00  0.00    +0.000 A 
ATOM     30  C   UNL     1       3.872  14.740  20.448  0.00  0.00    +0.000 A 
ATOM     31  C   UNL     1       5.192  15.136  20.221  0.00  0.00    +0.000 A 
ENDBRANCH   1  29
TORSDOF 2
ENDMDL
