MODEL 1
REMARK VINA RESULT:      -7.8      0.000      0.000
REMARK  Name = 
REMARK  8 active torsions:
REMARK  status: ('A' for Active; 'I' for Inactive)
REMARK    1  A    between atoms: N_1  and  C_2
REMARK    2  A    between atoms: C_2  and  C_3
REMARK    3  A    between atoms: C_2  and  C_25
REMARK    4  A    between atoms: C_3  and  N_4
REMARK    5  A    between atoms: N_4  and  C_5
REMARK    6  A    between atoms: C_7  and  C_8
REMARK    7  A    between atoms: C_16  and  C_17
REMARK    8  A    between atoms: C_25  and  C_26
REMARK                            x       y       z     vdW  Elec       q    Type
REMARK                         _______ _______ _______ _____ _____    ______ ____
ROOT
ATOM      1  C   UNL     1      -0.712  10.630  18.363  0.00  0.00    +0.000 A 
ATOM      2  N   UNL     1      -0.628  11.345  19.497  0.00  0.00    +0.000 NA
ATOM      3  C   UNL     1      -1.710  12.007  19.944  0.00  0.00    +0.000 A 
ATOM      4  N   UNL     1      -2.908  12.070  19.343  0.00  0.00    +0.000 NA
ATOM      5  C   UNL     1      -2.992  11.371  18.179  0.00  0.00    +0.000 A 
ATOM      6  C   UNL     1      -4.138  11.294  17.319  0.00  0.00    +0.000 A 
ATOM      7  C   UNL     1      -3.925  10.466  16.239  0.00  0.00    +0.000 A 
ATOM      8  S   UNL     1      -2.345   9.829  16.215  0.00  0.00    +0.000 S 
ATOM      9  C   UNL     1      -1.929  10.634  17.678  0.00  0.00    +0.000 A 
ENDROOT
BRANCH   3  10
ATOM     10  C   UNL     1      -1.558  12.727  21.216  0.00  0.00    +0.000 A 
ATOM     11  C   UNL     1      -2.439  12.503  22.285  0.00  0.00    +0.000 A 
ATOM     12  C   UNL     1      -2.255  13.197  23.469  0.00  0.00    +0.000 A 
ATOM     13  N   UNL     1      -1.274  14.102  23.662  0.00  0.00    +0.000 NA
ATOM     14  C   UNL     1      -0.443  14.323  22.625  0.00  0.00    +0.000 A 
ATOM     15  C   UNL     1      -0.541  13.670  21.407  0.00  0.00    +0.000 A 
ENDBRANCH   3  10
BRANCH   6  16
ATOM     16  C   UNL     1      -5.424  12.022  17.523  0.00  0.00    +0.000 A 
ATOM     17  C   UNL     1      -6.496  11.643  18.299  0.00  0.00    +0.000 A 
ATOM     18  C   UNL     1      -7.492  12.641  18.166  0.00  0.00    +0.000 A 
ATOM     19  C   UNL     1      -7.001  13.599  17.307  0.00  0.00    +0.000 A 
ATOM     20  N   UNL     1      -5.741  13.218  16.926  0.00  0.00    +0.000 N 
ATOM     21  H   UNL     1      -5.132  13.715  16.285  0.00  0.00    +0.000 HD
ENDBRANCH   6  16
BRANCH   1  22
ATOM     22  N   UNL     1       0.385   9.943  17.867  0.00  0.00    +0.000 N 
ATOM     23  H   UNL     1       0.103   9.274  17.156  0.00  0.00    +0.000 HD
BRANCH  22  24
ATOM     24  C   UNL     1       1.296   9.356  18.846  0.00  0.00    +0.000 C 
BRANCH  24  25
ATOM     25  C   UNL     1       1.941   8.087  18.231  0.00  0.00    +0.000 C 
BRANCH  25  26
ATOM     26  N   UNL     1       2.989   8.496  17.257  0.00  0.00    +0.000 NA
ATOM     27  H   UNL     1       2.694   8.233  16.318  0.00  0.00    +0.000 HD
ATOM     28  H   UNL     1       3.835   7.955  17.437  0.00  0.00    +0.000 HD
ENDBRANCH  25  26
BRANCH  25  29
ATOM     29  C   UNL     1       2.555   7.146  19.302  0.00  0.00    +0.000 C 
BRANCH  29  30
ATOM     30  C   UNL     1       2.022   5.733  19.269  0.00  0.00    +0.000 A 
ATOM     31  C   UNL     1       1.563   5.124  20.444  0.00  0.00    +0.000 A 
ATOM     32  C   UNL     1       1.133   3.796  20.431  0.00  0.00    +0.000 A 
ATOM     33  C   UNL     1       1.166   3.060  19.248  0.00  0.00    +0.000 A 
ATOM     34  C   UNL     1       1.592   3.663  18.068  0.00  0.00    +0.000 A 
ATOM     35  C   UNL     1       2.005   4.997  18.075  0.00  0.00    +0.000 A 
ENDBRANCH  29  30
ENDBRANCH  25  29
ENDBRANCH  24  25
ENDBRANCH  22  24
ENDBRANCH   1  22
TORSDOF 8
ENDMDL
MODEL 2
REMARK VINA RESULT:      -7.7      4.219      6.805
REMARK  Name = 
REMARK  8 active torsions:
REMARK  status: ('A' for Active; 'I' for Inactive)
REMARK    1  A    between atoms: N_1  and  C_2
REMARK    2  A    between atoms: C_2  and  C_3
REMARK    3  A    between atoms: C_2  and  C_25
REMARK    4  A    between atoms: C_3  and  N_4
REMARK    5  A    between atoms: N_4  and  C_5
REMARK    6  A    between atoms: C_7  and  C_8
REMARK    7  A    between atoms: C_16  and  C_17
REMARK    8  A    between atoms: C_25  and  C_26
REMARK                            x       y       z     vdW  Elec       q    Type
REMARK                         _______ _______ _______ _____ _____    ______ ____
ROOT
ATOM      1  C   UNL     1       2.796   7.512  18.010  0.00  0.00    +0.000 A 
ATOM      2  N   UNL     1       2.654   6.356  18.679  0.00  0.00    +0.000 NA
ATOM      3  C   UNL     1       1.904   6.325  19.795  0.00  0.00    +0.000 A 
ATOM      4  N   UNL     1       1.281   7.369  20.364  0.00  0.00    +0.000 NA
ATOM      5  C   UNL     1       1.445   8.549  19.708  0.00  0.00    +0.000 A 
ATOM      6  C   UNL     1       0.922   9.822  20.112  0.00  0.00    +0.000 A 
ATOM      7  C   UNL     1       1.218  10.820  19.209  0.00  0.00    +0.000 A 
ATOM      8  S   UNL     1       2.170  10.255  17.913  0.00  0.00    +0.000 S 
ATOM      9  C   UNL     1       2.173   8.649  18.531  0.00  0.00    +0.000 A 
ENDROOT
BRANCH   3  10
ATOM     10  C   UNL     1       1.752   5.016  20.445  0.00  0.00    +0.000 A 
ATOM     11  C   UNL     1       2.602   4.624  21.490  0.00  0.00    +0.000 A 
ATOM     12  C   UNL     1       2.419   3.384  22.080  0.00  0.00    +0.000 A 
ATOM     13  N   UNL     1       1.469   2.506  21.700  0.00  0.00    +0.000 NA
ATOM     14  C   UNL     1       0.668   2.885  20.684  0.00  0.00    +0.000 A 
ATOM     15  C   UNL     1       0.766   4.107  20.040  0.00  0.00    +0.000 A 
ENDBRANCH   3  10
BRANCH   6  16
ATOM     16  C   UNL     1       0.155  10.084  21.364  0.00  0.00    +0.000 A 
ATOM     17  C   UNL     1      -0.637  11.171  21.659  0.00  0.00    +0.000 A 
ATOM     18  C   UNL     1      -1.142  10.988  22.969  0.00  0.00    +0.000 A 
ATOM     19  C   UNL     1      -0.639   9.795  23.439  0.00  0.00    +0.000 A 
ATOM     20  N   UNL     1       0.143   9.249  22.455  0.00  0.00    +0.000 N 
ATOM     21  H   UNL     1       0.660   8.379  22.513  0.00  0.00    +0.000 HD
ENDBRANCH   6  16
BRANCH   1  22
ATOM     22  N   UNL     1       3.569   7.584  16.861  0.00  0.00    +0.000 N 
ATOM     23  H   UNL     1       3.149   7.048  16.107  0.00  0.00    +0.000 HD
BRANCH  22  24
ATOM     24  C   UNL     1       4.996   7.310  17.006  0.00  0.00    +0.000 C 
BRANCH  24  25
ATOM     25  C   UNL     1       5.285   5.876  16.489  0.00  0.00    +0.000 C 
BRANCH  25  26
ATOM     26  N   UNL     1       6.355   5.937  15.457  0.00  0.00    +0.000 NA
ATOM     27  H   UNL     1       7.224   6.242  15.894  0.00  0.00    +0.000 HD
ATOM     28  H   UNL     1       6.120   6.665  14.783  0.00  0.00    +0.000 HD
ENDBRANCH  25  26
BRANCH  25  29
ATOM     29  C   UNL     1       5.699   4.901  17.622  0.00  0.00    +0.000 C 
BRANCH  29  30
ATOM     30  C   UNL     1       4.695   3.807  17.901  0.00  0.00    +0.000 A 
ATOM     31  C   UNL     1       4.860   2.962  19.006  0.00  0.00    +0.000 A 
ATOM     32  C   UNL     1       3.973   1.907  19.228  0.00  0.00    +0.000 A 
ATOM     33  C   UNL     1       2.918   1.680  18.345  0.00  0.00    +0.000 A 
ATOM     34  C   UNL     1       2.726   2.531  17.261  0.00  0.00    +0.000 A 
ATOM     35  C   UNL     1       3.602   3.598  17.047  0.00  0.00    +0.000 A 
ENDBRANCH  29  30
ENDBRANCH  25  29
ENDBRANCH  24  25
ENDBRANCH  22  24
ENDBRANCH   1  22
TORSDOF 8
ENDMDL
MODEL 3
REMARK VINA RESULT:      -7.7      4.494      8.053
REMARK  Name = 
REMARK  8 active torsions:
REMARK  status: ('A' for Active; 'I' for Inactive)
REMARK    1  A    between atoms: N_1  and  C_2
REMARK    2  A    between atoms: C_2  and  C_3
REMARK    3  A    between atoms: C_2  and  C_25
REMARK    4  A    between atoms: C_3  and  N_4
REMARK    5  A    between atoms: N_4  and  C_5
REMARK    6  A    between atoms: C_7  and  C_8
REMARK    7  A    between atoms: C_16  and  C_17
REMARK    8  A    between atoms: C_25  and  C_26
REMARK                            x       y       z     vdW  Elec       q    Type
REMARK                         _______ _______ _______ _____ _____    ______ ____
ROOT
ATOM      1  C   UNL     1       3.360   6.859  17.811  0.00  0.00    +0.000 A 
ATOM      2  N   UNL     1       3.287   5.734  18.542  0.00  0.00    +0.000 NA
ATOM      3  C   UNL     1       2.553   5.725  19.669  0.00  0.00    +0.000 A 
ATOM      4  N   UNL     1       1.883   6.763  20.191  0.00  0.00    +0.000 NA
ATOM      5  C   UNL     1       1.975   7.913  19.470  0.00  0.00    +0.000 A 
ATOM      6  C   UNL     1       1.390   9.177  19.814  0.00  0.00    +0.000 A 
ATOM      7  C   UNL     1       1.622  10.139  18.855  0.00  0.00    +0.000 A 
ATOM      8  S   UNL     1       2.588   9.556  17.578  0.00  0.00    +0.000 S 
ATOM      9  C   UNL     1       2.683   7.988  18.279  0.00  0.00    +0.000 A 
ENDROOT
BRANCH   3  10
ATOM     10  C   UNL     1       2.479   4.446  20.390  0.00  0.00    +0.000 A 
ATOM     11  C   UNL     1       3.578   3.575  20.435  0.00  0.00    +0.000 A 
ATOM     12  C   UNL     1       3.467   2.383  21.132  0.00  0.00    +0.000 A 
ATOM     13  N   UNL     1       2.347   1.991  21.772  0.00  0.00    +0.000 NA
ATOM     14  C   UNL     1       1.291   2.827  21.710  0.00  0.00    +0.000 A 
ATOM     15  C   UNL     1       1.310   4.043  21.047  0.00  0.00    +0.000 A 
ENDBRANCH   3  10
BRANCH   6  16
ATOM     16  C   UNL     1       0.625   9.465  21.062  0.00  0.00    +0.000 A 
ATOM     17  C   UNL     1      -0.461  10.298  21.214  0.00  0.00    +0.000 A 
ATOM     18  C   UNL     1      -0.834  10.266  22.580  0.00  0.00    +0.000 A 
ATOM     19  C   UNL     1       0.039   9.418  23.224  0.00  0.00    +0.000 A 
ATOM     20  N   UNL     1       0.919   8.930  22.292  0.00  0.00    +0.000 N 
ATOM     21  H   UNL     1       1.687   8.293  22.468  0.00  0.00    +0.000 HD
ENDBRANCH   6  16
BRANCH   1  22
ATOM     22  N   UNL     1       4.115   6.910  16.648  0.00  0.00    +0.000 N 
ATOM     23  H   UNL     1       3.842   6.171  16.006  0.00  0.00    +0.000 HD
BRANCH  22  24
ATOM     24  C   UNL     1       5.563   6.998  16.804  0.00  0.00    +0.000 C 
BRANCH  24  25
ATOM     25  C   UNL     1       6.170   5.577  16.661  0.00  0.00    +0.000 C 
BRANCH  25  26
ATOM     26  N   UNL     1       6.279   4.957  18.009  0.00  0.00    +0.000 NA
ATOM     27  H   UNL     1       6.811   5.575  18.620  0.00  0.00    +0.000 HD
ATOM     28  H   UNL     1       6.835   4.105  17.934  0.00  0.00    +0.000 HD
ENDBRANCH  25  26
BRANCH  25  29
ATOM     29  C   UNL     1       5.338   4.661  15.724  0.00  0.00    +0.000 C 
BRANCH  29  30
ATOM     30  C   UNL     1       5.938   4.465  14.351  0.00  0.00    +0.000 A 
ATOM     31  C   UNL     1       5.304   3.639  13.415  0.00  0.00    +0.000 A 
ATOM     32  C   UNL     1       5.890   3.401  12.170  0.00  0.00    +0.000 A 
ATOM     33  C   UNL     1       7.119   3.977  11.852  0.00  0.00    +0.000 A 
ATOM     34  C   UNL     1       7.745   4.823  12.763  0.00  0.00    +0.000 A 
ATOM     35  C   UNL     1       7.151   5.078  14.002  0.00  0.00    +0.000 A 
ENDBRANCH  29  30
ENDBRANCH  25  29
ENDBRANCH  24  25
ENDBRANCH  22  24
ENDBRANCH   1  22
TORSDOF 8
ENDMDL
MODEL 4
REMARK VINA RESULT:      -7.6      1.007      1.425
REMARK  Name = 
REMARK  8 active torsions:
REMARK  status: ('A' for Active; 'I' for Inactive)
REMARK    1  A    between atoms: N_1  and  C_2
REMARK    2  A    between atoms: C_2  and  C_3
REMARK    3  A    between atoms: C_2  and  C_25
REMARK    4  A    between atoms: C_3  and  N_4
REMARK    5  A    between atoms: N_4  and  C_5
REMARK    6  A    between atoms: C_7  and  C_8
REMARK    7  A    between atoms: C_16  and  C_17
REMARK    8  A    between atoms: C_25  and  C_26
REMARK                            x       y       z     vdW  Elec       q    Type
REMARK                         _______ _______ _______ _____ _____    ______ ____
ROOT
ATOM      1  C   UNL     1      -0.437  11.174  19.494  0.00  0.00    +0.000 A 
ATOM      2  N   UNL     1      -0.571  11.941  20.589  0.00  0.00    +0.000 NA
ATOM      3  C   UNL     1      -1.774  12.461  20.889  0.00  0.00    +0.000 A 
ATOM      4  N   UNL     1      -2.900  12.329  20.171  0.00  0.00    +0.000 NA
ATOM      5  C   UNL     1      -2.765  11.578  19.045  0.00  0.00    +0.000 A 
ATOM      6  C   UNL     1      -3.792  11.304  18.082  0.00  0.00    +0.000 A 
ATOM      7  C   UNL     1      -3.357  10.469  17.076  0.00  0.00    +0.000 A 
ATOM      8  S   UNL     1      -1.711  10.061  17.244  0.00  0.00    +0.000 S 
ATOM      9  C   UNL     1      -1.564  10.978  18.693  0.00  0.00    +0.000 A 
ENDROOT
BRANCH   3  10
ATOM     10  C   UNL     1      -1.856  13.248  22.128  0.00  0.00    +0.000 A 
ATOM     11  C   UNL     1      -2.967  13.146  22.979  0.00  0.00    +0.000 A 
ATOM     12  C   UNL     1      -3.000  13.900  24.140  0.00  0.00    +0.000 A 
ATOM     13  N   UNL     1      -2.022  14.752  24.508  0.00  0.00    +0.000 NA
ATOM     14  C   UNL     1      -0.966  14.856  23.677  0.00  0.00    +0.000 A 
ATOM     15  C   UNL     1      -0.839  14.135  22.500  0.00  0.00    +0.000 A 
ENDBRANCH   3  10
BRANCH   6  16
ATOM     16  C   UNL     1      -5.179  11.851  18.118  0.00  0.00    +0.000 A 
ATOM     17  C   UNL     1      -5.854  12.512  17.115  0.00  0.00    +0.000 A 
ATOM     18  C   UNL     1      -7.132  12.857  17.618  0.00  0.00    +0.000 A 
ATOM     19  C   UNL     1      -7.200  12.401  18.916  0.00  0.00    +0.000 A 
ATOM     20  N   UNL     1      -6.011  11.785  19.209  0.00  0.00    +0.000 N 
ATOM     21  H   UNL     1      -5.757  11.363  20.095  0.00  0.00    +0.000 HD
ENDBRANCH   6  16
BRANCH   1  22
ATOM     22  N   UNL     1       0.790  10.628  19.148  0.00  0.00    +0.000 N 
ATOM     23  H   UNL     1       0.952  10.707  18.148  0.00  0.00    +0.000 HD
BRANCH  22  24
ATOM     24  C   UNL     1       1.084   9.290  19.651  0.00  0.00    +0.000 C 
BRANCH  24  25
ATOM     25  C   UNL     1       1.590   8.413  18.476  0.00  0.00    +0.000 C 
BRANCH  25  26
ATOM     26  N   UNL     1       2.105   9.297  17.396  0.00  0.00    +0.000 NA
ATOM     27  H   UNL     1       1.738   8.979  16.500  0.00  0.00    +0.000 HD
ATOM     28  H   UNL     1       3.117   9.182  17.331  0.00  0.00    +0.000 HD
ENDBRANCH  25  26
BRANCH  25  29
ATOM     29  C   UNL     1       2.693   7.410  18.907  0.00  0.00    +0.000 C 
BRANCH  29  30
ATOM     30  C   UNL     1       2.199   6.000  19.133  0.00  0.00    +0.000 A 
ATOM     31  C   UNL     1       2.031   5.128  18.050  0.00  0.00    +0.000 A 
ATOM     32  C   UNL     1       1.510   3.848  18.245  0.00  0.00    +0.000 A 
ATOM     33  C   UNL     1       1.144   3.429  19.523  0.00  0.00    +0.000 A 
ATOM     34  C   UNL     1       1.333   4.274  20.612  0.00  0.00    +0.000 A 
ATOM     35  C   UNL     1       1.872   5.549  20.420  0.00  0.00    +0.000 A 
ENDBRANCH  29  30
ENDBRANCH  25  29
ENDBRANCH  24  25
ENDBRANCH  22  24
ENDBRANCH   1  22
TORSDOF 8
ENDMDL
MODEL 5
REMARK VINA RESULT:      -7.6      3.827      4.866
REMARK  Name = 
REMARK  8 active torsions:
REMARK  status: ('A' for Active; 'I' for Inactive)
REMARK    1  A    between atoms: N_1  and  C_2
REMARK    2  A    between atoms: C_2  and  C_3
REMARK    3  A    between atoms: C_2  and  C_25
REMARK    4  A    between atoms: C_3  and  N_4
REMARK    5  A    between atoms: N_4  and  C_5
REMARK    6  A    between atoms: C_7  and  C_8
REMARK    7  A    between atoms: C_16  and  C_17
REMARK    8  A    between atoms: C_25  and  C_26
REMARK                            x       y       z     vdW  Elec       q    Type
REMARK                         _______ _______ _______ _____ _____    ______ ____
ROOT
ATOM      1  C   UNL     1       1.049  10.427  20.115  0.00  0.00    +0.000 A 
ATOM      2  N   UNL     1       1.502  11.510  19.462  0.00  0.00    +0.000 NA
ATOM      3  C   UNL     1       1.170  12.736  19.905  0.00  0.00    +0.000 A 
ATOM      4  N   UNL     1       0.373  13.017  20.947  0.00  0.00    +0.000 NA
ATOM      5  C   UNL     1      -0.112  11.924  21.595  0.00  0.00    +0.000 A 
ATOM      6  C   UNL     1      -1.009  11.932  22.715  0.00  0.00    +0.000 A 
ATOM      7  C   UNL     1      -1.277  10.664  23.180  0.00  0.00    +0.000 A 
ATOM      8  S   UNL     1      -0.513   9.460  22.247  0.00  0.00    +0.000 S 
ATOM      9  C   UNL     1       0.219  10.630  21.219  0.00  0.00    +0.000 A 
ENDROOT
BRANCH   3  10
ATOM     10  C   UNL     1       1.742  13.874  19.171  0.00  0.00    +0.000 A 
ATOM     11  C   UNL     1       2.928  13.738  18.434  0.00  0.00    +0.000 A 
ATOM     12  C   UNL     1       3.429  14.834  17.752  0.00  0.00    +0.000 A 
ATOM     13  N   UNL     1       2.849  16.051  17.761  0.00  0.00    +0.000 NA
ATOM     14  C   UNL     1       1.719  16.177  18.485  0.00  0.00    +0.000 A 
ATOM     15  C   UNL     1       1.137  15.137  19.190  0.00  0.00    +0.000 A 
ENDBRANCH   3  10
BRANCH   6  16
ATOM     16  C   UNL     1      -1.616  13.150  23.328  0.00  0.00    +0.000 A 
ATOM     17  C   UNL     1      -2.918  13.330  23.738  0.00  0.00    +0.000 A 
ATOM     18  C   UNL     1      -3.029  14.651  24.236  0.00  0.00    +0.000 A 
ATOM     19  C   UNL     1      -1.791  15.242  24.110  0.00  0.00    +0.000 A 
ATOM     20  N   UNL     1      -0.937  14.320  23.563  0.00  0.00    +0.000 N 
ATOM     21  H   UNL     1       0.040  14.468  23.338  0.00  0.00    +0.000 HD
ENDBRANCH   6  16
BRANCH   1  22
ATOM     22  N   UNL     1       1.363   9.147  19.682  0.00  0.00    +0.000 N 
ATOM     23  H   UNL     1       1.974   8.679  20.346  0.00  0.00    +0.000 HD
BRANCH  22  24
ATOM     24  C   UNL     1       1.836   9.011  18.307  0.00  0.00    +0.000 C 
BRANCH  24  25
ATOM     25  C   UNL     1       2.394   7.577  18.110  0.00  0.00    +0.000 C 
BRANCH  25  26
ATOM     26  N   UNL     1       3.721   7.659  17.443  0.00  0.00    +0.000 NA
ATOM     27  H   UNL     1       4.318   8.301  17.964  0.00  0.00    +0.000 HD
ATOM     28  H   UNL     1       3.601   8.086  16.524  0.00  0.00    +0.000 HD
ENDBRANCH  25  26
BRANCH  25  29
ATOM     29  C   UNL     1       2.521   6.793  19.443  0.00  0.00    +0.000 C 
BRANCH  29  30
ATOM     30  C   UNL     1       1.961   5.390  19.396  0.00  0.00    +0.000 A 
ATOM     31  C   UNL     1       1.509   4.771  20.568  0.00  0.00    +0.000 A 
ATOM     32  C   UNL     1       1.055   3.451  20.540  0.00  0.00    +0.000 A 
ATOM     33  C   UNL     1       1.056   2.734  19.345  0.00  0.00    +0.000 A 
ATOM     34  C   UNL     1       1.475   3.348  18.168  0.00  0.00    +0.000 A 
ATOM     35  C   UNL     1       1.912   4.674  18.190  0.00  0.00    +0.000 A 
ENDBRANCH  29  30
ENDBRANCH  25  29
ENDBRANCH  24  25
ENDBRANCH  22  24
ENDBRANCH   1  22
TORSDOF 8
ENDMDL
MODEL 6
REMARK VINA RESULT:      -7.5      4.538      8.124
REMARK  Name = 
REMARK  8 active torsions:
REMARK  status: ('A' for Active; 'I' for Inactive)
REMARK    1  A    between atoms: N_1  and  C_2
REMARK    2  A    between atoms: C_2  and  C_3
REMARK    3  A    between atoms: C_2  and  C_25
REMARK    4  A    between atoms: C_3  and  N_4
REMARK    5  A    between atoms: N_4  and  C_5
REMARK    6  A    between atoms: C_7  and  C_8
REMARK    7  A    between atoms: C_16  and  C_17
REMARK    8  A    between atoms: C_25  and  C_26
REMARK                            x       y       z     vdW  Elec       q    Type
REMARK                         _______ _______ _______ _____ _____    ______ ____
ROOT
ATOM      1  C   UNL     1       3.513   6.752  17.832  0.00  0.00    +0.000 A 
ATOM      2  N   UNL     1       3.482   5.637  18.582  0.00  0.00    +0.000 NA
ATOM      3  C   UNL     1       2.720   5.606  19.690  0.00  0.00    +0.000 A 
ATOM      4  N   UNL     1       1.982   6.615  20.176  0.00  0.00    +0.000 NA
ATOM      5  C   UNL     1       2.031   7.756  19.437  0.00  0.00    +0.000 A 
ATOM      6  C   UNL     1       1.369   8.992  19.743  0.00  0.00    +0.000 A 
ATOM      7  C   UNL     1       1.574   9.949  18.773  0.00  0.00    +0.000 A 
ATOM      8  S   UNL     1       2.603   9.398  17.531  0.00  0.00    +0.000 S 
ATOM      9  C   UNL     1       2.765   7.849  18.263  0.00  0.00    +0.000 A 
ENDROOT
BRANCH   3  10
ATOM     10  C   UNL     1       2.697   4.338  20.432  0.00  0.00    +0.000 A 
ATOM     11  C   UNL     1       3.727   3.396  20.289  0.00  0.00    +0.000 A 
ATOM     12  C   UNL     1       3.668   2.216  21.013  0.00  0.00    +0.000 A 
ATOM     13  N   UNL     1       2.660   1.901  21.852  0.00  0.00    +0.000 NA
ATOM     14  C   UNL     1       1.667   2.804  21.969  0.00  0.00    +0.000 A 
ATOM     15  C   UNL     1       1.643   4.015  21.296  0.00  0.00    +0.000 A 
ENDBRANCH   3  10
BRANCH   6  16
ATOM     16  C   UNL     1       0.557   9.259  20.966  0.00  0.00    +0.000 A 
ATOM     17  C   UNL     1      -0.239   8.377  21.661  0.00  0.00    +0.000 A 
ATOM     18  C   UNL     1      -0.825   9.088  22.737  0.00  0.00    +0.000 A 
ATOM     19  C   UNL     1      -0.373  10.387  22.664  0.00  0.00    +0.000 A 
ATOM     20  N   UNL     1       0.472  10.480  21.589  0.00  0.00    +0.000 N 
ATOM     21  H   UNL     1       0.949  11.317  21.271  0.00  0.00    +0.000 HD
ENDBRANCH   6  16
BRANCH   1  22
ATOM     22  N   UNL     1       4.295   6.824  16.689  0.00  0.00    +0.000 N 
ATOM     23  H   UNL     1       3.976   6.159  15.989  0.00  0.00    +0.000 HD
BRANCH  22  24
ATOM     24  C   UNL     1       5.742   6.781  16.873  0.00  0.00    +0.000 C 
BRANCH  24  25
ATOM     25  C   UNL     1       6.238   5.336  16.600  0.00  0.00    +0.000 C 
BRANCH  25  26
ATOM     26  N   UNL     1       6.294   4.591  17.886  0.00  0.00    +0.000 NA
ATOM     27  H   UNL     1       5.595   4.969  18.524  0.00  0.00    +0.000 HD
ATOM     28  H   UNL     1       7.194   4.772  18.332  0.00  0.00    +0.000 HD
ENDBRANCH  25  26
BRANCH  25  29
ATOM     29  C   UNL     1       5.343   4.575  15.587  0.00  0.00    +0.000 C 
BRANCH  29  30
ATOM     30  C   UNL     1       5.984   4.347  14.238  0.00  0.00    +0.000 A 
ATOM     31  C   UNL     1       7.155   5.030  13.888  0.00  0.00    +0.000 A 
ATOM     32  C   UNL     1       7.712   4.874  12.617  0.00  0.00    +0.000 A 
ATOM     33  C   UNL     1       7.100   4.041  11.682  0.00  0.00    +0.000 A 
ATOM     34  C   UNL     1       5.953   3.333  12.027  0.00  0.00    +0.000 A 
ATOM     35  C   UNL     1       5.404   3.474  13.304  0.00  0.00    +0.000 A 
ENDBRANCH  29  30
ENDBRANCH  25  29
ENDBRANCH  24  25
ENDBRANCH  22  24
ENDBRANCH   1  22
TORSDOF 8
ENDMDL
MODEL 7
REMARK VINA RESULT:      -7.5      0.820      1.141
REMARK  Name = 
REMARK  8 active torsions:
REMARK  status: ('A' for Active; 'I' for Inactive)
REMARK    1  A    between atoms: N_1  and  C_2
REMARK    2  A    between atoms: C_2  and  C_3
REMARK    3  A    between atoms: C_2  and  C_25
REMARK    4  A    between atoms: C_3  and  N_4
REMARK    5  A    between atoms: N_4  and  C_5
REMARK    6  A    between atoms: C_7  and  C_8
REMARK    7  A    between atoms: C_16  and  C_17
REMARK    8  A    between atoms: C_25  and  C_26
REMARK                            x       y       z     vdW  Elec       q    Type
REMARK                         _______ _______ _______ _____ _____    ______ ____
ROOT
ATOM      1  C   UNL     1      -0.874  10.723  18.236  0.00  0.00    +0.000 A 
ATOM      2  N   UNL     1      -0.771  11.381  19.403  0.00  0.00    +0.000 NA
ATOM      3  C   UNL     1      -1.844  12.026  19.894  0.00  0.00    +0.000 A 
ATOM      4  N   UNL     1      -3.048  12.126  19.312  0.00  0.00    +0.000 NA
ATOM      5  C   UNL     1      -3.150  11.487  18.116  0.00  0.00    +0.000 A 
ATOM      6  C   UNL     1      -4.306  11.460  17.266  0.00  0.00    +0.000 A 
ATOM      7  C   UNL     1      -4.112  10.685  16.144  0.00  0.00    +0.000 A 
ATOM      8  S   UNL     1      -2.537  10.040  16.070  0.00  0.00    +0.000 S 
ATOM      9  C   UNL     1      -2.098  10.769  17.566  0.00  0.00    +0.000 A 
ENDROOT
BRANCH   3  10
ATOM     10  C   UNL     1      -1.672  12.681  21.199  0.00  0.00    +0.000 A 
ATOM     11  C   UNL     1      -2.467  12.325  22.298  0.00  0.00    +0.000 A 
ATOM     12  C   UNL     1      -2.267  12.961  23.512  0.00  0.00    +0.000 A 
ATOM     13  N   UNL     1      -1.349  13.930  23.707  0.00  0.00    +0.000 NA
ATOM     14  C   UNL     1      -0.601  14.278  22.641  0.00  0.00    +0.000 A 
ATOM     15  C   UNL     1      -0.721  13.690  21.392  0.00  0.00    +0.000 A 
ENDBRANCH   3  10
BRANCH   6  16
ATOM     16  C   UNL     1      -5.584  12.186  17.521  0.00  0.00    +0.000 A 
ATOM     17  C   UNL     1      -6.640  11.787  18.311  0.00  0.00    +0.000 A 
ATOM     18  C   UNL     1      -7.635  12.791  18.230  0.00  0.00    +0.000 A 
ATOM     19  C   UNL     1      -7.161  13.772  17.388  0.00  0.00    +0.000 A 
ATOM     20  N   UNL     1      -5.911  13.400  16.967  0.00  0.00    +0.000 N 
ATOM     21  H   UNL     1      -5.316  13.913  16.327  0.00  0.00    +0.000 HD
ENDBRANCH   6  16
BRANCH   1  22
ATOM     22  N   UNL     1       0.213  10.054  17.693  0.00  0.00    +0.000 N 
ATOM     23  H   UNL     1      -0.092   9.291  17.095  0.00  0.00    +0.000 HD
BRANCH  22  24
ATOM     24  C   UNL     1       1.265   9.642  18.617  0.00  0.00    +0.000 C 
BRANCH  24  25
ATOM     25  C   UNL     1       1.862   8.296  18.130  0.00  0.00    +0.000 C 
BRANCH  25  26
ATOM     26  N   UNL     1       3.059   8.571  17.289  0.00  0.00    +0.000 NA
ATOM     27  H   UNL     1       2.809   9.237  16.559  0.00  0.00    +0.000 HD
ATOM     28  H   UNL     1       3.318   7.715  16.798  0.00  0.00    +0.000 HD
ENDBRANCH  25  26
BRANCH  25  29
ATOM     29  C   UNL     1       2.244   7.350  19.299  0.00  0.00    +0.000 C 
BRANCH  29  30
ATOM     30  C   UNL     1       2.776   6.005  18.863  0.00  0.00    +0.000 A 
ATOM     31  C   UNL     1       1.997   5.163  18.060  0.00  0.00    +0.000 A 
ATOM     32  C   UNL     1       2.456   3.892  17.711  0.00  0.00    +0.000 A 
ATOM     33  C   UNL     1       3.694   3.445  18.169  0.00  0.00    +0.000 A 
ATOM     34  C   UNL     1       4.492   4.283  18.943  0.00  0.00    +0.000 A 
ATOM     35  C   UNL     1       4.042   5.562  19.277  0.00  0.00    +0.000 A 
ENDBRANCH  29  30
ENDBRANCH  25  29
ENDBRANCH  24  25
ENDBRANCH  22  24
ENDBRANCH   1  22
TORSDOF 8
ENDMDL
MODEL 8
REMARK VINA RESULT:      -7.5      2.149      4.748
REMARK  Name = 
REMARK  8 active torsions:
REMARK  status: ('A' for Active; 'I' for Inactive)
REMARK    1  A    between atoms: N_1  and  C_2
REMARK    2  A    between atoms: C_2  and  C_3
REMARK    3  A    between atoms: C_2  and  C_25
REMARK    4  A    between atoms: C_3  and  N_4
REMARK    5  A    between atoms: N_4  and  C_5
REMARK    6  A    between atoms: C_7  and  C_8
REMARK    7  A    between atoms: C_16  and  C_17
REMARK    8  A    between atoms: C_25  and  C_26
REMARK                            x       y       z     vdW  Elec       q    Type
REMARK                         _______ _______ _______ _____ _____    ______ ____
ROOT
ATOM      1  C   UNL     1       0.230   9.868  19.280  0.00  0.00    +0.000 A 
ATOM      2  N   UNL     1      -0.581   9.867  18.209  0.00  0.00    +0.000 NA
ATOM      3  C   UNL     1      -1.711  10.594  18.235  0.00  0.00    +0.000 A 
ATOM      4  N   UNL     1      -2.164  11.326  19.264  0.00  0.00    +0.000 NA
ATOM      5  C   UNL     1      -1.361  11.309  20.363  0.00  0.00    +0.000 A 
ATOM      6  C   UNL     1      -1.618  11.971  21.609  0.00  0.00    +0.000 A 
ATOM      7  C   UNL     1      -0.591  11.804  22.511  0.00  0.00    +0.000 A 
ATOM      8  S   UNL     1       0.650  10.809  21.899  0.00  0.00    +0.000 S 
ATOM      9  C   UNL     1      -0.162  10.612  20.395  0.00  0.00    +0.000 A 
ENDROOT
BRANCH   3  10
ATOM     10  C   UNL     1      -2.523  10.584  17.010  0.00  0.00    +0.000 A 
ATOM     11  C   UNL     1      -3.697  11.346  16.912  0.00  0.00    +0.000 A 
ATOM     12  C   UNL     1      -4.428  11.314  15.736  0.00  0.00    +0.000 A 
ATOM     13  N   UNL     1      -4.088  10.572  14.663  0.00  0.00    +0.000 NA
ATOM     14  C   UNL     1      -2.968   9.830  14.772  0.00  0.00    +0.000 A 
ATOM     15  C   UNL     1      -2.166   9.806  15.901  0.00  0.00    +0.000 A 
ENDBRANCH   3  10
BRANCH   6  16
ATOM     16  C   UNL     1      -2.849  12.748  21.938  0.00  0.00    +0.000 A 
ATOM     17  C   UNL     1      -3.209  13.995  21.480  0.00  0.00    +0.000 A 
ATOM     18  C   UNL     1      -4.448  14.328  22.081  0.00  0.00    +0.000 A 
ATOM     19  C   UNL     1      -4.805  13.276  22.894  0.00  0.00    +0.000 A 
ATOM     20  N   UNL     1      -3.831  12.317  22.797  0.00  0.00    +0.000 N 
ATOM     21  H   UNL     1      -3.809  11.432  23.291  0.00  0.00    +0.000 HD
ENDBRANCH   6  16
BRANCH   1  22
ATOM     22  N   UNL     1       1.400   9.123  19.293  0.00  0.00    +0.000 N 
ATOM     23  H   UNL     1       2.057   9.491  19.976  0.00  0.00    +0.000 HD
BRANCH  22  24
ATOM     24  C   UNL     1       2.032   8.860  18.004  0.00  0.00    +0.000 C 
BRANCH  24  25
ATOM     25  C   UNL     1       2.575   7.407  18.000  0.00  0.00    +0.000 C 
BRANCH  25  26
ATOM     26  N   UNL     1       3.950   7.403  17.430  0.00  0.00    +0.000 NA
ATOM     27  H   UNL     1       4.349   8.337  17.513  0.00  0.00    +0.000 HD
ATOM     28  H   UNL     1       3.890   7.222  16.428  0.00  0.00    +0.000 HD
ENDBRANCH  25  26
BRANCH  25  29
ATOM     29  C   UNL     1       2.587   6.766  19.413  0.00  0.00    +0.000 C 
BRANCH  29  30
ATOM     30  C   UNL     1       2.060   5.351  19.459  0.00  0.00    +0.000 A 
ATOM     31  C   UNL     1       1.896   4.618  18.277  0.00  0.00    +0.000 A 
ATOM     32  C   UNL     1       1.346   3.336  18.309  0.00  0.00    +0.000 A 
ATOM     33  C   UNL     1       0.945   2.776  19.521  0.00  0.00    +0.000 A 
ATOM     34  C   UNL     1       1.130   3.481  20.706  0.00  0.00    +0.000 A 
ATOM     35  C   UNL     1       1.698   4.757  20.678  0.00  0.00    +0.000 A 
ENDBRANCH  29  30
ENDBRANCH  25  29
ENDBRANCH  24  25
ENDBRANCH  22  24
ENDBRANCH   1  22
TORSDOF 8
ENDMDL
MODEL 9
REMARK VINA RESULT:      -7.5      1.378      1.762
REMARK  Name = 
REMARK  8 active torsions:
REMARK  status: ('A' for Active; 'I' for Inactive)
REMARK    1  A    between atoms: N_1  and  C_2
REMARK    2  A    between atoms: C_2  and  C_3
REMARK    3  A    between atoms: C_2  and  C_25
REMARK    4  A    between atoms: C_3  and  N_4
REMARK    5  A    between atoms: N_4  and  C_5
REMARK    6  A    between atoms: C_7  and  C_8
REMARK    7  A    between atoms: C_16  and  C_17
REMARK    8  A    between atoms: C_25  and  C_26
REMARK                            x       y       z     vdW  Elec       q    Type
REMARK                         _______ _______ _______ _____ _____    ______ ____
ROOT
ATOM      1  C   UNL     1      -1.011  10.742  18.259  0.00  0.00    +0.000 A 
ATOM      2  N   UNL     1      -0.911  11.387  19.434  0.00  0.00    +0.000 NA
ATOM      3  C   UNL     1      -1.980  12.043  19.920  0.00  0.00    +0.000 A 
ATOM      4  N   UNL     1      -3.176  12.166  19.327  0.00  0.00    +0.000 NA
ATOM      5  C   UNL     1      -3.275  11.540  18.123  0.00  0.00    +0.000 A 
ATOM      6  C   UNL     1      -4.422  11.538  17.261  0.00  0.00    +0.000 A 
ATOM      7  C   UNL     1      -4.227  10.772  16.133  0.00  0.00    +0.000 A 
ATOM      8  S   UNL     1      -2.660  10.105  16.069  0.00  0.00    +0.000 S 
ATOM      9  C   UNL     1      -2.227  10.813  17.577  0.00  0.00    +0.000 A 
ENDROOT
BRANCH   3  10
ATOM     10  C   UNL     1      -1.813  12.682  21.234  0.00  0.00    +0.000 A 
ATOM     11  C   UNL     1      -2.751  12.488  22.258  0.00  0.00    +0.000 A 
ATOM     12  C   UNL     1      -2.551  13.103  23.483  0.00  0.00    +0.000 A 
ATOM     13  N   UNL     1      -1.500  13.903  23.757  0.00  0.00    +0.000 NA
ATOM     14  C   UNL     1      -0.612  14.097  22.761  0.00  0.00    +0.000 A 
ATOM     15  C   UNL     1      -0.722  13.516  21.508  0.00  0.00    +0.000 A 
ENDBRANCH   3  10
BRANCH   6  16
ATOM     16  C   UNL     1      -5.692  12.280  17.510  0.00  0.00    +0.000 A 
ATOM     17  C   UNL     1      -6.739  11.913  18.326  0.00  0.00    +0.000 A 
ATOM     18  C   UNL     1      -7.730  12.920  18.227  0.00  0.00    +0.000 A 
ATOM     19  C   UNL     1      -7.261  13.871  17.347  0.00  0.00    +0.000 A 
ATOM     20  N   UNL     1      -6.019  13.477  16.921  0.00  0.00    +0.000 N 
ATOM     21  H   UNL     1      -5.429  13.966  16.258  0.00  0.00    +0.000 HD
ENDBRANCH   6  16
BRANCH   1  22
ATOM     22  N   UNL     1       0.072  10.063  17.722  0.00  0.00    +0.000 N 
ATOM     23  H   UNL     1      -0.108   9.064  17.685  0.00  0.00    +0.000 HD
BRANCH  22  24
ATOM     24  C   UNL     1       1.387  10.366  18.280  0.00  0.00    +0.000 C 
BRANCH  24  25
ATOM     25  C   UNL     1       1.943   9.093  18.970  0.00  0.00    +0.000 C 
BRANCH  25  26
ATOM     26  N   UNL     1       1.141   8.812  20.192  0.00  0.00    +0.000 NA
ATOM     27  H   UNL     1       0.597   9.639  20.433  0.00  0.00    +0.000 HD
ATOM     28  H   UNL     1       1.777   8.667  20.976  0.00  0.00    +0.000 HD
ENDBRANCH  25  26
BRANCH  25  29
ATOM     29  C   UNL     1       1.936   7.852  18.038  0.00  0.00    +0.000 C 
BRANCH  29  30
ATOM     30  C   UNL     1       3.132   6.944  18.201  0.00  0.00    +0.000 A 
ATOM     31  C   UNL     1       3.182   6.024  19.256  0.00  0.00    +0.000 A 
ATOM     32  C   UNL     1       4.314   5.231  19.450  0.00  0.00    +0.000 A 
ATOM     33  C   UNL     1       5.411   5.354  18.598  0.00  0.00    +0.000 A 
ATOM     34  C   UNL     1       5.362   6.243  17.528  0.00  0.00    +0.000 A 
ATOM     35  C   UNL     1       4.222   7.024  17.321  0.00  0.00    +0.000 A 
ENDBRANCH  29  30
ENDBRANCH  25  29
ENDBRANCH  24  25
ENDBRANCH  22  24
ENDBRANCH   1  22
TORSDOF 8
ENDMDL
