MODEL 1
REMARK VINA RESULT:      -7.1      0.000      0.000
REMARK  Name = 
REMARK  2 active torsions:
REMARK  status: ('A' for Active; 'I' for Inactive)
REMARK    1  A    between atoms: C_5  and  N_6
REMARK    2  A    between atoms: N_13  and  C_14
REMARK                            x       y       z     vdW  Elec       q    Type
REMARK                         _______ _______ _______ _____ _____    ______ ____
ROOT
ATOM      1  O   UNL     1       3.124   3.415  18.742  0.00  0.00    +0.000 OA
ATOM      2  C   UNL     1       3.068   4.631  18.703  0.00  0.00    +0.000 C 
ATOM      3  C   UNL     1       2.175   5.464  19.528  0.00  0.00    +0.000 C 
ATOM      4 CL   UNL     1       1.154   4.740  20.680  0.00  0.00    +0.000 Cl
ATOM      5  C   UNL     1       2.363   6.766  19.271  0.00  0.00    +0.000 C 
ATOM      6  C   UNL     1       3.435   6.785  18.203  0.00  0.00    +0.000 C 
ATOM      7  O   UNL     1       3.806   7.783  17.600  0.00  0.00    +0.000 OA
ATOM      8  N   UNL     1       3.832   5.500  17.988  0.00  0.00    +0.000 N 
ENDROOT
BRANCH   8   9
ATOM      9  C   UNL     1       4.978   5.132  17.265  0.00  0.00    +0.000 A 
ATOM     10  C   UNL     1       4.899   4.739  15.927  0.00  0.00    +0.000 A 
ATOM     11  C   UNL     1       6.056   4.356  15.242  0.00  0.00    +0.000 A 
ATOM     12  C   UNL     1       7.286   4.312  15.903  0.00  0.00    +0.000 A 
ATOM     13  C   UNL     1       7.363   4.668  17.247  0.00  0.00    +0.000 A 
ATOM     14  C   UNL     1       6.220   5.093  17.913  0.00  0.00    +0.000 A 
ATOM     15  F   UNL     1       6.304   5.355  19.227  0.00  0.00    +0.000 F 
ENDBRANCH   8   9
BRANCH   5  16
ATOM     16  N   UNL     1       1.800   7.922  19.809  0.00  0.00    +0.000 N 
ATOM     17  C   UNL     1       1.445   8.122  21.217  0.00  0.00    +0.000 C 
ATOM     18  C   UNL     1       0.243   9.053  21.156  0.00  0.00    +0.000 C 
ATOM     19  C   UNL     1       0.561   9.958  19.984  0.00  0.00    +0.000 C 
ATOM     20  C   UNL     1       1.329   9.063  19.015  0.00  0.00    +0.000 C 
ENDBRANCH   5  16
TORSDOF 2
ENDMDL
MODEL 2
REMARK VINA RESULT:      -7.1      3.480      5.551
REMARK  Name = 
REMARK  2 active torsions:
REMARK  status: ('A' for Active; 'I' for Inactive)
REMARK    1  A    between atoms: C_5  and  N_6
REMARK    2  A    between atoms: N_13  and  C_14
REMARK                            x       y       z     vdW  Elec       q    Type
REMARK                         _______ _______ _______ _____ _____    ______ ____
ROOT
ATOM      1  O   UNL     1       3.404   2.960  16.722  0.00  0.00    +0.000 OA
ATOM      2  C   UNL     1       4.111   3.726  17.351  0.00  0.00    +0.000 C 
ATOM      3  C   UNL     1       5.161   4.580  16.769  0.00  0.00    +0.000 C 
ATOM      4 CL   UNL     1       5.425   4.583  15.088  0.00  0.00    +0.000 Cl
ATOM      5  C   UNL     1       5.749   5.327  17.714  0.00  0.00    +0.000 C 
ATOM      6  C   UNL     1       5.050   4.927  18.995  0.00  0.00    +0.000 C 
ATOM      7  O   UNL     1       5.379   5.289  20.115  0.00  0.00    +0.000 OA
ATOM      8  N   UNL     1       4.065   4.042  18.673  0.00  0.00    +0.000 N 
ENDROOT
BRANCH   8   9
ATOM      9  C   UNL     1       3.040   3.643  19.544  0.00  0.00    +0.000 A 
ATOM     10  C   UNL     1       1.787   4.260  19.526  0.00  0.00    +0.000 A 
ATOM     11  C   UNL     1       0.795   3.855  20.425  0.00  0.00    +0.000 A 
ATOM     12  C   UNL     1       1.067   2.870  21.378  0.00  0.00    +0.000 A 
ATOM     13  C   UNL     1       2.326   2.277  21.424  0.00  0.00    +0.000 A 
ATOM     14  C   UNL     1       3.294   2.650  20.500  0.00  0.00    +0.000 A 
ATOM     15  F   UNL     1       4.524   2.122  20.614  0.00  0.00    +0.000 F 
ENDBRANCH   8   9
BRANCH   5  16
ATOM     16  N   UNL     1       6.747   6.298  17.659  0.00  0.00    +0.000 N 
ATOM     17  C   UNL     1       8.035   6.238  18.358  0.00  0.00    +0.000 C 
ATOM     18  C   UNL     1       8.355   7.696  18.650  0.00  0.00    +0.000 C 
ATOM     19  C   UNL     1       7.819   8.422  17.433  0.00  0.00    +0.000 C 
ATOM     20  C   UNL     1       6.595   7.610  17.018  0.00  0.00    +0.000 C 
ENDBRANCH   5  16
TORSDOF 2
ENDMDL
MODEL 3
REMARK VINA RESULT:      -7.1      3.092      6.249
REMARK  Name = 
REMARK  2 active torsions:
REMARK  status: ('A' for Active; 'I' for Inactive)
REMARK    1  A    between atoms: C_5  and  N_6
REMARK    2  A    between atoms: N_13  and  C_14
REMARK                            x       y       z     vdW  Elec       q    Type
REMARK                         _______ _______ _______ _____ _____    ______ ____
ROOT
ATOM      1  O   UNL     1       3.386   6.659  19.023  0.00  0.00    +0.000 OA
ATOM      2  C   UNL     1       3.728   5.778  18.254  0.00  0.00    +0.000 C 
ATOM      3  C   UNL     1       4.679   5.949  17.142  0.00  0.00    +0.000 C 
ATOM      4 CL   UNL     1       5.433   7.452  16.886  0.00  0.00    +0.000 Cl
ATOM      5  C   UNL     1       4.868   4.792  16.492  0.00  0.00    +0.000 C 
ATOM      6  C   UNL     1       3.975   3.807  17.216  0.00  0.00    +0.000 C 
ATOM      7  O   UNL     1       3.760   2.659  16.854  0.00  0.00    +0.000 OA
ATOM      8  N   UNL     1       3.406   4.457  18.269  0.00  0.00    +0.000 N 
ENDROOT
BRANCH   8   9
ATOM      9  C   UNL     1       2.724   3.823  19.319  0.00  0.00    +0.000 A 
ATOM     10  C   UNL     1       1.344   3.968  19.483  0.00  0.00    +0.000 A 
ATOM     11  C   UNL     1       0.698   3.342  20.554  0.00  0.00    +0.000 A 
ATOM     12  C   UNL     1       1.433   2.616  21.494  0.00  0.00    +0.000 A 
ATOM     13  C   UNL     1       2.814   2.500  21.356  0.00  0.00    +0.000 A 
ATOM     14  C   UNL     1       3.446   3.083  20.265  0.00  0.00    +0.000 A 
ATOM     15  F   UNL     1       4.786   3.025  20.196  0.00  0.00    +0.000 F 
ENDBRANCH   8   9
BRANCH   5  16
ATOM     16  N   UNL     1       5.684   4.437  15.420  0.00  0.00    +0.000 N 
ATOM     17  C   UNL     1       7.134   4.640  15.348  0.00  0.00    +0.000 C 
ATOM     18  C   UNL     1       7.393   4.869  13.866  0.00  0.00    +0.000 C 
ATOM     19  C   UNL     1       6.397   3.948  13.192  0.00  0.00    +0.000 C 
ATOM     20  C   UNL     1       5.190   3.949  14.126  0.00  0.00    +0.000 C 
ENDBRANCH   5  16
TORSDOF 2
ENDMDL
MODEL 4
REMARK VINA RESULT:      -7.0      3.266      6.418
REMARK  Name = 
REMARK  2 active torsions:
REMARK  status: ('A' for Active; 'I' for Inactive)
REMARK    1  A    between atoms: C_5  and  N_6
REMARK    2  A    between atoms: N_13  and  C_14
REMARK                            x       y       z     vdW  Elec       q    Type
REMARK                         _______ _______ _______ _____ _____    ______ ____
ROOT
ATOM      1  O   UNL     1       3.234   6.762  18.917  0.00  0.00    +0.000 OA
ATOM      2  C   UNL     1       3.628   5.863  18.196  0.00  0.00    +0.000 C 
ATOM      3  C   UNL     1       4.594   6.024  17.095  0.00  0.00    +0.000 C 
ATOM      4 CL   UNL     1       5.290   7.545  16.785  0.00  0.00    +0.000 Cl
ATOM      5  C   UNL     1       4.845   4.848  16.503  0.00  0.00    +0.000 C 
ATOM      6  C   UNL     1       3.979   3.860  17.253  0.00  0.00    +0.000 C 
ATOM      7  O   UNL     1       3.820   2.688  16.940  0.00  0.00    +0.000 OA
ATOM      8  N   UNL     1       3.362   4.531  18.266  0.00  0.00    +0.000 N 
ENDROOT
BRANCH   8   9
ATOM      9  C   UNL     1       2.685   3.916  19.331  0.00  0.00    +0.000 A 
ATOM     10  C   UNL     1       3.359   3.516  20.487  0.00  0.00    +0.000 A 
ATOM     11  C   UNL     1       2.659   2.884  21.520  0.00  0.00    +0.000 A 
ATOM     12  C   UNL     1       1.298   2.602  21.380  0.00  0.00    +0.000 A 
ATOM     13  C   UNL     1       0.630   2.965  20.213  0.00  0.00    +0.000 A 
ATOM     14  C   UNL     1       1.318   3.635  19.208  0.00  0.00    +0.000 A 
ATOM     15  F   UNL     1       0.673   3.905  18.062  0.00  0.00    +0.000 F 
ENDBRANCH   8   9
BRANCH   5  16
ATOM     16  N   UNL     1       5.697   4.481  15.463  0.00  0.00    +0.000 N 
ATOM     17  C   UNL     1       7.149   4.682  15.439  0.00  0.00    +0.000 C 
ATOM     18  C   UNL     1       7.459   4.894  13.964  0.00  0.00    +0.000 C 
ATOM     19  C   UNL     1       6.486   3.966  13.267  0.00  0.00    +0.000 C 
ATOM     20  C   UNL     1       5.248   3.979  14.159  0.00  0.00    +0.000 C 
ENDBRANCH   5  16
TORSDOF 2
ENDMDL
MODEL 5
REMARK VINA RESULT:      -6.9      2.391      3.527
REMARK  Name = 
REMARK  2 active torsions:
REMARK  status: ('A' for Active; 'I' for Inactive)
REMARK    1  A    between atoms: C_5  and  N_6
REMARK    2  A    between atoms: N_13  and  C_14
REMARK                            x       y       z     vdW  Elec       q    Type
REMARK                         _______ _______ _______ _____ _____    ______ ____
ROOT
ATOM      1  O   UNL     1       4.348   7.667  16.955  0.00  0.00    +0.000 OA
ATOM      2  C   UNL     1       4.103   6.602  17.491  0.00  0.00    +0.000 C 
ATOM      3  C   UNL     1       3.112   6.402  18.562  0.00  0.00    +0.000 C 
ATOM      4 CL   UNL     1       2.166   7.707  19.105  0.00  0.00    +0.000 Cl
ATOM      5  C   UNL     1       3.057   5.114  18.929  0.00  0.00    +0.000 C 
ATOM      6  C   UNL     1       4.085   4.432  18.053  0.00  0.00    +0.000 C 
ATOM      7  O   UNL     1       4.437   3.266  18.163  0.00  0.00    +0.000 OA
ATOM      8  N   UNL     1       4.591   5.366  17.200  0.00  0.00    +0.000 N 
ENDROOT
BRANCH   8   9
ATOM      9  C   UNL     1       5.374   5.072  16.073  0.00  0.00    +0.000 A 
ATOM     10  C   UNL     1       4.827   4.445  14.950  0.00  0.00    +0.000 A 
ATOM     11  C   UNL     1       5.641   4.143  13.853  0.00  0.00    +0.000 A 
ATOM     12  C   UNL     1       7.010   4.418  13.894  0.00  0.00    +0.000 A 
ATOM     13  C   UNL     1       7.566   5.009  15.025  0.00  0.00    +0.000 A 
ATOM     14  C   UNL     1       6.748   5.349  16.095  0.00  0.00    +0.000 A 
ATOM     15  F   UNL     1       7.318   5.846  17.205  0.00  0.00    +0.000 F 
ENDBRANCH   8   9
BRANCH   5  16
ATOM     16  N   UNL     1       2.267   4.432  19.853  0.00  0.00    +0.000 N 
ATOM     17  C   UNL     1       2.472   4.416  21.304  0.00  0.00    +0.000 C 
ATOM     18  C   UNL     1       1.974   3.041  21.724  0.00  0.00    +0.000 C 
ATOM     19  C   UNL     1       0.801   2.797  20.796  0.00  0.00    +0.000 C 
ATOM     20  C   UNL     1       1.199   3.490  19.496  0.00  0.00    +0.000 C 
ENDBRANCH   5  16
TORSDOF 2
ENDMDL
MODEL 6
REMARK VINA RESULT:      -6.8      2.931      3.647
REMARK  Name = 
REMARK  2 active torsions:
REMARK  status: ('A' for Active; 'I' for Inactive)
REMARK    1  A    between atoms: C_5  and  N_6
REMARK    2  A    between atoms: N_13  and  C_14
REMARK                            x       y       z     vdW  Elec       q    Type
REMARK                         _______ _______ _______ _____ _____    ______ ____
ROOT
ATOM      1  O   UNL     1       3.612   7.241  17.130  0.00  0.00    +0.000 OA
ATOM      2  C   UNL     1       2.969   7.248  18.164  0.00  0.00    +0.000 C 
ATOM      3  C   UNL     1       2.247   8.413  18.704  0.00  0.00    +0.000 C 
ATOM      4 CL   UNL     1       2.226   9.879  17.842  0.00  0.00    +0.000 Cl
ATOM      5  C   UNL     1       1.617   8.100  19.845  0.00  0.00    +0.000 C 
ATOM      6  C   UNL     1       1.959   6.643  20.072  0.00  0.00    +0.000 C 
ATOM      7  O   UNL     1       1.681   6.007  21.079  0.00  0.00    +0.000 OA
ATOM      8  N   UNL     1       2.691   6.216  19.006  0.00  0.00    +0.000 N 
ENDROOT
BRANCH   8   9
ATOM      9  C   UNL     1       2.976   4.870  18.725  0.00  0.00    +0.000 A 
ATOM     10  C   UNL     1       4.124   4.250  19.223  0.00  0.00    +0.000 A 
ATOM     11  C   UNL     1       4.391   2.914  18.904  0.00  0.00    +0.000 A 
ATOM     12  C   UNL     1       3.542   2.211  18.047  0.00  0.00    +0.000 A 
ATOM     13  C   UNL     1       2.415   2.836  17.518  0.00  0.00    +0.000 A 
ATOM     14  C   UNL     1       2.129   4.149  17.874  0.00  0.00    +0.000 A 
ATOM     15  F   UNL     1       1.082   4.755  17.291  0.00  0.00    +0.000 F 
ENDBRANCH   8   9
BRANCH   5  16
ATOM     16  N   UNL     1       0.789   8.831  20.694  0.00  0.00    +0.000 N 
ATOM     17  C   UNL     1      -0.350   9.653  20.275  0.00  0.00    +0.000 C 
ATOM     18  C   UNL     1      -0.382  10.776  21.302  0.00  0.00    +0.000 C 
ATOM     19  C   UNL     1       0.040  10.088  22.584  0.00  0.00    +0.000 C 
ATOM     20  C   UNL     1       1.031   9.019  22.130  0.00  0.00    +0.000 C 
ENDBRANCH   5  16
TORSDOF 2
ENDMDL
MODEL 7
REMARK VINA RESULT:      -6.8      2.988      4.025
REMARK  Name = 
REMARK  2 active torsions:
REMARK  status: ('A' for Active; 'I' for Inactive)
REMARK    1  A    between atoms: C_5  and  N_6
REMARK    2  A    between atoms: N_13  and  C_14
REMARK                            x       y       z     vdW  Elec       q    Type
REMARK                         _______ _______ _______ _____ _____    ______ ____
ROOT
ATOM      1  O   UNL     1       4.717   7.196  16.356  0.00  0.00    +0.000 OA
ATOM      2  C   UNL     1       4.465   6.093  16.808  0.00  0.00    +0.000 C 
ATOM      3  C   UNL     1       3.554   5.829  17.935  0.00  0.00    +0.000 C 
ATOM      4 CL   UNL     1       2.719   7.111  18.677  0.00  0.00    +0.000 Cl
ATOM      5  C   UNL     1       3.467   4.514  18.182  0.00  0.00    +0.000 C 
ATOM      6  C   UNL     1       4.388   3.881  17.162  0.00  0.00    +0.000 C 
ATOM      7  O   UNL     1       4.691   2.696  17.131  0.00  0.00    +0.000 OA
ATOM      8  N   UNL     1       4.869   4.874  16.361  0.00  0.00    +0.000 N 
ENDROOT
BRANCH   8   9
ATOM      9  C   UNL     1       5.544   4.661  15.149  0.00  0.00    +0.000 A 
ATOM     10  C   UNL     1       4.945   3.967  14.095  0.00  0.00    +0.000 A 
ATOM     11  C   UNL     1       5.655   3.750  12.909  0.00  0.00    +0.000 A 
ATOM     12  C   UNL     1       6.979   4.178  12.792  0.00  0.00    +0.000 A 
ATOM     13  C   UNL     1       7.592   4.838  13.853  0.00  0.00    +0.000 A 
ATOM     14  C   UNL     1       6.870   5.092  15.013  0.00  0.00    +0.000 A 
ATOM     15  F   UNL     1       7.505   5.659  16.051  0.00  0.00    +0.000 F 
ENDBRANCH   8   9
BRANCH   5  16
ATOM     16  N   UNL     1       2.722   3.776  19.100  0.00  0.00    +0.000 N 
ATOM     17  C   UNL     1       1.265   3.618  19.085  0.00  0.00    +0.000 C 
ATOM     18  C   UNL     1       0.902   3.485  20.557  0.00  0.00    +0.000 C 
ATOM     19  C   UNL     1       2.067   2.708  21.134  0.00  0.00    +0.000 C 
ATOM     20  C   UNL     1       3.271   3.173  20.321  0.00  0.00    +0.000 C 
ENDBRANCH   5  16
TORSDOF 2
ENDMDL
MODEL 8
REMARK VINA RESULT:      -6.8      2.580      3.318
REMARK  Name = 
REMARK  2 active torsions:
REMARK  status: ('A' for Active; 'I' for Inactive)
REMARK    1  A    between atoms: C_5  and  N_6
REMARK    2  A    between atoms: N_13  and  C_14
REMARK                            x       y       z     vdW  Elec       q    Type
REMARK                         _______ _______ _______ _____ _____    ______ ____
ROOT
ATOM      1  O   UNL     1       3.477   7.609  17.041  0.00  0.00    +0.000 OA
ATOM      2  C   UNL     1       2.860   7.543  18.088  0.00  0.00    +0.000 C 
ATOM      3  C   UNL     1       2.125   8.659  18.708  0.00  0.00    +0.000 C 
ATOM      4 CL   UNL     1       2.049  10.169  17.930  0.00  0.00    +0.000 Cl
ATOM      5  C   UNL     1       1.530   8.268  19.844  0.00  0.00    +0.000 C 
ATOM      6  C   UNL     1       1.912   6.810  19.983  0.00  0.00    +0.000 C 
ATOM      7  O   UNL     1       1.673   6.113  20.959  0.00  0.00    +0.000 OA
ATOM      8  N   UNL     1       2.627   6.460  18.877  0.00  0.00    +0.000 N 
ENDROOT
BRANCH   8   9
ATOM      9  C   UNL     1       2.936   5.139  18.516  0.00  0.00    +0.000 A 
ATOM     10  C   UNL     1       2.027   4.346  17.813  0.00  0.00    +0.000 A 
ATOM     11  C   UNL     1       2.356   3.025  17.490  0.00  0.00    +0.000 A 
ATOM     12  C   UNL     1       3.569   2.477  17.912  0.00  0.00    +0.000 A 
ATOM     13  C   UNL     1       4.464   3.253  18.645  0.00  0.00    +0.000 A 
ATOM     14  C   UNL     1       4.153   4.578  18.925  0.00  0.00    +0.000 A 
ATOM     15  F   UNL     1       4.995   5.283  19.699  0.00  0.00    +0.000 F 
ENDBRANCH   8   9
BRANCH   5  16
ATOM     16  N   UNL     1       0.707   8.931  20.752  0.00  0.00    +0.000 N 
ATOM     17  C   UNL     1      -0.415   9.808  20.403  0.00  0.00    +0.000 C 
ATOM     18  C   UNL     1      -0.438  10.830  21.530  0.00  0.00    +0.000 C 
ATOM     19  C   UNL     1      -0.039  10.018  22.745  0.00  0.00    +0.000 C 
ATOM     20  C   UNL     1       0.939   8.980  22.201  0.00  0.00    +0.000 C 
ENDBRANCH   5  16
TORSDOF 2
ENDMDL
MODEL 9
REMARK VINA RESULT:      -6.8      3.044      3.609
REMARK  Name = 
REMARK  2 active torsions:
REMARK  status: ('A' for Active; 'I' for Inactive)
REMARK    1  A    between atoms: C_5  and  N_6
REMARK    2  A    between atoms: N_13  and  C_14
REMARK                            x       y       z     vdW  Elec       q    Type
REMARK                         _______ _______ _______ _____ _____    ______ ____
ROOT
ATOM      1  O   UNL     1       3.662   6.685  17.096  0.00  0.00    +0.000 OA
ATOM      2  C   UNL     1       3.064   6.822  18.148  0.00  0.00    +0.000 C 
ATOM      3  C   UNL     1       2.463   8.081  18.622  0.00  0.00    +0.000 C 
ATOM      4 CL   UNL     1       2.528   9.477  17.653  0.00  0.00    +0.000 Cl
ATOM      5  C   UNL     1       1.856   7.905  19.804  0.00  0.00    +0.000 C 
ATOM      6  C   UNL     1       2.086   6.445  20.130  0.00  0.00    +0.000 C 
ATOM      7  O   UNL     1       1.797   5.910  21.190  0.00  0.00    +0.000 OA
ATOM      8  N   UNL     1       2.737   5.881  19.074  0.00  0.00    +0.000 N 
ENDROOT
BRANCH   8   9
ATOM      9  C   UNL     1       2.898   4.499  18.886  0.00  0.00    +0.000 A 
ATOM     10  C   UNL     1       3.968   3.807  19.458  0.00  0.00    +0.000 A 
ATOM     11  C   UNL     1       4.113   2.434  19.231  0.00  0.00    +0.000 A 
ATOM     12  C   UNL     1       3.222   1.760  18.392  0.00  0.00    +0.000 A 
ATOM     13  C   UNL     1       2.175   2.454  17.790  0.00  0.00    +0.000 A 
ATOM     14  C   UNL     1       2.007   3.807  18.054  0.00  0.00    +0.000 A 
ATOM     15  F   UNL     1       1.039   4.471  17.402  0.00  0.00    +0.000 F 
ENDBRANCH   8   9
BRANCH   5  16
ATOM     16  N   UNL     1       1.127   8.765  20.624  0.00  0.00    +0.000 N 
ATOM     17  C   UNL     1       1.304   8.920  22.070  0.00  0.00    +0.000 C 
ATOM     18  C   UNL     1      -0.092   9.258  22.571  0.00  0.00    +0.000 C 
ATOM     19  C   UNL     1      -0.666  10.108  21.456  0.00  0.00    +0.000 C 
ATOM     20  C   UNL     1      -0.046   9.533  20.186  0.00  0.00    +0.000 C 
ENDBRANCH   5  16
TORSDOF 2
ENDMDL
