MODEL 1
REMARK VINA RESULT:      -7.2      0.000      0.000
REMARK  Name = 
REMARK  5 active torsions:
REMARK  status: ('A' for Active; 'I' for Inactive)
REMARK    1  A    between atoms: C_8  and  C_9
REMARK    2  A    between atoms: C_9  and  C_10
REMARK    3  A    between atoms: C_10  and  O_12
REMARK    4  A    between atoms: C_14  and  C_15
REMARK    5  A    between atoms: C_14  and  C_16
REMARK                            x       y       z     vdW  Elec       q    Type
REMARK                         _______ _______ _______ _____ _____    ______ ____
ROOT
ATOM      1  C   UNL     1       7.677   7.215  16.893  0.00  0.00    +0.000 C 
ATOM      2  C   UNL     1       6.749   6.289  17.153  0.00  0.00    +0.000 C 
ATOM      3  C   UNL     1       7.019   4.829  17.308  0.00  0.00    +0.000 C 
ATOM      4  O   UNL     1       8.055   4.254  17.036  0.00  0.00    +0.000 OA
ATOM      5  O   UNL     1       5.865   4.242  17.772  0.00  0.00    +0.000 OA
ATOM      6  C   UNL     1       5.045   5.288  18.283  0.00  0.00    +0.000 C 
ATOM      7  C   UNL     1       3.546   5.031  18.341  0.00  0.00    +0.000 C 
ATOM      8  C   UNL     1       2.956   3.900  17.900  0.00  0.00    +0.000 C 
ATOM      9  C   UNL     1       2.832   6.217  18.866  0.00  0.00    +0.000 C 
ATOM     10  C   UNL     1       2.061   6.205  19.982  0.00  0.00    +0.000 C 
ATOM     11  C   UNL     1       1.836   4.991  20.860  0.00  0.00    +0.000 C 
ATOM     12  C   UNL     1       1.327   7.409  20.534  0.00  0.00    +0.000 C 
ATOM     13  C   UNL     1       3.154   7.477  18.053  0.00  0.00    +0.000 C 
ATOM     14  C   UNL     1       4.671   7.710  17.902  0.00  0.00    +0.000 C 
ATOM     15  C   UNL     1       5.289   6.443  17.332  0.00  0.00    +0.000 C 
ENDROOT
BRANCH   8  16
ATOM     16  C   UNL     1       1.483   3.586  17.856  0.00  0.00    +0.000 C 
BRANCH  16  17
ATOM     17  C   UNL     1       1.157   2.316  18.618  0.00  0.00    +0.000 C 
ATOM     18  O   UNL     1       0.123   2.139  19.244  0.00  0.00    +0.000 OA
BRANCH  17  19
ATOM     19  O   UNL     1       2.110   1.360  18.503  0.00  0.00    +0.000 OA
ATOM     20  H   UNL     1       3.001   1.738  18.374  0.00  0.00    +0.000 HD
ENDBRANCH  17  19
ENDBRANCH  16  17
ENDBRANCH   8  16
TORSDOF 3
ENDMDL
MODEL 2
REMARK VINA RESULT:      -7.1      1.965      5.664
REMARK  Name = 
REMARK  5 active torsions:
REMARK  status: ('A' for Active; 'I' for Inactive)
REMARK    1  A    between atoms: C_8  and  C_9
REMARK    2  A    between atoms: C_9  and  C_10
REMARK    3  A    between atoms: C_10  and  O_12
REMARK    4  A    between atoms: C_14  and  C_15
REMARK    5  A    between atoms: C_14  and  C_16
REMARK                            x       y       z     vdW  Elec       q    Type
REMARK                         _______ _______ _______ _____ _____    ______ ____
ROOT
ATOM      1  C   UNL     1       0.688   4.791  20.427  0.00  0.00    +0.000 C 
ATOM      2  C   UNL     1       1.933   4.466  20.062  0.00  0.00    +0.000 C 
ATOM      3  C   UNL     1       2.580   3.146  20.321  0.00  0.00    +0.000 C 
ATOM      4  O   UNL     1       2.163   2.268  21.050  0.00  0.00    +0.000 OA
ATOM      5  O   UNL     1       3.764   3.122  19.620  0.00  0.00    +0.000 OA
ATOM      6  C   UNL     1       3.691   4.160  18.649  0.00  0.00    +0.000 C 
ATOM      7  C   UNL     1       5.007   4.722  18.130  0.00  0.00    +0.000 C 
ATOM      8  C   UNL     1       6.221   4.326  18.566  0.00  0.00    +0.000 C 
ATOM      9  C   UNL     1       4.764   5.807  17.153  0.00  0.00    +0.000 C 
ATOM     10  C   UNL     1       5.198   5.781  15.867  0.00  0.00    +0.000 C 
ATOM     11  C   UNL     1       5.971   4.638  15.243  0.00  0.00    +0.000 C 
ATOM     12  C   UNL     1       4.956   6.881  14.856  0.00  0.00    +0.000 C 
ATOM     13  C   UNL     1       3.877   6.911  17.742  0.00  0.00    +0.000 C 
ATOM     14  C   UNL     1       2.577   6.357  18.357  0.00  0.00    +0.000 C 
ATOM     15  C   UNL     1       2.950   5.276  19.360  0.00  0.00    +0.000 C 
ENDROOT
BRANCH   8  16
ATOM     16  C   UNL     1       7.568   4.867  18.162  0.00  0.00    +0.000 C 
BRANCH  16  17
ATOM     17  C   UNL     1       8.031   5.972  19.092  0.00  0.00    +0.000 C 
ATOM     18  O   UNL     1       8.251   7.119  18.736  0.00  0.00    +0.000 OA
BRANCH  17  19
ATOM     19  O   UNL     1       8.137   5.579  20.384  0.00  0.00    +0.000 OA
ATOM     20  H   UNL     1       8.391   6.315  20.975  0.00  0.00    +0.000 HD
ENDBRANCH  17  19
ENDBRANCH  16  17
ENDBRANCH   8  16
TORSDOF 3
ENDMDL
MODEL 3
REMARK VINA RESULT:      -6.9      1.122      1.405
REMARK  Name = 
REMARK  5 active torsions:
REMARK  status: ('A' for Active; 'I' for Inactive)
REMARK    1  A    between atoms: C_8  and  C_9
REMARK    2  A    between atoms: C_9  and  C_10
REMARK    3  A    between atoms: C_10  and  O_12
REMARK    4  A    between atoms: C_14  and  C_15
REMARK    5  A    between atoms: C_14  and  C_16
REMARK                            x       y       z     vdW  Elec       q    Type
REMARK                         _______ _______ _______ _____ _____    ______ ____
ROOT
ATOM      1  C   UNL     1       7.338   6.986  17.000  0.00  0.00    +0.000 C 
ATOM      2  C   UNL     1       6.725   5.926  17.537  0.00  0.00    +0.000 C 
ATOM      3  C   UNL     1       7.419   4.705  18.043  0.00  0.00    +0.000 C 
ATOM      4  O   UNL     1       8.586   4.414  17.871  0.00  0.00    +0.000 OA
ATOM      5  O   UNL     1       6.483   3.942  18.704  0.00  0.00    +0.000 OA
ATOM      6  C   UNL     1       5.373   4.792  18.976  0.00  0.00    +0.000 C 
ATOM      7  C   UNL     1       4.020   4.125  19.178  0.00  0.00    +0.000 C 
ATOM      8  C   UNL     1       3.810   2.797  19.072  0.00  0.00    +0.000 C 
ATOM      9  C   UNL     1       2.969   5.139  19.422  0.00  0.00    +0.000 C 
ATOM     10  C   UNL     1       2.209   5.187  20.545  0.00  0.00    +0.000 C 
ATOM     11  C   UNL     1       2.337   4.231  21.714  0.00  0.00    +0.000 C 
ATOM     12  C   UNL     1       1.133   6.218  20.812  0.00  0.00    +0.000 C 
ATOM     13  C   UNL     1       2.918   6.183  18.300  0.00  0.00    +0.000 C 
ATOM     14  C   UNL     1       4.297   6.808  18.012  0.00  0.00    +0.000 C 
ATOM     15  C   UNL     1       5.283   5.680  17.750  0.00  0.00    +0.000 C 
ENDROOT
BRANCH   8  16
ATOM     16  C   UNL     1       2.501   2.059  19.189  0.00  0.00    +0.000 C 
BRANCH  16  17
ATOM     17  C   UNL     1       1.516   2.489  18.119  0.00  0.00    +0.000 C 
ATOM     18  O   UNL     1       1.839   2.880  17.008  0.00  0.00    +0.000 OA
BRANCH  17  19
ATOM     19  O   UNL     1       0.221   2.357  18.495  0.00  0.00    +0.000 OA
ATOM     20  H   UNL     1       0.133   2.033  19.412  0.00  0.00    +0.000 HD
ENDBRANCH  17  19
ENDBRANCH  16  17
ENDBRANCH   8  16
TORSDOF 3
ENDMDL
MODEL 4
REMARK VINA RESULT:      -6.6      1.627      1.965
REMARK  Name = 
REMARK  5 active torsions:
REMARK  status: ('A' for Active; 'I' for Inactive)
REMARK    1  A    between atoms: C_8  and  C_9
REMARK    2  A    between atoms: C_9  and  C_10
REMARK    3  A    between atoms: C_10  and  O_12
REMARK    4  A    between atoms: C_14  and  C_15
REMARK    5  A    between atoms: C_14  and  C_16
REMARK                            x       y       z     vdW  Elec       q    Type
REMARK                         _______ _______ _______ _____ _____    ______ ____
ROOT
ATOM      1  C   UNL     1       7.019   6.332  16.470  0.00  0.00    +0.000 C 
ATOM      2  C   UNL     1       6.218   5.937  17.465  0.00  0.00    +0.000 C 
ATOM      3  C   UNL     1       6.657   5.145  18.651  0.00  0.00    +0.000 C 
ATOM      4  O   UNL     1       7.729   4.589  18.791  0.00  0.00    +0.000 OA
ATOM      5  O   UNL     1       5.609   5.118  19.542  0.00  0.00    +0.000 OA
ATOM      6  C   UNL     1       4.715   6.160  19.161  0.00  0.00    +0.000 C 
ATOM      7  C   UNL     1       3.261   6.019  19.586  0.00  0.00    +0.000 C 
ATOM      8  C   UNL     1       2.770   4.956  20.257  0.00  0.00    +0.000 C 
ATOM      9  C   UNL     1       2.459   7.161  19.093  0.00  0.00    +0.000 C 
ATOM     10  C   UNL     1       1.772   8.010  19.899  0.00  0.00    +0.000 C 
ATOM     11  C   UNL     1       1.742   7.925  21.412  0.00  0.00    +0.000 C 
ATOM     12  C   UNL     1       0.950   9.183  19.411  0.00  0.00    +0.000 C 
ATOM     13  C   UNL     1       2.585   7.327  17.574  0.00  0.00    +0.000 C 
ATOM     14  C   UNL     1       4.053   7.380  17.106  0.00  0.00    +0.000 C 
ATOM     15  C   UNL     1       4.766   6.150  17.645  0.00  0.00    +0.000 C 
ENDROOT
BRANCH   8  16
ATOM     16  C   UNL     1       1.341   4.701  20.661  0.00  0.00    +0.000 C 
BRANCH  16  17
ATOM     17  C   UNL     1       1.084   3.228  20.916  0.00  0.00    +0.000 C 
ATOM     18  O   UNL     1       1.460   2.629  21.911  0.00  0.00    +0.000 OA
BRANCH  17  19
ATOM     19  O   UNL     1       0.348   2.634  19.945  0.00  0.00    +0.000 OA
ATOM     20  H   UNL     1      -0.609   2.787  20.061  0.00  0.00    +0.000 HD
ENDBRANCH  17  19
ENDBRANCH  16  17
ENDBRANCH   8  16
TORSDOF 3
ENDMDL
MODEL 5
REMARK VINA RESULT:      -6.6      3.078      5.197
REMARK  Name = 
REMARK  5 active torsions:
REMARK  status: ('A' for Active; 'I' for Inactive)
REMARK    1  A    between atoms: C_8  and  C_9
REMARK    2  A    between atoms: C_9  and  C_10
REMARK    3  A    between atoms: C_10  and  O_12
REMARK    4  A    between atoms: C_14  and  C_15
REMARK    5  A    between atoms: C_14  and  C_16
REMARK                            x       y       z     vdW  Elec       q    Type
REMARK                         _______ _______ _______ _____ _____    ______ ____
ROOT
ATOM      1  C   UNL     1       5.860   2.757  12.364  0.00  0.00    +0.000 C 
ATOM      2  C   UNL     1       6.257   3.698  13.227  0.00  0.00    +0.000 C 
ATOM      3  C   UNL     1       7.135   4.855  12.884  0.00  0.00    +0.000 C 
ATOM      4  O   UNL     1       7.761   5.006  11.853  0.00  0.00    +0.000 OA
ATOM      5  O   UNL     1       7.145   5.703  13.968  0.00  0.00    +0.000 OA
ATOM      6  C   UNL     1       6.033   5.345  14.783  0.00  0.00    +0.000 C 
ATOM      7  C   UNL     1       6.108   5.706  16.259  0.00  0.00    +0.000 C 
ATOM      8  C   UNL     1       7.173   6.300  16.838  0.00  0.00    +0.000 C 
ATOM      9  C   UNL     1       4.896   5.245  16.973  0.00  0.00    +0.000 C 
ATOM     10  C   UNL     1       4.051   6.070  17.643  0.00  0.00    +0.000 C 
ATOM     11  C   UNL     1       4.212   7.573  17.740  0.00  0.00    +0.000 C 
ATOM     12  C   UNL     1       2.807   5.615  18.375  0.00  0.00    +0.000 C 
ATOM     13  C   UNL     1       4.660   3.743  16.775  0.00  0.00    +0.000 C 
ATOM     14  C   UNL     1       4.671   3.335  15.289  0.00  0.00    +0.000 C 
ATOM     15  C   UNL     1       5.967   3.834  14.670  0.00  0.00    +0.000 C 
ENDROOT
BRANCH   8  16
ATOM     16  C   UNL     1       7.363   6.633  18.295  0.00  0.00    +0.000 C 
BRANCH  16  17
ATOM     17  C   UNL     1       7.827   5.429  19.092  0.00  0.00    +0.000 C 
ATOM     18  O   UNL     1       8.206   4.382  18.591  0.00  0.00    +0.000 OA
BRANCH  17  19
ATOM     19  O   UNL     1       7.826   5.635  20.431  0.00  0.00    +0.000 OA
ATOM     20  H   UNL     1       7.677   6.573  20.661  0.00  0.00    +0.000 HD
ENDBRANCH  17  19
ENDBRANCH  16  17
ENDBRANCH   8  16
TORSDOF 3
ENDMDL
MODEL 6
REMARK VINA RESULT:      -6.6      2.329      5.533
REMARK  Name = 
REMARK  5 active torsions:
REMARK  status: ('A' for Active; 'I' for Inactive)
REMARK    1  A    between atoms: C_8  and  C_9
REMARK    2  A    between atoms: C_9  and  C_10
REMARK    3  A    between atoms: C_10  and  O_12
REMARK    4  A    between atoms: C_14  and  C_15
REMARK    5  A    between atoms: C_14  and  C_16
REMARK                            x       y       z     vdW  Elec       q    Type
REMARK                         _______ _______ _______ _____ _____    ______ ____
ROOT
ATOM      1  C   UNL     1       1.718   3.310  20.805  0.00  0.00    +0.000 C 
ATOM      2  C   UNL     1       2.235   3.313  19.573  0.00  0.00    +0.000 C 
ATOM      3  C   UNL     1       1.534   2.813  18.353  0.00  0.00    +0.000 C 
ATOM      4  O   UNL     1       0.503   2.170  18.325  0.00  0.00    +0.000 OA
ATOM      5  O   UNL     1       2.294   3.172  17.263  0.00  0.00    +0.000 OA
ATOM      6  C   UNL     1       3.190   4.189  17.701  0.00  0.00    +0.000 C 
ATOM      7  C   UNL     1       4.476   4.372  16.907  0.00  0.00    +0.000 C 
ATOM      8  C   UNL     1       4.827   3.607  15.852  0.00  0.00    +0.000 C 
ATOM      9  C   UNL     1       5.309   5.441  17.501  0.00  0.00    +0.000 C 
ATOM     10  C   UNL     1       5.691   6.562  16.837  0.00  0.00    +0.000 C 
ATOM     11  C   UNL     1       5.306   6.890  15.409  0.00  0.00    +0.000 C 
ATOM     12  C   UNL     1       6.541   7.665  17.430  0.00  0.00    +0.000 C 
ATOM     13  C   UNL     1       5.600   5.175  18.982  0.00  0.00    +0.000 C 
ATOM     14  C   UNL     1       4.319   4.895  19.794  0.00  0.00    +0.000 C 
ATOM     15  C   UNL     1       3.563   3.767  19.110  0.00  0.00    +0.000 C 
ENDROOT
BRANCH   8  16
ATOM     16  C   UNL     1       6.101   3.672  15.051  0.00  0.00    +0.000 C 
BRANCH  16  17
ATOM     17  C   UNL     1       5.827   3.667  13.559  0.00  0.00    +0.000 C 
ATOM     18  O   UNL     1       4.749   3.950  13.060  0.00  0.00    +0.000 OA
BRANCH  17  19
ATOM     19  O   UNL     1       6.915   3.361  12.812  0.00  0.00    +0.000 OA
ATOM     20  H   UNL     1       6.690   2.804  12.042  0.00  0.00    +0.000 HD
ENDBRANCH  17  19
ENDBRANCH  16  17
ENDBRANCH   8  16
TORSDOF 3
ENDMDL
MODEL 7
REMARK VINA RESULT:      -6.6      2.894      5.735
REMARK  Name = 
REMARK  5 active torsions:
REMARK  status: ('A' for Active; 'I' for Inactive)
REMARK    1  A    between atoms: C_8  and  C_9
REMARK    2  A    between atoms: C_9  and  C_10
REMARK    3  A    between atoms: C_10  and  O_12
REMARK    4  A    between atoms: C_14  and  C_15
REMARK    5  A    between atoms: C_14  and  C_16
REMARK                            x       y       z     vdW  Elec       q    Type
REMARK                         _______ _______ _______ _____ _____    ______ ____
ROOT
ATOM      1  C   UNL     1       2.048   1.372  20.052  0.00  0.00    +0.000 C 
ATOM      2  C   UNL     1       2.268   2.687  19.956  0.00  0.00    +0.000 C 
ATOM      3  C   UNL     1       2.303   3.633  21.111  0.00  0.00    +0.000 C 
ATOM      4  O   UNL     1       1.955   3.394  22.250  0.00  0.00    +0.000 OA
ATOM      5  O   UNL     1       2.760   4.843  20.640  0.00  0.00    +0.000 OA
ATOM      6  C   UNL     1       3.376   4.591  19.381  0.00  0.00    +0.000 C 
ATOM      7  C   UNL     1       3.464   5.756  18.405  0.00  0.00    +0.000 C 
ATOM      8  C   UNL     1       2.959   6.983  18.647  0.00  0.00    +0.000 C 
ATOM      9  C   UNL     1       4.101   5.329  17.138  0.00  0.00    +0.000 C 
ATOM     10  C   UNL     1       5.238   5.876  16.640  0.00  0.00    +0.000 C 
ATOM     11  C   UNL     1       6.028   6.980  17.312  0.00  0.00    +0.000 C 
ATOM     12  C   UNL     1       5.903   5.450  15.349  0.00  0.00    +0.000 C 
ATOM     13  C   UNL     1       3.375   4.130  16.516  0.00  0.00    +0.000 C 
ATOM     14  C   UNL     1       3.192   2.969  17.514  0.00  0.00    +0.000 C 
ATOM     15  C   UNL     1       2.507   3.516  18.756  0.00  0.00    +0.000 C 
ENDROOT
BRANCH   8  16
ATOM     16  C   UNL     1       2.941   8.171  17.720  0.00  0.00    +0.000 C 
BRANCH  16  17
ATOM     17  C   UNL     1       1.918   9.205  18.152  0.00  0.00    +0.000 C 
ATOM     18  O   UNL     1       1.239   9.115  19.164  0.00  0.00    +0.000 OA
BRANCH  17  19
ATOM     19  O   UNL     1       1.855  10.277  17.328  0.00  0.00    +0.000 OA
ATOM     20  H   UNL     1       2.244  10.094  16.451  0.00  0.00    +0.000 HD
ENDBRANCH  17  19
ENDBRANCH  16  17
ENDBRANCH   8  16
TORSDOF 3
ENDMDL
MODEL 8
REMARK VINA RESULT:      -6.5      2.227      5.808
REMARK  Name = 
REMARK  5 active torsions:
REMARK  status: ('A' for Active; 'I' for Inactive)
REMARK    1  A    between atoms: C_8  and  C_9
REMARK    2  A    between atoms: C_9  and  C_10
REMARK    3  A    between atoms: C_10  and  O_12
REMARK    4  A    between atoms: C_14  and  C_15
REMARK    5  A    between atoms: C_14  and  C_16
REMARK                            x       y       z     vdW  Elec       q    Type
REMARK                         _______ _______ _______ _____ _____    ______ ____
ROOT
ATOM      1  C   UNL     1       1.016   4.126  20.449  0.00  0.00    +0.000 C 
ATOM      2  C   UNL     1       2.317   3.993  20.171  0.00  0.00    +0.000 C 
ATOM      3  C   UNL     1       3.227   2.997  20.809  0.00  0.00    +0.000 C 
ATOM      4  O   UNL     1       2.980   2.313  21.783  0.00  0.00    +0.000 OA
ATOM      5  O   UNL     1       4.418   3.025  20.121  0.00  0.00    +0.000 OA
ATOM      6  C   UNL     1       4.163   3.673  18.879  0.00  0.00    +0.000 C 
ATOM      7  C   UNL     1       5.346   4.329  18.181  0.00  0.00    +0.000 C 
ATOM      8  C   UNL     1       6.595   4.368  18.688  0.00  0.00    +0.000 C 
ATOM      9  C   UNL     1       4.915   4.980  16.923  0.00  0.00    +0.000 C 
ATOM     10  C   UNL     1       5.404   4.660  15.698  0.00  0.00    +0.000 C 
ATOM     11  C   UNL     1       6.439   3.585  15.438  0.00  0.00    +0.000 C 
ATOM     12  C   UNL     1       4.972   5.314  14.403  0.00  0.00    +0.000 C 
ATOM     13  C   UNL     1       3.780   5.982  17.165  0.00  0.00    +0.000 C 
ATOM     14  C   UNL     1       2.606   5.366  17.952  0.00  0.00    +0.000 C 
ATOM     15  C   UNL     1       3.162   4.757  19.229  0.00  0.00    +0.000 C 
ENDROOT
BRANCH   8  16
ATOM     16  C   UNL     1       7.807   5.047  18.104  0.00  0.00    +0.000 C 
BRANCH  16  17
ATOM     17  C   UNL     1       7.733   6.554  18.257  0.00  0.00    +0.000 C 
ATOM     18  O   UNL     1       7.053   7.282  17.550  0.00  0.00    +0.000 OA
BRANCH  17  19
ATOM     19  O   UNL     1       8.466   7.027  19.294  0.00  0.00    +0.000 OA
ATOM     20  H   UNL     1       8.002   6.935  20.148  0.00  0.00    +0.000 HD
ENDBRANCH  17  19
ENDBRANCH  16  17
ENDBRANCH   8  16
TORSDOF 3
ENDMDL
MODEL 9
REMARK VINA RESULT:      -6.4      3.021      3.908
REMARK  Name = 
REMARK  5 active torsions:
REMARK  status: ('A' for Active; 'I' for Inactive)
REMARK    1  A    between atoms: C_8  and  C_9
REMARK    2  A    between atoms: C_9  and  C_10
REMARK    3  A    between atoms: C_10  and  O_12
REMARK    4  A    between atoms: C_14  and  C_15
REMARK    5  A    between atoms: C_14  and  C_16
REMARK                            x       y       z     vdW  Elec       q    Type
REMARK                         _______ _______ _______ _____ _____    ______ ____
ROOT
ATOM      1  C   UNL     1       5.682   5.505  15.533  0.00  0.00    +0.000 C 
ATOM      2  C   UNL     1       5.740   4.890  16.719  0.00  0.00    +0.000 C 
ATOM      3  C   UNL     1       6.783   5.138  17.757  0.00  0.00    +0.000 C 
ATOM      4  O   UNL     1       7.813   5.768  17.611  0.00  0.00    +0.000 OA
ATOM      5  O   UNL     1       6.391   4.483  18.902  0.00  0.00    +0.000 OA
ATOM      6  C   UNL     1       5.005   4.190  18.757  0.00  0.00    +0.000 C 
ATOM      7  C   UNL     1       4.451   3.027  19.568  0.00  0.00    +0.000 C 
ATOM      8  C   UNL     1       5.199   2.244  20.373  0.00  0.00    +0.000 C 
ATOM      9  C   UNL     1       3.011   2.833  19.286  0.00  0.00    +0.000 C 
ATOM     10  C   UNL     1       2.038   2.903  20.230  0.00  0.00    +0.000 C 
ATOM     11  C   UNL     1       2.279   3.209  21.694  0.00  0.00    +0.000 C 
ATOM     12  C   UNL     1       0.561   2.709  19.958  0.00  0.00    +0.000 C 
ATOM     13  C   UNL     1       2.748   2.645  17.788  0.00  0.00    +0.000 C 
ATOM     14  C   UNL     1       3.378   3.762  16.933  0.00  0.00    +0.000 C 
ATOM     15  C   UNL     1       4.855   3.851  17.285  0.00  0.00    +0.000 C 
ENDROOT
BRANCH   8  16
ATOM     16  C   UNL     1       4.753   1.039  21.159  0.00  0.00    +0.000 C 
BRANCH  16  17
ATOM     17  C   UNL     1       5.931   0.282  21.742  0.00  0.00    +0.000 C 
ATOM     18  O   UNL     1       6.225  -0.865  21.441  0.00  0.00    +0.000 OA
BRANCH  17  19
ATOM     19  O   UNL     1       6.669   1.017  22.608  0.00  0.00    +0.000 OA
ATOM     20  H   UNL     1       6.119   1.452  23.287  0.00  0.00    +0.000 HD
ENDBRANCH  17  19
ENDBRANCH  16  17
ENDBRANCH   8  16
TORSDOF 3
ENDMDL
