MODEL 1
REMARK VINA RESULT:      -8.4      0.000      0.000
REMARK  Name = 
REMARK  8 active torsions:
REMARK  status: ('A' for Active; 'I' for Inactive)
REMARK    1  A    between atoms: C_1  and  C_2
REMARK    2  A    between atoms: N_4  and  C_5
REMARK    3  A    between atoms: N_4  and  S_9
REMARK    4  A    between atoms: C_5  and  C_6
REMARK    5  A    between atoms: S_9  and  C_12
REMARK    6  A    between atoms: C_15  and  N_16
REMARK    7  A    between atoms: N_16  and  C_17
REMARK    8  A    between atoms: C_25  and  C_26
REMARK                            x       y       z     vdW  Elec       q    Type
REMARK                         _______ _______ _______ _____ _____    ______ ____
ROOT
ATOM      1  C   UNL     1       3.748   5.890  18.118  0.00  0.00    +0.000 A 
ATOM      2  C   UNL     1       4.084   7.066  17.425  0.00  0.00    +0.000 A 
ATOM      3  C   UNL     1       3.339   8.242  17.591  0.00  0.00    +0.000 A 
ATOM      4  C   UNL     1       2.196   8.277  18.394  0.00  0.00    +0.000 A 
ATOM      5  C   UNL     1       1.894   7.111  19.103  0.00  0.00    +0.000 A 
ATOM      6  C   UNL     1       2.645   5.905  18.984  0.00  0.00    +0.000 A 
ENDROOT
BRANCH   6   7
ATOM      7  C   UNL     1       2.185   4.772  19.864  0.00  0.00    +0.000 C 
ATOM      8  F   UNL     1       3.093   4.250  20.710  0.00  0.00    +0.000 F 
ATOM      9  F   UNL     1       1.147   5.162  20.659  0.00  0.00    +0.000 F 
ATOM     10  F   UNL     1       1.713   3.717  19.141  0.00  0.00    +0.000 F 
ENDBRANCH   6   7
BRANCH   1  11
ATOM     11  S   UNL     1       4.686   4.400  17.722  0.00  0.00    +0.000 S 
ATOM     12  O   UNL     1       3.771   3.493  17.050  0.00  0.00    +0.000 OA
ATOM     13  O   UNL     1       5.293   4.001  18.978  0.00  0.00    +0.000 OA
BRANCH  11  17
ATOM     14  C   UNL     1       7.465   5.767  18.327  0.00  0.00    +0.000 C 
ATOM     15  C   UNL     1       6.985   5.676  16.905  0.00  0.00    +0.000 C 
ATOM     16  O   UNL     1       7.623   6.244  16.022  0.00  0.00    +0.000 OA
ATOM     17  N   UNL     1       5.849   4.866  16.582  0.00  0.00    +0.000 N 
BRANCH  17  18
ATOM     18  C   UNL     1       5.410   4.811  15.150  0.00  0.00    +0.000 C 
BRANCH  18  19
ATOM     19  C   UNL     1       6.182   3.827  14.318  0.00  0.00    +0.000 C 
ATOM     20  C   UNL     1       5.744   3.553  12.892  0.00  0.00    +0.000 C 
ATOM     21  C   UNL     1       7.012   4.312  13.151  0.00  0.00    +0.000 C 
ENDBRANCH  18  19
ENDBRANCH  17  18
ENDBRANCH  11  17
ENDBRANCH   1  11
BRANCH   4  22
ATOM     22  N   UNL     1       1.495   9.476  18.525  0.00  0.00    +0.000 N 
ATOM     23  H   UNL     1       1.288   9.917  17.635  0.00  0.00    +0.000 HD
BRANCH  22  24
ATOM     24  C   UNL     1       0.466   9.676  19.544  0.00  0.00    +0.000 C 
ATOM     25  C   UNL     1      -0.862  10.255  19.020  0.00  0.00    +0.000 C 
ATOM     26  C   UNL     1      -1.166  11.402  20.015  0.00  0.00    +0.000 C 
ATOM     27  C   UNL     1      -0.293  12.610  19.647  0.00  0.00    +0.000 C 
ATOM     28  C   UNL     1       1.112  12.129  20.030  0.00  0.00    +0.000 C 
ATOM     29  C   UNL     1       0.868  10.720  20.616  0.00  0.00    +0.000 C 
ATOM     30  C   UNL     1      -0.487  10.928  21.300  0.00  0.00    +0.000 C 
ENDBRANCH  22  24
ENDBRANCH   4  22
TORSDOF 7
ENDMDL
MODEL 2
REMARK VINA RESULT:      -8.1      2.136      2.958
REMARK  Name = 
REMARK  8 active torsions:
REMARK  status: ('A' for Active; 'I' for Inactive)
REMARK    1  A    between atoms: C_1  and  C_2
REMARK    2  A    between atoms: N_4  and  C_5
REMARK    3  A    between atoms: N_4  and  S_9
REMARK    4  A    between atoms: C_5  and  C_6
REMARK    5  A    between atoms: S_9  and  C_12
REMARK    6  A    between atoms: C_15  and  N_16
REMARK    7  A    between atoms: N_16  and  C_17
REMARK    8  A    between atoms: C_25  and  C_26
REMARK                            x       y       z     vdW  Elec       q    Type
REMARK                         _______ _______ _______ _____ _____    ______ ____
ROOT
ATOM      1  C   UNL     1       3.152   5.985  17.994  0.00  0.00    +0.000 A 
ATOM      2  C   UNL     1       3.507   7.122  17.247  0.00  0.00    +0.000 A 
ATOM      3  C   UNL     1       3.016   8.391  17.583  0.00  0.00    +0.000 A 
ATOM      4  C   UNL     1       2.103   8.571  18.625  0.00  0.00    +0.000 A 
ATOM      5  C   UNL     1       1.786   7.438  19.381  0.00  0.00    +0.000 A 
ATOM      6  C   UNL     1       2.288   6.137  19.089  0.00  0.00    +0.000 A 
ENDROOT
BRANCH   6   7
ATOM      7  C   UNL     1       1.862   5.055  20.047  0.00  0.00    +0.000 C 
ATOM      8  F   UNL     1       1.407   3.908  19.507  0.00  0.00    +0.000 F 
ATOM      9  F   UNL     1       2.898   4.679  20.851  0.00  0.00    +0.000 F 
ATOM     10  F   UNL     1       0.877   5.472  20.893  0.00  0.00    +0.000 F 
ENDBRANCH   6   7
BRANCH   1  11
ATOM     11  S   UNL     1       3.726   4.385  17.390  0.00  0.00    +0.000 S 
ATOM     12  O   UNL     1       4.560   4.648  16.230  0.00  0.00    +0.000 OA
ATOM     13  O   UNL     1       2.520   3.593  17.237  0.00  0.00    +0.000 OA
BRANCH  11  17
ATOM     14  C   UNL     1       3.589   1.493  18.647  0.00  0.00    +0.000 C 
ATOM     15  C   UNL     1       4.484   2.526  19.275  0.00  0.00    +0.000 C 
ATOM     16  O   UNL     1       5.048   2.263  20.334  0.00  0.00    +0.000 OA
ATOM     17  N   UNL     1       4.738   3.762  18.598  0.00  0.00    +0.000 N 
BRANCH  17  18
ATOM     18  C   UNL     1       5.635   4.758  19.266  0.00  0.00    +0.000 C 
BRANCH  18  19
ATOM     19  C   UNL     1       6.902   5.038  18.509  0.00  0.00    +0.000 C 
ATOM     20  C   UNL     1       7.135   6.420  17.932  0.00  0.00    +0.000 C 
ATOM     21  C   UNL     1       7.949   5.952  19.101  0.00  0.00    +0.000 C 
ENDBRANCH  18  19
ENDBRANCH  17  18
ENDBRANCH  11  17
ENDBRANCH   1  11
BRANCH   4  22
ATOM     22  N   UNL     1       1.650   9.858  18.917  0.00  0.00    +0.000 N 
ATOM     23  H   UNL     1       1.992  10.558  18.267  0.00  0.00    +0.000 HD
BRANCH  22  24
ATOM     24  C   UNL     1       0.304  10.120  19.424  0.00  0.00    +0.000 C 
ATOM     25  C   UNL     1      -0.778  10.279  18.340  0.00  0.00    +0.000 C 
ATOM     26  C   UNL     1      -1.522  11.568  18.768  0.00  0.00    +0.000 C 
ATOM     27  C   UNL     1      -0.677  12.780  18.348  0.00  0.00    +0.000 C 
ATOM     28  C   UNL     1       0.520  12.691  19.302  0.00  0.00    +0.000 C 
ATOM     29  C   UNL     1       0.193  11.465  20.185  0.00  0.00    +0.000 C 
ATOM     30  C   UNL     1      -1.331  11.585  20.284  0.00  0.00    +0.000 C 
ENDBRANCH  22  24
ENDBRANCH   4  22
TORSDOF 7
ENDMDL
MODEL 3
REMARK VINA RESULT:      -8.0      1.189      1.667
REMARK  Name = 
REMARK  8 active torsions:
REMARK  status: ('A' for Active; 'I' for Inactive)
REMARK    1  A    between atoms: C_1  and  C_2
REMARK    2  A    between atoms: N_4  and  C_5
REMARK    3  A    between atoms: N_4  and  S_9
REMARK    4  A    between atoms: C_5  and  C_6
REMARK    5  A    between atoms: S_9  and  C_12
REMARK    6  A    between atoms: C_15  and  N_16
REMARK    7  A    between atoms: N_16  and  C_17
REMARK    8  A    between atoms: C_25  and  C_26
REMARK                            x       y       z     vdW  Elec       q    Type
REMARK                         _______ _______ _______ _____ _____    ______ ____
ROOT
ATOM      1  C   UNL     1       3.464   5.026  19.200  0.00  0.00    +0.000 A 
ATOM      2  C   UNL     1       3.617   6.350  18.751  0.00  0.00    +0.000 A 
ATOM      3  C   UNL     1       2.778   7.373  19.216  0.00  0.00    +0.000 A 
ATOM      4  C   UNL     1       1.716   7.111  20.086  0.00  0.00    +0.000 A 
ATOM      5  C   UNL     1       1.598   5.798  20.551  0.00  0.00    +0.000 A 
ATOM      6  C   UNL     1       2.450   4.737  20.125  0.00  0.00    +0.000 A 
ENDROOT
BRANCH   6   7
ATOM      7  C   UNL     1       2.187   3.403  20.773  0.00  0.00    +0.000 C 
ATOM      8  F   UNL     1       3.165   2.899  21.549  0.00  0.00    +0.000 F 
ATOM      9  F   UNL     1       1.090   3.461  21.583  0.00  0.00    +0.000 F 
ATOM     10  F   UNL     1       1.912   2.430  19.858  0.00  0.00    +0.000 F 
ENDBRANCH   6   7
BRANCH   1  11
ATOM     11  S   UNL     1       4.502   3.767  18.431  0.00  0.00    +0.000 S 
ATOM     12  O   UNL     1       3.641   2.985  17.562  0.00  0.00    +0.000 OA
ATOM     13  O   UNL     1       5.178   3.118  19.538  0.00  0.00    +0.000 OA
BRANCH  11  17
ATOM     14  C   UNL     1       7.001   5.451  19.370  0.00  0.00    +0.000 C 
ATOM     15  C   UNL     1       6.567   5.520  17.932  0.00  0.00    +0.000 C 
ATOM     16  O   UNL     1       7.114   6.323  17.180  0.00  0.00    +0.000 OA
ATOM     17  N   UNL     1       5.589   4.600  17.433  0.00  0.00    +0.000 N 
BRANCH  17  18
ATOM     18  C   UNL     1       5.190   4.712  15.993  0.00  0.00    +0.000 C 
BRANCH  18  19
ATOM     19  C   UNL     1       6.077   3.941  15.056  0.00  0.00    +0.000 C 
ATOM     20  C   UNL     1       5.739   3.896  13.579  0.00  0.00    +0.000 C 
ATOM     21  C   UNL     1       6.930   4.677  14.049  0.00  0.00    +0.000 C 
ENDBRANCH  18  19
ENDBRANCH  17  18
ENDBRANCH  11  17
ENDBRANCH   1  11
BRANCH   4  22
ATOM     22  N   UNL     1       0.916   8.169  20.519  0.00  0.00    +0.000 N 
ATOM     23  H   UNL     1       0.492   8.004  21.425  0.00  0.00    +0.000 HD
BRANCH  22  24
ATOM     24  C   UNL     1       1.260   9.567  20.265  0.00  0.00    +0.000 C 
ATOM     25  C   UNL     1       0.671  10.572  21.272  0.00  0.00    +0.000 C 
ATOM     26  C   UNL     1       0.064  11.670  20.365  0.00  0.00    +0.000 C 
ATOM     27  C   UNL     1      -1.280  11.163  19.821  0.00  0.00    +0.000 C 
ATOM     28  C   UNL     1      -0.846  10.057  18.851  0.00  0.00    +0.000 C 
ATOM     29  C   UNL     1       0.697  10.096  18.921  0.00  0.00    +0.000 C 
ATOM     30  C   UNL     1       0.935  11.598  19.111  0.00  0.00    +0.000 C 
ENDBRANCH  22  24
ENDBRANCH   4  22
TORSDOF 7
ENDMDL
MODEL 4
REMARK VINA RESULT:      -8.0      4.610      8.344
REMARK  Name = 
REMARK  8 active torsions:
REMARK  status: ('A' for Active; 'I' for Inactive)
REMARK    1  A    between atoms: C_1  and  C_2
REMARK    2  A    between atoms: N_4  and  C_5
REMARK    3  A    between atoms: N_4  and  S_9
REMARK    4  A    between atoms: C_5  and  C_6
REMARK    5  A    between atoms: S_9  and  C_12
REMARK    6  A    between atoms: C_15  and  N_16
REMARK    7  A    between atoms: N_16  and  C_17
REMARK    8  A    between atoms: C_25  and  C_26
REMARK                            x       y       z     vdW  Elec       q    Type
REMARK                         _______ _______ _______ _____ _____    ______ ____
ROOT
ATOM      1  C   UNL     1       1.188   9.931  19.482  0.00  0.00    +0.000 A 
ATOM      2  C   UNL     1       1.876   9.540  18.320  0.00  0.00    +0.000 A 
ATOM      3  C   UNL     1       2.338   8.226  18.160  0.00  0.00    +0.000 A 
ATOM      4  C   UNL     1       2.198   7.272  19.171  0.00  0.00    +0.000 A 
ATOM      5  C   UNL     1       1.482   7.664  20.306  0.00  0.00    +0.000 A 
ATOM      6  C   UNL     1       0.970   8.981  20.492  0.00  0.00    +0.000 A 
ENDROOT
BRANCH   6   7
ATOM      7  C   UNL     1       0.191   9.193  21.764  0.00  0.00    +0.000 C 
ATOM      8  F   UNL     1      -0.754  10.153  21.746  0.00  0.00    +0.000 F 
ATOM      9  F   UNL     1      -0.470   8.056  22.126  0.00  0.00    +0.000 F 
ATOM     10  F   UNL     1       0.998   9.498  22.819  0.00  0.00    +0.000 F 
ENDBRANCH   6   7
BRANCH   1  11
ATOM     11  S   UNL     1       0.764  11.677  19.645  0.00  0.00    +0.000 S 
ATOM     12  O   UNL     1       1.428  12.374  18.557  0.00  0.00    +0.000 OA
ATOM     13  O   UNL     1       1.099  12.012  21.017  0.00  0.00    +0.000 OA
BRANCH  11  17
ATOM     14  C   UNL     1      -1.190  13.892  20.754  0.00  0.00    +0.000 C 
ATOM     15  C   UNL     1      -1.764  12.683  20.069  0.00  0.00    +0.000 C 
ATOM     16  O   UNL     1      -2.981  12.520  20.063  0.00  0.00    +0.000 OA
ATOM     17  N   UNL     1      -0.902  11.784  19.361  0.00  0.00    +0.000 N 
BRANCH  17  18
ATOM     18  C   UNL     1      -1.523  10.593  18.696  0.00  0.00    +0.000 C 
BRANCH  18  19
ATOM     19  C   UNL     1      -1.970  10.850  17.286  0.00  0.00    +0.000 C 
ATOM     20  C   UNL     1      -2.522   9.706  16.459  0.00  0.00    +0.000 C 
ATOM     21  C   UNL     1      -3.439  10.792  16.937  0.00  0.00    +0.000 C 
ENDBRANCH  18  19
ENDBRANCH  17  18
ENDBRANCH  11  17
ENDBRANCH   1  11
BRANCH   4  22
ATOM     22  N   UNL     1       2.674   5.979  18.955  0.00  0.00    +0.000 N 
ATOM     23  H   UNL     1       3.676   5.894  19.094  0.00  0.00    +0.000 HD
BRANCH  22  24
ATOM     24  C   UNL     1       1.915   4.789  19.335  0.00  0.00    +0.000 C 
ATOM     25  C   UNL     1       2.707   3.746  20.146  0.00  0.00    +0.000 C 
ATOM     26  C   UNL     1       2.382   2.414  19.425  0.00  0.00    +0.000 C 
ATOM     27  C   UNL     1       3.237   2.329  18.153  0.00  0.00    +0.000 C 
ATOM     28  C   UNL     1       2.612   3.412  17.264  0.00  0.00    +0.000 C 
ATOM     29  C   UNL     1       1.443   3.954  18.118  0.00  0.00    +0.000 C 
ATOM     30  C   UNL     1       0.997   2.675  18.834  0.00  0.00    +0.000 C 
ENDBRANCH  22  24
ENDBRANCH   4  22
TORSDOF 7
ENDMDL
MODEL 5
REMARK VINA RESULT:      -8.0      4.395      8.376
REMARK  Name = 
REMARK  8 active torsions:
REMARK  status: ('A' for Active; 'I' for Inactive)
REMARK    1  A    between atoms: C_1  and  C_2
REMARK    2  A    between atoms: N_4  and  C_5
REMARK    3  A    between atoms: N_4  and  S_9
REMARK    4  A    between atoms: C_5  and  C_6
REMARK    5  A    between atoms: S_9  and  C_12
REMARK    6  A    between atoms: C_15  and  N_16
REMARK    7  A    between atoms: N_16  and  C_17
REMARK    8  A    between atoms: C_25  and  C_26
REMARK                            x       y       z     vdW  Elec       q    Type
REMARK                         _______ _______ _______ _____ _____    ______ ____
ROOT
ATOM      1  C   UNL     1       1.078   9.860  19.699  0.00  0.00    +0.000 A 
ATOM      2  C   UNL     1       1.793   9.378  18.589  0.00  0.00    +0.000 A 
ATOM      3  C   UNL     1       2.254   8.055  18.544  0.00  0.00    +0.000 A 
ATOM      4  C   UNL     1       2.084   7.183  19.622  0.00  0.00    +0.000 A 
ATOM      5  C   UNL     1       1.341   7.664  20.704  0.00  0.00    +0.000 A 
ATOM      6  C   UNL     1       0.830   8.993  20.774  0.00  0.00    +0.000 A 
ENDROOT
BRANCH   6   7
ATOM      7  C   UNL     1       0.019   9.305  22.004  0.00  0.00    +0.000 C 
ATOM      8  F   UNL     1      -0.858  10.324  21.914  0.00  0.00    +0.000 F 
ATOM      9  F   UNL     1      -0.729   8.229  22.382  0.00  0.00    +0.000 F 
ATOM     10  F   UNL     1       0.805   9.598  23.079  0.00  0.00    +0.000 F 
ENDBRANCH   6   7
BRANCH   1  11
ATOM     11  S   UNL     1       0.657  11.614  19.714  0.00  0.00    +0.000 S 
ATOM     12  O   UNL     1       1.378  12.229  18.613  0.00  0.00    +0.000 OA
ATOM     13  O   UNL     1       0.924  12.047  21.073  0.00  0.00    +0.000 OA
BRANCH  11  17
ATOM     14  C   UNL     1      -1.286  14.016  20.358  0.00  0.00    +0.000 C 
ATOM     15  C   UNL     1      -1.861  12.722  19.851  0.00  0.00    +0.000 C 
ATOM     16  O   UNL     1      -3.081  12.584  19.815  0.00  0.00    +0.000 OA
ATOM     17  N   UNL     1      -0.993  11.705  19.338  0.00  0.00    +0.000 N 
BRANCH  17  18
ATOM     18  C   UNL     1      -1.615  10.433  18.847  0.00  0.00    +0.000 C 
BRANCH  18  19
ATOM     19  C   UNL     1      -1.662  10.321  17.349  0.00  0.00    +0.000 C 
ATOM     20  C   UNL     1      -2.858   9.664  16.689  0.00  0.00    +0.000 C 
ATOM     21  C   UNL     1      -2.655  11.145  16.562  0.00  0.00    +0.000 C 
ENDBRANCH  18  19
ENDBRANCH  17  18
ENDBRANCH  11  17
ENDBRANCH   1  11
BRANCH   4  22
ATOM     22  N   UNL     1       2.560   5.876  19.520  0.00  0.00    +0.000 N 
ATOM     23  H   UNL     1       2.159   5.250  20.211  0.00  0.00    +0.000 HD
BRANCH  22  24
ATOM     24  C   UNL     1       2.847   5.243  18.234  0.00  0.00    +0.000 C 
ATOM     25  C   UNL     1       1.802   4.210  17.773  0.00  0.00    +0.000 C 
ATOM     26  C   UNL     1       2.665   2.995  17.352  0.00  0.00    +0.000 C 
ATOM     27  C   UNL     1       3.102   2.246  18.620  0.00  0.00    +0.000 C 
ATOM     28  C   UNL     1       4.097   3.226  19.254  0.00  0.00    +0.000 C 
ATOM     29  C   UNL     1       4.146   4.398  18.248  0.00  0.00    +0.000 C 
ATOM     30  C   UNL     1       3.982   3.644  16.924  0.00  0.00    +0.000 C 
ENDBRANCH  22  24
ENDBRANCH   4  22
TORSDOF 7
ENDMDL
MODEL 6
REMARK VINA RESULT:      -7.9      0.969      2.533
REMARK  Name = 
REMARK  8 active torsions:
REMARK  status: ('A' for Active; 'I' for Inactive)
REMARK    1  A    between atoms: C_1  and  C_2
REMARK    2  A    between atoms: N_4  and  C_5
REMARK    3  A    between atoms: N_4  and  S_9
REMARK    4  A    between atoms: C_5  and  C_6
REMARK    5  A    between atoms: S_9  and  C_12
REMARK    6  A    between atoms: C_15  and  N_16
REMARK    7  A    between atoms: N_16  and  C_17
REMARK    8  A    between atoms: C_25  and  C_26
REMARK                            x       y       z     vdW  Elec       q    Type
REMARK                         _______ _______ _______ _____ _____    ______ ____
ROOT
ATOM      1  C   UNL     1       3.905   5.773  18.043  0.00  0.00    +0.000 A 
ATOM      2  C   UNL     1       4.157   7.012  17.427  0.00  0.00    +0.000 A 
ATOM      3  C   UNL     1       3.267   8.085  17.569  0.00  0.00    +0.000 A 
ATOM      4  C   UNL     1       2.064   7.952  18.267  0.00  0.00    +0.000 A 
ATOM      5  C   UNL     1       1.843   6.727  18.903  0.00  0.00    +0.000 A 
ATOM      6  C   UNL     1       2.738   5.622  18.808  0.00  0.00    +0.000 A 
ENDROOT
BRANCH   6   7
ATOM      7  C   UNL     1       2.342   4.405  19.601  0.00  0.00    +0.000 C 
ATOM      8  F   UNL     1       2.347   3.226  18.950  0.00  0.00    +0.000 F 
ATOM      9  F   UNL     1       3.175   4.223  20.665  0.00  0.00    +0.000 F 
ATOM     10  F   UNL     1       1.092   4.520  20.133  0.00  0.00    +0.000 F 
ENDBRANCH   6   7
BRANCH   1  11
ATOM     11  S   UNL     1       5.041   4.421  17.679  0.00  0.00    +0.000 S 
ATOM     12  O   UNL     1       4.356   3.534  16.754  0.00  0.00    +0.000 OA
ATOM     13  O   UNL     1       5.449   3.920  18.978  0.00  0.00    +0.000 OA
BRANCH  11  17
ATOM     14  C   UNL     1       5.436   4.461  14.548  0.00  0.00    +0.000 C 
ATOM     15  C   UNL     1       6.566   4.904  15.437  0.00  0.00    +0.000 C 
ATOM     16  O   UNL     1       7.658   5.153  14.934  0.00  0.00    +0.000 OA
ATOM     17  N   UNL     1       6.338   5.111  16.835  0.00  0.00    +0.000 N 
BRANCH  17  18
ATOM     18  C   UNL     1       7.497   5.551  17.678  0.00  0.00    +0.000 C 
BRANCH  18  19
ATOM     19  C   UNL     1       7.323   6.914  18.284  0.00  0.00    +0.000 C 
ATOM     20  C   UNL     1       8.548   7.735  18.636  0.00  0.00    +0.000 C 
ATOM     21  C   UNL     1       7.678   8.146  17.485  0.00  0.00    +0.000 C 
ENDBRANCH  18  19
ENDBRANCH  17  18
ENDBRANCH  11  17
ENDBRANCH   1  11
BRANCH   4  22
ATOM     22  N   UNL     1       1.218   9.056  18.378  0.00  0.00    +0.000 N 
ATOM     23  H   UNL     1       0.328   8.926  17.908  0.00  0.00    +0.000 HD
BRANCH  22  24
ATOM     24  C   UNL     1       1.140   9.865  19.594  0.00  0.00    +0.000 C 
ATOM     25  C   UNL     1      -0.064   9.555  20.502  0.00  0.00    +0.000 C 
ATOM     26  C   UNL     1      -0.645  10.956  20.813  0.00  0.00    +0.000 C 
ATOM     27  C   UNL     1      -1.461  11.425  19.599  0.00  0.00    +0.000 C 
ATOM     28  C   UNL     1      -0.371  11.682  18.551  0.00  0.00    +0.000 C 
ATOM     29  C   UNL     1       0.942  11.375  19.306  0.00  0.00    +0.000 C 
ATOM     30  C   UNL     1       0.581  11.864  20.713  0.00  0.00    +0.000 C 
ENDBRANCH  22  24
ENDBRANCH   4  22
TORSDOF 7
ENDMDL
MODEL 7
REMARK VINA RESULT:      -7.9      0.821      1.405
REMARK  Name = 
REMARK  8 active torsions:
REMARK  status: ('A' for Active; 'I' for Inactive)
REMARK    1  A    between atoms: C_1  and  C_2
REMARK    2  A    between atoms: N_4  and  C_5
REMARK    3  A    between atoms: N_4  and  S_9
REMARK    4  A    between atoms: C_5  and  C_6
REMARK    5  A    between atoms: S_9  and  C_12
REMARK    6  A    between atoms: C_15  and  N_16
REMARK    7  A    between atoms: N_16  and  C_17
REMARK    8  A    between atoms: C_25  and  C_26
REMARK                            x       y       z     vdW  Elec       q    Type
REMARK                         _______ _______ _______ _____ _____    ______ ____
ROOT
ATOM      1  C   UNL     1       3.745   5.397  18.490  0.00  0.00    +0.000 A 
ATOM      2  C   UNL     1       3.950   6.680  17.950  0.00  0.00    +0.000 A 
ATOM      3  C   UNL     1       3.195   7.777  18.387  0.00  0.00    +0.000 A 
ATOM      4  C   UNL     1       2.166   7.633  19.322  0.00  0.00    +0.000 A 
ATOM      5  C   UNL     1       1.997   6.360  19.874  0.00  0.00    +0.000 A 
ATOM      6  C   UNL     1       2.765   5.226  19.478  0.00  0.00    +0.000 A 
ENDROOT
BRANCH   6   7
ATOM      7  C   UNL     1       2.460   3.953  20.223  0.00  0.00    +0.000 C 
ATOM      8  F   UNL     1       2.092   2.888  19.484  0.00  0.00    +0.000 F 
ATOM      9  F   UNL     1       3.545   3.530  20.933  0.00  0.00    +0.000 F 
ATOM     10  F   UNL     1       1.466   4.117  21.141  0.00  0.00    +0.000 F 
ENDBRANCH   6   7
BRANCH   1  11
ATOM     11  S   UNL     1       4.671   4.033  17.755  0.00  0.00    +0.000 S 
ATOM     12  O   UNL     1       3.739   3.294  16.921  0.00  0.00    +0.000 OA
ATOM     13  O   UNL     1       5.304   3.370  18.879  0.00  0.00    +0.000 OA
BRANCH  11  17
ATOM     14  C   UNL     1       7.312   5.531  18.614  0.00  0.00    +0.000 C 
ATOM     15  C   UNL     1       6.866   5.593  17.179  0.00  0.00    +0.000 C 
ATOM     16  O   UNL     1       7.468   6.324  16.396  0.00  0.00    +0.000 OA
ATOM     17  N   UNL     1       5.809   4.742  16.720  0.00  0.00    +0.000 N 
BRANCH  17  18
ATOM     18  C   UNL     1       5.401   4.842  15.282  0.00  0.00    +0.000 C 
BRANCH  18  19
ATOM     19  C   UNL     1       6.134   3.894  14.376  0.00  0.00    +0.000 C 
ATOM     20  C   UNL     1       5.638   3.684  12.959  0.00  0.00    +0.000 C 
ATOM     21  C   UNL     1       6.918   4.428  13.199  0.00  0.00    +0.000 C 
ENDBRANCH  18  19
ENDBRANCH  17  18
ENDBRANCH  11  17
ENDBRANCH   1  11
BRANCH   4  22
ATOM     22  N   UNL     1       1.450   8.761  19.722  0.00  0.00    +0.000 N 
ATOM     23  H   UNL     1       1.865   9.236  20.516  0.00  0.00    +0.000 HD
BRANCH  22  24
ATOM     24  C   UNL     1       0.793   9.653  18.768  0.00  0.00    +0.000 C 
ATOM     25  C   UNL     1       1.466  11.028  18.596  0.00  0.00    +0.000 C 
ATOM     26  C   UNL     1       0.282  12.019  18.707  0.00  0.00    +0.000 C 
ATOM     27  C   UNL     1      -0.077  12.186  20.191  0.00  0.00    +0.000 C 
ATOM     28  C   UNL     1      -0.683  10.820  20.538  0.00  0.00    +0.000 C 
ATOM     29  C   UNL     1      -0.641  10.052  19.197  0.00  0.00    +0.000 C 
ATOM     30  C   UNL     1      -0.903  11.192  18.208  0.00  0.00    +0.000 C 
ENDBRANCH  22  24
ENDBRANCH   4  22
TORSDOF 7
ENDMDL
MODEL 8
REMARK VINA RESULT:      -7.9      2.168      2.985
REMARK  Name = 
REMARK  8 active torsions:
REMARK  status: ('A' for Active; 'I' for Inactive)
REMARK    1  A    between atoms: C_1  and  C_2
REMARK    2  A    between atoms: N_4  and  C_5
REMARK    3  A    between atoms: N_4  and  S_9
REMARK    4  A    between atoms: C_5  and  C_6
REMARK    5  A    between atoms: S_9  and  C_12
REMARK    6  A    between atoms: C_15  and  N_16
REMARK    7  A    between atoms: N_16  and  C_17
REMARK    8  A    between atoms: C_25  and  C_26
REMARK                            x       y       z     vdW  Elec       q    Type
REMARK                         _______ _______ _______ _____ _____    ______ ____
ROOT
ATOM      1  C   UNL     1       3.109   6.056  18.050  0.00  0.00    +0.000 A 
ATOM      2  C   UNL     1       3.457   7.198  17.308  0.00  0.00    +0.000 A 
ATOM      3  C   UNL     1       2.991   8.469  17.675  0.00  0.00    +0.000 A 
ATOM      4  C   UNL     1       2.111   8.645  18.746  0.00  0.00    +0.000 A 
ATOM      5  C   UNL     1       1.802   7.506  19.496  0.00  0.00    +0.000 A 
ATOM      6  C   UNL     1       2.280   6.203  19.172  0.00  0.00    +0.000 A 
ENDROOT
BRANCH   6   7
ATOM      7  C   UNL     1       1.869   5.113  20.127  0.00  0.00    +0.000 C 
ATOM      8  F   UNL     1       2.845   4.551  20.866  0.00  0.00    +0.000 F 
ATOM      9  F   UNL     1       0.962   5.576  21.035  0.00  0.00    +0.000 F 
ATOM     10  F   UNL     1       1.252   4.076  19.493  0.00  0.00    +0.000 F 
ENDBRANCH   6   7
BRANCH   1  11
ATOM     11  S   UNL     1       3.646   4.457  17.408  0.00  0.00    +0.000 S 
ATOM     12  O   UNL     1       4.449   4.727  16.227  0.00  0.00    +0.000 OA
ATOM     13  O   UNL     1       2.426   3.683  17.279  0.00  0.00    +0.000 OA
BRANCH  11  17
ATOM     14  C   UNL     1       3.535   1.538  18.600  0.00  0.00    +0.000 C 
ATOM     15  C   UNL     1       4.445   2.555  19.231  0.00  0.00    +0.000 C 
ATOM     16  O   UNL     1       5.033   2.267  20.271  0.00  0.00    +0.000 OA
ATOM     17  N   UNL     1       4.684   3.806  18.577  0.00  0.00    +0.000 N 
BRANCH  17  18
ATOM     18  C   UNL     1       5.598   4.786  19.248  0.00  0.00    +0.000 C 
BRANCH  18  19
ATOM     19  C   UNL     1       6.873   5.039  18.495  0.00  0.00    +0.000 C 
ATOM     20  C   UNL     1       7.127   6.410  17.900  0.00  0.00    +0.000 C 
ATOM     21  C   UNL     1       7.928   5.949  19.081  0.00  0.00    +0.000 C 
ENDBRANCH  18  19
ENDBRANCH  17  18
ENDBRANCH  11  17
ENDBRANCH   1  11
BRANCH   4  22
ATOM     22  N   UNL     1       1.683   9.933  19.068  0.00  0.00    +0.000 N 
ATOM     23  H   UNL     1       2.441  10.606  19.114  0.00  0.00    +0.000 HD
BRANCH  22  24
ATOM     24  C   UNL     1       0.422  10.486  18.577  0.00  0.00    +0.000 C 
ATOM     25  C   UNL     1       0.360  12.024  18.537  0.00  0.00    +0.000 C 
ATOM     26  C   UNL     1      -0.996  12.344  19.212  0.00  0.00    +0.000 C 
ATOM     27  C   UNL     1      -0.826  12.217  20.733  0.00  0.00    +0.000 C 
ATOM     28  C   UNL     1      -0.648  10.704  20.918  0.00  0.00    +0.000 C 
ATOM     29  C   UNL     1      -0.786  10.143  19.485  0.00  0.00    +0.000 C 
ATOM     30  C   UNL     1      -1.831  11.101  18.904  0.00  0.00    +0.000 C 
ENDBRANCH  22  24
ENDBRANCH   4  22
TORSDOF 7
ENDMDL
MODEL 9
REMARK VINA RESULT:      -7.8      0.888      2.355
REMARK  Name = 
REMARK  8 active torsions:
REMARK  status: ('A' for Active; 'I' for Inactive)
REMARK    1  A    between atoms: C_1  and  C_2
REMARK    2  A    between atoms: N_4  and  C_5
REMARK    3  A    between atoms: N_4  and  S_9
REMARK    4  A    between atoms: C_5  and  C_6
REMARK    5  A    between atoms: S_9  and  C_12
REMARK    6  A    between atoms: C_15  and  N_16
REMARK    7  A    between atoms: N_16  and  C_17
REMARK    8  A    between atoms: C_25  and  C_26
REMARK                            x       y       z     vdW  Elec       q    Type
REMARK                         _______ _______ _______ _____ _____    ______ ____
ROOT
ATOM      1  C   UNL     1       3.883   5.918  18.120  0.00  0.00    +0.000 A 
ATOM      2  C   UNL     1       4.190   7.041  17.331  0.00  0.00    +0.000 A 
ATOM      3  C   UNL     1       3.357   8.169  17.323  0.00  0.00    +0.000 A 
ATOM      4  C   UNL     1       2.158   8.200  18.040  0.00  0.00    +0.000 A 
ATOM      5  C   UNL     1       1.884   7.092  18.847  0.00  0.00    +0.000 A 
ATOM      6  C   UNL     1       2.720   5.939  18.905  0.00  0.00    +0.000 A 
ENDROOT
BRANCH   6   7
ATOM      7  C   UNL     1       2.273   4.870  19.867  0.00  0.00    +0.000 C 
ATOM      8  F   UNL     1       3.093   4.598  20.900  0.00  0.00    +0.000 F 
ATOM      9  F   UNL     1       1.080   5.197  20.441  0.00  0.00    +0.000 F 
ATOM     10  F   UNL     1       2.063   3.674  19.247  0.00  0.00    +0.000 F 
ENDBRANCH   6   7
BRANCH   1  11
ATOM     11  S   UNL     1       4.944   4.470  17.946  0.00  0.00    +0.000 S 
ATOM     12  O   UNL     1       4.233   3.528  17.098  0.00  0.00    +0.000 OA
ATOM     13  O   UNL     1       5.281   4.093  19.306  0.00  0.00    +0.000 OA
BRANCH  11  17
ATOM     14  C   UNL     1       5.431   4.146  14.845  0.00  0.00    +0.000 C 
ATOM     15  C   UNL     1       6.561   4.615  15.721  0.00  0.00    +0.000 C 
ATOM     16  O   UNL     1       7.681   4.743  15.235  0.00  0.00    +0.000 OA
ATOM     17  N   UNL     1       6.306   4.986  17.081  0.00  0.00    +0.000 N 
BRANCH  17  18
ATOM     18  C   UNL     1       7.464   5.445  17.912  0.00  0.00    +0.000 C 
BRANCH  18  19
ATOM     19  C   UNL     1       7.333   6.857  18.408  0.00  0.00    +0.000 C 
ATOM     20  C   UNL     1       8.583   7.679  18.655  0.00  0.00    +0.000 C 
ATOM     21  C   UNL     1       7.686   8.012  17.500  0.00  0.00    +0.000 C 
ENDBRANCH  18  19
ENDBRANCH  17  18
ENDBRANCH  11  17
ENDBRANCH   1  11
BRANCH   4  22
ATOM     22  N   UNL     1       1.372   9.351  17.997  0.00  0.00    +0.000 N 
ATOM     23  H   UNL     1       1.064   9.590  17.061  0.00  0.00    +0.000 HD
BRANCH  22  24
ATOM     24  C   UNL     1       0.408   9.682  19.046  0.00  0.00    +0.000 C 
ATOM     25  C   UNL     1      -0.969  10.149  18.537  0.00  0.00    +0.000 C 
ATOM     26  C   UNL     1      -1.240  11.427  19.369  0.00  0.00    +0.000 C 
ATOM     27  C   UNL     1      -0.431  12.583  18.764  0.00  0.00    +0.000 C 
ATOM     28  C   UNL     1       1.011  12.193  19.114  0.00  0.00    +0.000 C 
ATOM     29  C   UNL     1       0.849  10.884  19.919  0.00  0.00    +0.000 C 
ATOM     30  C   UNL     1      -0.462  11.165  20.659  0.00  0.00    +0.000 C 
ENDBRANCH  22  24
ENDBRANCH   4  22
TORSDOF 7
ENDMDL
