MODEL 1
REMARK VINA RESULT:      -8.2      0.000      0.000
REMARK  Name = 
REMARK  3 active torsions:
REMARK  status: ('A' for Active; 'I' for Inactive)
REMARK    1  A    between atoms: C_1  and  N_2
REMARK    2  A    between atoms: C_3  and  C_5
REMARK    3  A    between atoms: C_8  and  C_9
REMARK                            x       y       z     vdW  Elec       q    Type
REMARK                         _______ _______ _______ _____ _____    ______ ____
ROOT
ATOM      1  C   UNL     1       6.346   4.492  15.672  0.00  0.00    +0.000 A 
ATOM      2  C   UNL     1       5.141   4.191  16.317  0.00  0.00    +0.000 A 
ATOM      3  C   UNL     1       5.313   4.303  17.698  0.00  0.00    +0.000 A 
ATOM      4  C   UNL     1       4.553   4.124  18.860  0.00  0.00    +0.000 A 
ATOM      5  N   UNL     1       5.329   4.456  19.930  0.00  0.00    +0.000 NA
ATOM      6  N   UNL     1       6.538   4.780  19.402  0.00  0.00    +0.000 N 
ATOM      7  C   UNL     1       6.534   4.696  18.061  0.00  0.00    +0.000 A 
ATOM      8  S   UNL     1       7.599   4.935  16.822  0.00  0.00    +0.000 S 
ATOM      9  H   UNL     1       7.293   5.044  20.026  0.00  0.00    +0.000 HD
ENDROOT
BRANCH   4  10
ATOM     10  C   UNL     1       3.175   3.679  19.058  0.00  0.00    +0.000 A 
ATOM     11  C   UNL     1       2.303   4.437  19.855  0.00  0.00    +0.000 A 
ATOM     12  C   UNL     1       0.988   4.018  20.085  0.00  0.00    +0.000 A 
ATOM     13  C   UNL     1       0.527   2.831  19.519  0.00  0.00    +0.000 A 
ATOM     14  C   UNL     1       1.383   2.063  18.732  0.00  0.00    +0.000 A 
ATOM     15  C   UNL     1       2.694   2.483  18.513  0.00  0.00    +0.000 A 
ATOM     16  F   UNL     1       3.488   1.681  17.789  0.00  0.00    +0.000 F 
ENDBRANCH   4  10
BRANCH   1  19
ATOM     17  C   UNL     1       6.153   3.276  12.125  0.00  0.00    +0.000 C 
ATOM     18  N   UNL     1       6.003   3.444  13.544  0.00  0.00    +0.000 N 
ATOM     19  C   UNL     1       6.613   4.470  14.238  0.00  0.00    +0.000 C 
ATOM     20  O   UNL     1       7.322   5.299  13.673  0.00  0.00    +0.000 OA
ATOM     21  H   UNL     1       5.403   2.816  14.060  0.00  0.00    +0.000 HD
ENDBRANCH   1  19
TORSDOF 2
ENDMDL
MODEL 2
REMARK VINA RESULT:      -7.8      1.094      1.554
REMARK  Name = 
REMARK  3 active torsions:
REMARK  status: ('A' for Active; 'I' for Inactive)
REMARK    1  A    between atoms: C_1  and  N_2
REMARK    2  A    between atoms: C_3  and  C_5
REMARK    3  A    between atoms: C_8  and  C_9
REMARK                            x       y       z     vdW  Elec       q    Type
REMARK                         _______ _______ _______ _____ _____    ______ ____
ROOT
ATOM      1  C   UNL     1       6.347   4.499  15.681  0.00  0.00    +0.000 A 
ATOM      2  C   UNL     1       5.156   4.179  16.343  0.00  0.00    +0.000 A 
ATOM      3  C   UNL     1       5.342   4.308  17.720  0.00  0.00    +0.000 A 
ATOM      4  C   UNL     1       4.599   4.124  18.894  0.00  0.00    +0.000 A 
ATOM      5  N   UNL     1       5.380   4.484  19.950  0.00  0.00    +0.000 NA
ATOM      6  N   UNL     1       6.576   4.829  19.405  0.00  0.00    +0.000 N 
ATOM      7  C   UNL     1       6.558   4.731  18.066  0.00  0.00    +0.000 A 
ATOM      8  S   UNL     1       7.603   4.981  16.811  0.00  0.00    +0.000 S 
ATOM      9  H   UNL     1       7.332   5.115  20.018  0.00  0.00    +0.000 HD
ENDROOT
BRANCH   4  10
ATOM     10  C   UNL     1       3.234   3.652  19.112  0.00  0.00    +0.000 A 
ATOM     11  C   UNL     1       2.819   2.431  18.555  0.00  0.00    +0.000 A 
ATOM     12  C   UNL     1       1.509   1.970  18.724  0.00  0.00    +0.000 A 
ATOM     13  C   UNL     1       0.594   2.726  19.454  0.00  0.00    +0.000 A 
ATOM     14  C   UNL     1       0.988   3.942  20.007  0.00  0.00    +0.000 A 
ATOM     15  C   UNL     1       2.293   4.399  19.829  0.00  0.00    +0.000 A 
ATOM     16  F   UNL     1       2.604   5.599  20.341  0.00  0.00    +0.000 F 
ENDBRANCH   4  10
BRANCH   1  19
ATOM     17  C   UNL     1       6.117   3.261  12.144  0.00  0.00    +0.000 C 
ATOM     18  N   UNL     1       5.983   3.437  13.564  0.00  0.00    +0.000 N 
ATOM     19  C   UNL     1       6.598   4.469  14.244  0.00  0.00    +0.000 C 
ATOM     20  O   UNL     1       7.299   5.295  13.666  0.00  0.00    +0.000 OA
ATOM     21  H   UNL     1       5.389   2.811  14.091  0.00  0.00    +0.000 HD
ENDBRANCH   1  19
TORSDOF 2
ENDMDL
MODEL 3
REMARK VINA RESULT:      -7.6      2.184      2.355
REMARK  Name = 
REMARK  3 active torsions:
REMARK  status: ('A' for Active; 'I' for Inactive)
REMARK    1  A    between atoms: C_1  and  N_2
REMARK    2  A    between atoms: C_3  and  C_5
REMARK    3  A    between atoms: C_8  and  C_9
REMARK                            x       y       z     vdW  Elec       q    Type
REMARK                         _______ _______ _______ _____ _____    ______ ____
ROOT
ATOM      1  C   UNL     1       5.293   5.345  15.947  0.00  0.00    +0.000 A 
ATOM      2  C   UNL     1       4.469   4.726  16.894  0.00  0.00    +0.000 A 
ATOM      3  C   UNL     1       3.775   5.700  17.614  0.00  0.00    +0.000 A 
ATOM      4  C   UNL     1       2.854   5.759  18.667  0.00  0.00    +0.000 A 
ATOM      5  N   UNL     1       2.522   7.065  18.868  0.00  0.00    +0.000 NA
ATOM      6  N   UNL     1       3.273   7.762  17.975  0.00  0.00    +0.000 N 
ATOM      7  C   UNL     1       4.024   6.947  17.215  0.00  0.00    +0.000 A 
ATOM      8  S   UNL     1       5.118   7.093  15.986  0.00  0.00    +0.000 S 
ATOM      9  H   UNL     1       3.205   8.774  17.959  0.00  0.00    +0.000 HD
ENDROOT
BRANCH   4  10
ATOM     10  C   UNL     1       2.259   4.711  19.493  0.00  0.00    +0.000 A 
ATOM     11  C   UNL     1       2.633   4.584  20.840  0.00  0.00    +0.000 A 
ATOM     12  C   UNL     1       2.100   3.571  21.645  0.00  0.00    +0.000 A 
ATOM     13  C   UNL     1       1.183   2.668  21.110  0.00  0.00    +0.000 A 
ATOM     14  C   UNL     1       0.808   2.775  19.772  0.00  0.00    +0.000 A 
ATOM     15  C   UNL     1       1.348   3.783  18.975  0.00  0.00    +0.000 A 
ATOM     16  F   UNL     1       0.989   3.810  17.684  0.00  0.00    +0.000 F 
ENDBRANCH   4  10
BRANCH   1  19
ATOM     17  C   UNL     1       6.357   3.497  12.857  0.00  0.00    +0.000 C 
ATOM     18  N   UNL     1       5.608   4.162  13.887  0.00  0.00    +0.000 N 
ATOM     19  C   UNL     1       6.205   4.701  15.009  0.00  0.00    +0.000 C 
ATOM     20  O   UNL     1       7.419   4.637  15.188  0.00  0.00    +0.000 OA
ATOM     21  H   UNL     1       4.609   4.280  13.781  0.00  0.00    +0.000 HD
ENDBRANCH   1  19
TORSDOF 2
ENDMDL
MODEL 4
REMARK VINA RESULT:      -7.5      0.981      1.007
REMARK  Name = 
REMARK  3 active torsions:
REMARK  status: ('A' for Active; 'I' for Inactive)
REMARK    1  A    between atoms: C_1  and  N_2
REMARK    2  A    between atoms: C_3  and  C_5
REMARK    3  A    between atoms: C_8  and  C_9
REMARK                            x       y       z     vdW  Elec       q    Type
REMARK                         _______ _______ _______ _____ _____    ______ ____
ROOT
ATOM      1  C   UNL     1       6.398   4.833  15.510  0.00  0.00    +0.000 A 
ATOM      2  C   UNL     1       5.236   4.333  16.107  0.00  0.00    +0.000 A 
ATOM      3  C   UNL     1       5.225   4.674  17.460  0.00  0.00    +0.000 A 
ATOM      4  C   UNL     1       4.406   4.474  18.579  0.00  0.00    +0.000 A 
ATOM      5  N   UNL     1       4.960   5.135  19.633  0.00  0.00    +0.000 NA
ATOM      6  N   UNL     1       6.109   5.675  19.148  0.00  0.00    +0.000 N 
ATOM      7  C   UNL     1       6.271   5.407  17.842  0.00  0.00    +0.000 A 
ATOM      8  S   UNL     1       7.378   5.731  16.660  0.00  0.00    +0.000 S 
ATOM      9  H   UNL     1       6.707   6.203  19.775  0.00  0.00    +0.000 HD
ENDROOT
BRANCH   4  10
ATOM     10  C   UNL     1       3.160   3.730  18.746  0.00  0.00    +0.000 A 
ATOM     11  C   UNL     1       1.972   4.220  18.181  0.00  0.00    +0.000 A 
ATOM     12  C   UNL     1       0.759   3.543  18.351  0.00  0.00    +0.000 A 
ATOM     13  C   UNL     1       0.719   2.364  19.092  0.00  0.00    +0.000 A 
ATOM     14  C   UNL     1       1.888   1.869  19.667  0.00  0.00    +0.000 A 
ATOM     15  C   UNL     1       3.092   2.552  19.498  0.00  0.00    +0.000 A 
ATOM     16  F   UNL     1       4.175   2.058  20.114  0.00  0.00    +0.000 F 
ENDBRANCH   4  10
BRANCH   1  19
ATOM     17  C   UNL     1       6.548   3.319  12.077  0.00  0.00    +0.000 C 
ATOM     18  N   UNL     1       6.251   3.614  13.452  0.00  0.00    +0.000 N 
ATOM     19  C   UNL     1       6.818   4.680  14.121  0.00  0.00    +0.000 C 
ATOM     20  O   UNL     1       7.612   5.438  13.571  0.00  0.00    +0.000 OA
ATOM     21  H   UNL     1       5.577   3.048  13.949  0.00  0.00    +0.000 HD
ENDBRANCH   1  19
TORSDOF 2
ENDMDL
MODEL 5
REMARK VINA RESULT:      -7.4      1.576      1.901
REMARK  Name = 
REMARK  3 active torsions:
REMARK  status: ('A' for Active; 'I' for Inactive)
REMARK    1  A    between atoms: C_1  and  N_2
REMARK    2  A    between atoms: C_3  and  C_5
REMARK    3  A    between atoms: C_8  and  C_9
REMARK                            x       y       z     vdW  Elec       q    Type
REMARK                         _______ _______ _______ _____ _____    ______ ____
ROOT
ATOM      1  C   UNL     1       5.888   4.312  15.460  0.00  0.00    +0.000 A 
ATOM      2  C   UNL     1       4.841   4.152  16.374  0.00  0.00    +0.000 A 
ATOM      3  C   UNL     1       5.311   4.392  17.666  0.00  0.00    +0.000 A 
ATOM      4  C   UNL     1       4.814   4.379  18.975  0.00  0.00    +0.000 A 
ATOM      5  N   UNL     1       5.814   4.770  19.813  0.00  0.00    +0.000 NA
ATOM      6  N   UNL     1       6.893   4.963  19.010  0.00  0.00    +0.000 N 
ATOM      7  C   UNL     1       6.596   4.744  17.718  0.00  0.00    +0.000 A 
ATOM      8  S   UNL     1       7.377   4.790  16.263  0.00  0.00    +0.000 S 
ATOM      9  H   UNL     1       7.775   5.241  19.428  0.00  0.00    +0.000 HD
ENDROOT
BRANCH   4  10
ATOM     10  C   UNL     1       3.495   4.043  19.507  0.00  0.00    +0.000 A 
ATOM     11  C   UNL     1       3.066   2.706  19.517  0.00  0.00    +0.000 A 
ATOM     12  C   UNL     1       1.796   2.360  19.993  0.00  0.00    +0.000 A 
ATOM     13  C   UNL     1       0.938   3.349  20.467  0.00  0.00    +0.000 A 
ATOM     14  C   UNL     1       1.346   4.681  20.457  0.00  0.00    +0.000 A 
ATOM     15  C   UNL     1       2.609   5.020  19.975  0.00  0.00    +0.000 A 
ATOM     16  F   UNL     1       2.931   6.321  19.942  0.00  0.00    +0.000 F 
ENDBRANCH   4  10
BRANCH   1  19
ATOM     17  C   UNL     1       7.164   4.206  11.931  0.00  0.00    +0.000 C 
ATOM     18  N   UNL     1       7.032   4.348  13.354  0.00  0.00    +0.000 N 
ATOM     19  C   UNL     1       5.839   4.128  14.014  0.00  0.00    +0.000 C 
ATOM     20  O   UNL     1       4.820   3.799  13.412  0.00  0.00    +0.000 OA
ATOM     21  H   UNL     1       7.843   4.582  13.910  0.00  0.00    +0.000 HD
ENDBRANCH   1  19
TORSDOF 2
ENDMDL
MODEL 6
REMARK VINA RESULT:      -7.4      1.320      1.327
REMARK  Name = 
REMARK  3 active torsions:
REMARK  status: ('A' for Active; 'I' for Inactive)
REMARK    1  A    between atoms: C_1  and  N_2
REMARK    2  A    between atoms: C_3  and  C_5
REMARK    3  A    between atoms: C_8  and  C_9
REMARK                            x       y       z     vdW  Elec       q    Type
REMARK                         _______ _______ _______ _____ _____    ______ ____
ROOT
ATOM      1  C   UNL     1       5.931   4.351  15.509  0.00  0.00    +0.000 A 
ATOM      2  C   UNL     1       4.919   4.206  16.464  0.00  0.00    +0.000 A 
ATOM      3  C   UNL     1       5.433   4.485  17.731  0.00  0.00    +0.000 A 
ATOM      4  C   UNL     1       4.983   4.502  19.057  0.00  0.00    +0.000 A 
ATOM      5  N   UNL     1       6.010   4.923  19.848  0.00  0.00    +0.000 NA
ATOM      6  N   UNL     1       7.057   5.105  19.001  0.00  0.00    +0.000 N 
ATOM      7  C   UNL     1       6.715   4.849  17.727  0.00  0.00    +0.000 A 
ATOM      8  S   UNL     1       7.442   4.864  16.244  0.00  0.00    +0.000 S 
ATOM      9  H   UNL     1       7.950   5.402  19.379  0.00  0.00    +0.000 HD
ENDROOT
BRANCH   4  10
ATOM     10  C   UNL     1       3.688   4.167  19.645  0.00  0.00    +0.000 A 
ATOM     11  C   UNL     1       2.725   5.171  19.834  0.00  0.00    +0.000 A 
ATOM     12  C   UNL     1       1.489   4.883  20.422  0.00  0.00    +0.000 A 
ATOM     13  C   UNL     1       1.199   3.583  20.830  0.00  0.00    +0.000 A 
ATOM     14  C   UNL     1       2.147   2.577  20.658  0.00  0.00    +0.000 A 
ATOM     15  C   UNL     1       3.379   2.872  20.077  0.00  0.00    +0.000 A 
ATOM     16  F   UNL     1       4.272   1.877  19.980  0.00  0.00    +0.000 F 
ENDBRANCH   4  10
BRANCH   1  19
ATOM     17  C   UNL     1       7.108   4.032  11.957  0.00  0.00    +0.000 C 
ATOM     18  N   UNL     1       7.022   4.227  13.378  0.00  0.00    +0.000 N 
ATOM     19  C   UNL     1       5.831   4.129  14.070  0.00  0.00    +0.000 C 
ATOM     20  O   UNL     1       4.774   3.869  13.501  0.00  0.00    +0.000 OA
ATOM     21  H   UNL     1       7.864   4.408  13.909  0.00  0.00    +0.000 HD
ENDBRANCH   1  19
TORSDOF 2
ENDMDL
MODEL 7
REMARK VINA RESULT:      -7.3      3.652      6.535
REMARK  Name = 
REMARK  3 active torsions:
REMARK  status: ('A' for Active; 'I' for Inactive)
REMARK    1  A    between atoms: C_1  and  N_2
REMARK    2  A    between atoms: C_3  and  C_5
REMARK    3  A    between atoms: C_8  and  C_9
REMARK                            x       y       z     vdW  Elec       q    Type
REMARK                         _______ _______ _______ _____ _____    ______ ____
ROOT
ATOM      1  C   UNL     1       2.305   6.601  19.804  0.00  0.00    +0.000 A 
ATOM      2  C   UNL     1       3.205   6.334  18.766  0.00  0.00    +0.000 A 
ATOM      3  C   UNL     1       3.464   4.964  18.716  0.00  0.00    +0.000 A 
ATOM      4  C   UNL     1       4.252   4.079  17.970  0.00  0.00    +0.000 A 
ATOM      5  N   UNL     1       4.003   2.814  18.411  0.00  0.00    +0.000 NA
ATOM      6  N   UNL     1       3.117   2.963  19.430  0.00  0.00    +0.000 N 
ATOM      7  C   UNL     1       2.785   4.252  19.615  0.00  0.00    +0.000 A 
ATOM      8  S   UNL     1       1.809   5.126  20.621  0.00  0.00    +0.000 S 
ATOM      9  H   UNL     1       2.800   2.140  19.932  0.00  0.00    +0.000 HD
ENDROOT
BRANCH   4  10
ATOM     10  C   UNL     1       5.206   4.308  16.887  0.00  0.00    +0.000 A 
ATOM     11  C   UNL     1       4.793   4.173  15.552  0.00  0.00    +0.000 A 
ATOM     12  C   UNL     1       5.693   4.358  14.496  0.00  0.00    +0.000 A 
ATOM     13  C   UNL     1       7.021   4.681  14.764  0.00  0.00    +0.000 A 
ATOM     14  C   UNL     1       7.449   4.811  16.084  0.00  0.00    +0.000 A 
ATOM     15  C   UNL     1       6.548   4.619  17.130  0.00  0.00    +0.000 A 
ATOM     16  F   UNL     1       7.024   4.708  18.380  0.00  0.00    +0.000 F 
ENDBRANCH   4  10
BRANCH   1  19
ATOM     17  C   UNL     1       1.182   9.294  22.166  0.00  0.00    +0.000 C 
ATOM     18  N   UNL     1       1.666   8.074  21.583  0.00  0.00    +0.000 N 
ATOM     19  C   UNL     1       1.791   7.901  20.219  0.00  0.00    +0.000 C 
ATOM     20  O   UNL     1       1.490   8.790  19.427  0.00  0.00    +0.000 OA
ATOM     21  H   UNL     1       1.965   7.317  22.184  0.00  0.00    +0.000 HD
ENDBRANCH   1  19
TORSDOF 2
ENDMDL
MODEL 8
REMARK VINA RESULT:      -7.3      2.681      3.675
REMARK  Name = 
REMARK  3 active torsions:
REMARK  status: ('A' for Active; 'I' for Inactive)
REMARK    1  A    between atoms: C_1  and  N_2
REMARK    2  A    between atoms: C_3  and  C_5
REMARK    3  A    between atoms: C_8  and  C_9
REMARK                            x       y       z     vdW  Elec       q    Type
REMARK                         _______ _______ _______ _____ _____    ______ ____
ROOT
ATOM      1  C   UNL     1       6.829   6.035  17.884  0.00  0.00    +0.000 A 
ATOM      2  C   UNL     1       5.783   5.527  18.662  0.00  0.00    +0.000 A 
ATOM      3  C   UNL     1       5.168   4.474  17.982  0.00  0.00    +0.000 A 
ATOM      4  C   UNL     1       4.098   3.592  18.177  0.00  0.00    +0.000 A 
ATOM      5  N   UNL     1       4.053   2.739  17.115  0.00  0.00    +0.000 NA
ATOM      6  N   UNL     1       5.053   3.147  16.291  0.00  0.00    +0.000 N 
ATOM      7  C   UNL     1       5.730   4.185  16.809  0.00  0.00    +0.000 A 
ATOM      8  S   UNL     1       7.006   5.143  16.380  0.00  0.00    +0.000 S 
ATOM      9  H   UNL     1       5.194   2.662  15.411  0.00  0.00    +0.000 HD
ENDROOT
BRANCH   4  10
ATOM     10  C   UNL     1       3.126   3.472  19.261  0.00  0.00    +0.000 A 
ATOM     11  C   UNL     1       3.464   2.770  20.429  0.00  0.00    +0.000 A 
ATOM     12  C   UNL     1       2.541   2.615  21.470  0.00  0.00    +0.000 A 
ATOM     13  C   UNL     1       1.265   3.163  21.355  0.00  0.00    +0.000 A 
ATOM     14  C   UNL     1       0.912   3.857  20.200  0.00  0.00    +0.000 A 
ATOM     15  C   UNL     1       1.834   4.001  19.164  0.00  0.00    +0.000 A 
ATOM     16  F   UNL     1       1.425   4.635  18.056  0.00  0.00    +0.000 F 
ENDBRANCH   4  10
BRANCH   1  19
ATOM     17  C   UNL     1       8.251   9.503  17.671  0.00  0.00    +0.000 C 
ATOM     18  N   UNL     1       7.481   8.306  17.480  0.00  0.00    +0.000 N 
ATOM     19  C   UNL     1       7.710   7.153  18.204  0.00  0.00    +0.000 C 
ATOM     20  O   UNL     1       8.592   7.091  19.056  0.00  0.00    +0.000 OA
ATOM     21  H   UNL     1       6.716   8.304  16.819  0.00  0.00    +0.000 HD
ENDBRANCH   1  19
TORSDOF 2
ENDMDL
MODEL 9
REMARK VINA RESULT:      -7.3      2.646      3.610
REMARK  Name = 
REMARK  3 active torsions:
REMARK  status: ('A' for Active; 'I' for Inactive)
REMARK    1  A    between atoms: C_1  and  N_2
REMARK    2  A    between atoms: C_3  and  C_5
REMARK    3  A    between atoms: C_8  and  C_9
REMARK                            x       y       z     vdW  Elec       q    Type
REMARK                         _______ _______ _______ _____ _____    ______ ____
ROOT
ATOM      1  C   UNL     1       6.809   6.042  17.876  0.00  0.00    +0.000 A 
ATOM      2  C   UNL     1       5.786   5.513  18.671  0.00  0.00    +0.000 A 
ATOM      3  C   UNL     1       5.156   4.473  17.986  0.00  0.00    +0.000 A 
ATOM      4  C   UNL     1       4.095   3.582  18.191  0.00  0.00    +0.000 A 
ATOM      5  N   UNL     1       4.023   2.753  17.112  0.00  0.00    +0.000 NA
ATOM      6  N   UNL     1       4.999   3.182  16.270  0.00  0.00    +0.000 N 
ATOM      7  C   UNL     1       5.687   4.211  16.791  0.00  0.00    +0.000 A 
ATOM      8  S   UNL     1       6.948   5.183  16.349  0.00  0.00    +0.000 S 
ATOM      9  H   UNL     1       5.118   2.716  15.377  0.00  0.00    +0.000 HD
ENDROOT
BRANCH   4  10
ATOM     10  C   UNL     1       3.153   3.436  19.298  0.00  0.00    +0.000 A 
ATOM     11  C   UNL     1       1.916   4.098  19.256  0.00  0.00    +0.000 A 
ATOM     12  C   UNL     1       1.008   3.999  20.316  0.00  0.00    +0.000 A 
ATOM     13  C   UNL     1       1.327   3.234  21.436  0.00  0.00    +0.000 A 
ATOM     14  C   UNL     1       2.554   2.577  21.497  0.00  0.00    +0.000 A 
ATOM     15  C   UNL     1       3.457   2.686  20.439  0.00  0.00    +0.000 A 
ATOM     16  F   UNL     1       4.642   2.073  20.572  0.00  0.00    +0.000 F 
ENDBRANCH   4  10
BRANCH   1  19
ATOM     17  C   UNL     1       8.252   9.501  17.657  0.00  0.00    +0.000 C 
ATOM     18  N   UNL     1       7.476   8.307  17.467  0.00  0.00    +0.000 N 
ATOM     19  C   UNL     1       7.695   7.156  18.196  0.00  0.00    +0.000 C 
ATOM     20  O   UNL     1       8.573   7.092  19.053  0.00  0.00    +0.000 OA
ATOM     21  H   UNL     1       6.714   8.307  16.802  0.00  0.00    +0.000 HD
ENDBRANCH   1  19
TORSDOF 2
ENDMDL
