MODEL 1
REMARK VINA RESULT:      -7.9      0.000      0.000
REMARK  Name = 
REMARK  1 active torsions:
REMARK  status: ('A' for Active; 'I' for Inactive)
REMARK    1  A    between atoms: C_1  and  C_2
REMARK                            x       y       z     vdW  Elec       q    Type
REMARK                         _______ _______ _______ _____ _____    ______ ____
ROOT
ATOM      1  C   UNL     1       5.729   4.026  17.411  0.00  0.00    +0.000 C 
ATOM      2  C   UNL     1       4.417   4.369  18.170  0.00  0.00    +0.000 C 
ATOM      3  C   UNL     1       4.563   5.881  18.431  0.00  0.00    +0.000 C 
ATOM      4  C   UNL     1       3.618   6.673  17.452  0.00  0.00    +0.000 C 
ATOM      5  C   UNL     1       2.322   6.655  18.206  0.00  0.00    +0.000 C 
ATOM      6  C   UNL     1       1.979   7.846  18.705  0.00  0.00    +0.000 C 
ATOM      7  C   UNL     1       2.392   9.122  18.024  0.00  0.00    +0.000 C 
ATOM      8  C   UNL     1       1.215  10.044  18.022  0.00  0.00    +0.000 C 
ATOM      9  C   UNL     1       0.916  10.362  19.434  0.00  0.00    +0.000 C 
ATOM     10  O   UNL     1       0.550  11.474  19.820  0.00  0.00    +0.000 OA
ATOM     11  C   UNL     1       1.046   9.213  20.469  0.00  0.00    +0.000 C 
ATOM     12  C   UNL     1       1.491   7.982  20.059  0.00  0.00    +0.000 C 
ATOM     13  C   UNL     1       1.842   6.815  20.949  0.00  0.00    +0.000 C 
ATOM     14  C   UNL     1       1.936   5.329  20.260  0.00  0.00    +0.000 C 
ATOM     15  C   UNL     1       1.977   5.230  18.661  0.00  0.00    +0.000 C 
ATOM     16  C   UNL     1       2.976   4.296  17.669  0.00  0.00    +0.000 C 
ATOM     17  C   UNL     1       2.754   2.861  17.315  0.00  0.00    +0.000 C 
ATOM     18  C   UNL     1       3.631   2.239  18.339  0.00  0.00    +0.000 C 
ATOM     19  O   UNL     1       3.798   1.030  18.434  0.00  0.00    +0.000 OA
ATOM     20  O   UNL     1       4.287   3.248  19.071  0.00  0.00    +0.000 OA
ENDROOT
TORSDOF 0
ENDMDL
MODEL 2
REMARK VINA RESULT:      -7.7      3.711      5.161
REMARK  Name = 
REMARK  1 active torsions:
REMARK  status: ('A' for Active; 'I' for Inactive)
REMARK    1  A    between atoms: C_1  and  C_2
REMARK                            x       y       z     vdW  Elec       q    Type
REMARK                         _______ _______ _______ _____ _____    ______ ____
ROOT
ATOM      1  C   UNL     1       7.471   6.899  17.242  0.00  0.00    +0.000 C 
ATOM      2  C   UNL     1       6.511   5.681  17.134  0.00  0.00    +0.000 C 
ATOM      3  C   UNL     1       6.064   5.472  18.593  0.00  0.00    +0.000 C 
ATOM      4  C   UNL     1       4.588   5.990  18.766  0.00  0.00    +0.000 C 
ATOM      5  C   UNL     1       3.797   4.790  18.338  0.00  0.00    +0.000 C 
ATOM      6  C   UNL     1       3.173   4.175  19.348  0.00  0.00    +0.000 C 
ATOM      7  C   UNL     1       2.711   4.942  20.557  0.00  0.00    +0.000 C 
ATOM      8  C   UNL     1       1.336   4.468  20.904  0.00  0.00    +0.000 C 
ATOM      9  C   UNL     1       1.456   3.046  21.290  0.00  0.00    +0.000 C 
ATOM     10  O   UNL     1       0.808   2.528  22.201  0.00  0.00    +0.000 OA
ATOM     11  C   UNL     1       2.438   2.164  20.473  0.00  0.00    +0.000 C 
ATOM     12  C   UNL     1       3.196   2.736  19.483  0.00  0.00    +0.000 C 
ATOM     13  C   UNL     1       4.316   2.075  18.718  0.00  0.00    +0.000 C 
ATOM     14  C   UNL     1       4.797   2.771  17.311  0.00  0.00    +0.000 C 
ATOM     15  C   UNL     1       4.299   4.260  16.988  0.00  0.00    +0.000 C 
ATOM     16  C   UNL     1       5.176   5.580  16.400  0.00  0.00    +0.000 C 
ATOM     17  C   UNL     1       5.494   5.843  14.964  0.00  0.00    +0.000 C 
ATOM     18  C   UNL     1       6.857   5.255  14.924  0.00  0.00    +0.000 C 
ATOM     19  O   UNL     1       7.557   5.254  13.921  0.00  0.00    +0.000 OA
ATOM     20  O   UNL     1       7.218   4.821  16.214  0.00  0.00    +0.000 OA
ENDROOT
TORSDOF 0
ENDMDL
MODEL 3
REMARK VINA RESULT:      -7.7      1.412      2.782
REMARK  Name = 
REMARK  1 active torsions:
REMARK  status: ('A' for Active; 'I' for Inactive)
REMARK    1  A    between atoms: C_1  and  C_2
REMARK                            x       y       z     vdW  Elec       q    Type
REMARK                         _______ _______ _______ _____ _____    ______ ____
ROOT
ATOM      1  C   UNL     1       2.841   2.615  17.942  0.00  0.00    +0.000 C 
ATOM      2  C   UNL     1       3.143   4.136  17.858  0.00  0.00    +0.000 C 
ATOM      3  C   UNL     1       1.877   4.767  18.470  0.00  0.00    +0.000 C 
ATOM      4  C   UNL     1       2.202   5.288  19.919  0.00  0.00    +0.000 C 
ATOM      5  C   UNL     1       2.758   6.651  19.631  0.00  0.00    +0.000 C 
ATOM      6  C   UNL     1       1.943   7.646  19.993  0.00  0.00    +0.000 C 
ATOM      7  C   UNL     1       0.993   7.491  21.150  0.00  0.00    +0.000 C 
ATOM      8  C   UNL     1       1.046   8.747  21.959  0.00  0.00    +0.000 C 
ATOM      9  C   UNL     1       0.535   9.834  21.099  0.00  0.00    +0.000 C 
ATOM     10  O   UNL     1      -0.172  10.756  21.511  0.00  0.00    +0.000 OA
ATOM     11  C   UNL     1       0.946   9.815  19.602  0.00  0.00    +0.000 C 
ATOM     12  C   UNL     1       1.698   8.773  19.121  0.00  0.00    +0.000 C 
ATOM     13  C   UNL     1       2.034   8.503  17.675  0.00  0.00    +0.000 C 
ATOM     14  C   UNL     1       3.276   7.479  17.356  0.00  0.00    +0.000 C 
ATOM     15  C   UNL     1       3.847   6.577  18.552  0.00  0.00    +0.000 C 
ATOM     16  C   UNL     1       4.239   4.933  18.563  0.00  0.00    +0.000 C 
ATOM     17  C   UNL     1       5.525   4.343  18.086  0.00  0.00    +0.000 C 
ATOM     18  C   UNL     1       5.104   3.964  16.713  0.00  0.00    +0.000 C 
ATOM     19  O   UNL     1       5.843   3.404  15.915  0.00  0.00    +0.000 OA
ATOM     20  O   UNL     1       3.736   4.254  16.546  0.00  0.00    +0.000 OA
ENDROOT
TORSDOF 0
ENDMDL
MODEL 4
REMARK VINA RESULT:      -7.5      3.139      5.654
REMARK  Name = 
REMARK  1 active torsions:
REMARK  status: ('A' for Active; 'I' for Inactive)
REMARK    1  A    between atoms: C_1  and  C_2
REMARK                            x       y       z     vdW  Elec       q    Type
REMARK                         _______ _______ _______ _____ _____    ______ ____
ROOT
ATOM      1  C   UNL     1       7.642   5.770  15.367  0.00  0.00    +0.000 C 
ATOM      2  C   UNL     1       6.574   6.002  16.471  0.00  0.00    +0.000 C 
ATOM      3  C   UNL     1       5.445   5.038  16.057  0.00  0.00    +0.000 C 
ATOM      4  C   UNL     1       5.447   3.790  17.016  0.00  0.00    +0.000 C 
ATOM      5  C   UNL     1       4.617   4.290  18.161  0.00  0.00    +0.000 C 
ATOM      6  C   UNL     1       3.410   3.720  18.233  0.00  0.00    +0.000 C 
ATOM      7  C   UNL     1       3.184   2.315  17.747  0.00  0.00    +0.000 C 
ATOM      8  C   UNL     1       2.333   1.611  18.756  0.00  0.00    +0.000 C 
ATOM      9  C   UNL     1       1.026   2.299  18.770  0.00  0.00    +0.000 C 
ATOM     10  O   UNL     1      -0.052   1.715  18.895  0.00  0.00    +0.000 OA
ATOM     11  C   UNL     1       1.031   3.847  18.649  0.00  0.00    +0.000 C 
ATOM     12  C   UNL     1       2.220   4.507  18.469  0.00  0.00    +0.000 C 
ATOM     13  C   UNL     1       2.392   5.974  18.159  0.00  0.00    +0.000 C 
ATOM     14  C   UNL     1       3.872   6.639  18.404  0.00  0.00    +0.000 C 
ATOM     15  C   UNL     1       5.119   5.659  18.639  0.00  0.00    +0.000 C 
ATOM     16  C   UNL     1       6.669   5.716  17.968  0.00  0.00    +0.000 C 
ATOM     17  C   UNL     1       7.799   6.561  18.459  0.00  0.00    +0.000 C 
ATOM     18  C   UNL     1       7.641   7.710  17.532  0.00  0.00    +0.000 C 
ATOM     19  O   UNL     1       8.383   8.683  17.537  0.00  0.00    +0.000 OA
ATOM     20  O   UNL     1       6.602   7.438  16.621  0.00  0.00    +0.000 OA
ENDROOT
TORSDOF 0
ENDMDL
MODEL 5
REMARK VINA RESULT:      -7.4      3.560      5.701
REMARK  Name = 
REMARK  1 active torsions:
REMARK  status: ('A' for Active; 'I' for Inactive)
REMARK    1  A    between atoms: C_1  and  C_2
REMARK                            x       y       z     vdW  Elec       q    Type
REMARK                         _______ _______ _______ _____ _____    ______ ____
ROOT
ATOM      1  C   UNL     1       1.746   1.373  19.196  0.00  0.00    +0.000 C 
ATOM      2  C   UNL     1       2.771   2.540  19.218  0.00  0.00    +0.000 C 
ATOM      3  C   UNL     1       3.662   2.232  17.999  0.00  0.00    +0.000 C 
ATOM      4  C   UNL     1       3.308   3.223  16.830  0.00  0.00    +0.000 C 
ATOM      5  C   UNL     1       4.162   4.407  17.171  0.00  0.00    +0.000 C 
ATOM      6  C   UNL     1       5.193   4.578  16.337  0.00  0.00    +0.000 C 
ATOM      7  C   UNL     1       5.109   4.148  14.898  0.00  0.00    +0.000 C 
ATOM      8  C   UNL     1       5.707   5.232  14.059  0.00  0.00    +0.000 C 
ATOM      9  C   UNL     1       7.137   5.317  14.422  0.00  0.00    +0.000 C 
ATOM     10  O   UNL     1       8.036   5.531  13.607  0.00  0.00    +0.000 OA
ATOM     11  C   UNL     1       7.505   5.153  15.921  0.00  0.00    +0.000 C 
ATOM     12  C   UNL     1       6.519   4.873  16.833  0.00  0.00    +0.000 C 
ATOM     13  C   UNL     1       6.718   4.511  18.284  0.00  0.00    +0.000 C 
ATOM     14  C   UNL     1       5.425   4.636  19.287  0.00  0.00    +0.000 C 
ATOM     15  C   UNL     1       3.970   4.812  18.639  0.00  0.00    +0.000 C 
ATOM     16  C   UNL     1       2.521   4.035  19.028  0.00  0.00    +0.000 C 
ATOM     17  C   UNL     1       1.595   4.424  20.134  0.00  0.00    +0.000 C 
ATOM     18  C   UNL     1       2.076   3.478  21.173  0.00  0.00    +0.000 C 
ATOM     19  O   UNL     1       1.586   3.405  22.292  0.00  0.00    +0.000 OA
ATOM     20  O   UNL     1       3.074   2.648  20.626  0.00  0.00    +0.000 OA
ENDROOT
TORSDOF 0
ENDMDL
MODEL 6
REMARK VINA RESULT:      -7.1      3.007      5.618
REMARK  Name = 
REMARK  1 active torsions:
REMARK  status: ('A' for Active; 'I' for Inactive)
REMARK    1  A    between atoms: C_1  and  C_2
REMARK                            x       y       z     vdW  Elec       q    Type
REMARK                         _______ _______ _______ _____ _____    ______ ____
ROOT
ATOM      1  C   UNL     1       1.324   5.873  20.914  0.00  0.00    +0.000 C 
ATOM      2  C   UNL     1       2.068   4.814  20.054  0.00  0.00    +0.000 C 
ATOM      3  C   UNL     1       2.615   5.652  18.883  0.00  0.00    +0.000 C 
ATOM      4  C   UNL     1       4.163   5.863  19.070  0.00  0.00    +0.000 C 
ATOM      5  C   UNL     1       4.714   4.613  18.449  0.00  0.00    +0.000 C 
ATOM      6  C   UNL     1       5.329   4.824  17.282  0.00  0.00    +0.000 C 
ATOM      7  C   UNL     1       6.018   6.130  16.991  0.00  0.00    +0.000 C 
ATOM      8  C   UNL     1       7.329   5.823  16.342  0.00  0.00    +0.000 C 
ATOM      9  C   UNL     1       7.026   5.175  15.049  0.00  0.00    +0.000 C 
ATOM     10  O   UNL     1       7.671   5.375  14.017  0.00  0.00    +0.000 OA
ATOM     11  C   UNL     1       5.846   4.167  15.012  0.00  0.00    +0.000 C 
ATOM     12  C   UNL     1       5.095   3.966  16.143  0.00  0.00    +0.000 C 
ATOM     13  C   UNL     1       3.818   3.167  16.238  0.00  0.00    +0.000 C 
ATOM     14  C   UNL     1       3.319   2.698  17.729  0.00  0.00    +0.000 C 
ATOM     15  C   UNL     1       4.008   3.371  19.011  0.00  0.00    +0.000 C 
ATOM     16  C   UNL     1       3.295   3.980  20.417  0.00  0.00    +0.000 C 
ATOM     17  C   UNL     1       2.887   3.172  21.605  0.00  0.00    +0.000 C 
ATOM     18  C   UNL     1       1.451   2.990  21.271  0.00  0.00    +0.000 C 
ATOM     19  O   UNL     1       0.667   2.386  21.990  0.00  0.00    +0.000 OA
ATOM     20  O   UNL     1       1.151   3.698  20.090  0.00  0.00    +0.000 OA
ENDROOT
TORSDOF 0
ENDMDL
MODEL 7
REMARK VINA RESULT:      -6.9      1.360      2.743
REMARK  Name = 
REMARK  1 active torsions:
REMARK  status: ('A' for Active; 'I' for Inactive)
REMARK    1  A    between atoms: C_1  and  C_2
REMARK                            x       y       z     vdW  Elec       q    Type
REMARK                         _______ _______ _______ _____ _____    ______ ____
ROOT
ATOM      1  C   UNL     1       1.491   2.350  19.584  0.00  0.00    +0.000 C 
ATOM      2  C   UNL     1       2.086   3.711  19.128  0.00  0.00    +0.000 C 
ATOM      3  C   UNL     1       1.002   4.716  19.560  0.00  0.00    +0.000 C 
ATOM      4  C   UNL     1       1.491   5.494  20.837  0.00  0.00    +0.000 C 
ATOM      5  C   UNL     1       2.294   6.603  20.224  0.00  0.00    +0.000 C 
ATOM      6  C   UNL     1       1.711   7.802  20.327  0.00  0.00    +0.000 C 
ATOM      7  C   UNL     1       0.805   8.130  21.482  0.00  0.00    +0.000 C 
ATOM      8  C   UNL     1       1.146   9.506  21.957  0.00  0.00    +0.000 C 
ATOM      9  C   UNL     1       0.822  10.433  20.853  0.00  0.00    +0.000 C 
ATOM     10  O   UNL     1       0.333  11.552  21.022  0.00  0.00    +0.000 OA
ATOM     11  C   UNL     1       1.149   9.968  19.409  0.00  0.00    +0.000 C 
ATOM     12  C   UNL     1       1.656   8.710  19.203  0.00  0.00    +0.000 C 
ATOM     13  C   UNL     1       1.862   8.035  17.869  0.00  0.00    +0.000 C 
ATOM     14  C   UNL     1       2.859   6.732  17.817  0.00  0.00    +0.000 C 
ATOM     15  C   UNL     1       3.294   6.049  19.201  0.00  0.00    +0.000 C 
ATOM     16  C   UNL     1       3.350   4.413  19.618  0.00  0.00    +0.000 C 
ATOM     17  C   UNL     1       4.470   3.474  19.307  0.00  0.00    +0.000 C 
ATOM     18  C   UNL     1       3.917   2.868  18.068  0.00  0.00    +0.000 C 
ATOM     19  O   UNL     1       4.492   1.992  17.436  0.00  0.00    +0.000 OA
ATOM     20  O   UNL     1       2.628   3.383  17.829  0.00  0.00    +0.000 OA
ENDROOT
TORSDOF 0
ENDMDL
MODEL 8
REMARK VINA RESULT:      -6.7      3.653      5.163
REMARK  Name = 
REMARK  1 active torsions:
REMARK  status: ('A' for Active; 'I' for Inactive)
REMARK    1  A    between atoms: C_1  and  C_2
REMARK                            x       y       z     vdW  Elec       q    Type
REMARK                         _______ _______ _______ _____ _____    ______ ____
ROOT
ATOM      1  C   UNL     1       4.849   7.365  15.588  0.00  0.00    +0.000 C 
ATOM      2  C   UNL     1       5.048   6.033  16.363  0.00  0.00    +0.000 C 
ATOM      3  C   UNL     1       4.151   6.226  17.601  0.00  0.00    +0.000 C 
ATOM      4  C   UNL     1       2.846   5.361  17.440  0.00  0.00    +0.000 C 
ATOM      5  C   UNL     1       3.301   4.030  17.960  0.00  0.00    +0.000 C 
ATOM      6  C   UNL     1       2.770   3.711  19.144  0.00  0.00    +0.000 C 
ATOM      7  C   UNL     1       1.407   4.205  19.543  0.00  0.00    +0.000 C 
ATOM      8  C   UNL     1       0.670   3.066  20.172  0.00  0.00    +0.000 C 
ATOM      9  C   UNL     1       1.401   2.713  21.407  0.00  0.00    +0.000 C 
ATOM     10  O   UNL     1       0.847   2.373  22.455  0.00  0.00    +0.000 OA
ATOM     11  C   UNL     1       2.952   2.748  21.356  0.00  0.00    +0.000 C 
ATOM     12  C   UNL     1       3.580   3.164  20.209  0.00  0.00    +0.000 C 
ATOM     13  C   UNL     1       5.057   3.427  20.043  0.00  0.00    +0.000 C 
ATOM     14  C   UNL     1       5.654   3.495  18.516  0.00  0.00    +0.000 C 
ATOM     15  C   UNL     1       4.620   3.608  17.296  0.00  0.00    +0.000 C 
ATOM     16  C   UNL     1       4.666   4.616  15.941  0.00  0.00    +0.000 C 
ATOM     17  C   UNL     1       5.438   4.356  14.689  0.00  0.00    +0.000 C 
ATOM     18  C   UNL     1       6.648   5.158  15.000  0.00  0.00    +0.000 C 
ATOM     19  O   UNL     1       7.593   5.273  14.231  0.00  0.00    +0.000 OA
ATOM     20  O   UNL     1       6.470   5.817  16.232  0.00  0.00    +0.000 OA
ENDROOT
TORSDOF 0
ENDMDL
MODEL 9
REMARK VINA RESULT:      -6.5      2.425      7.650
REMARK  Name = 
REMARK  1 active torsions:
REMARK  status: ('A' for Active; 'I' for Inactive)
REMARK    1  A    between atoms: C_1  and  C_2
REMARK                            x       y       z     vdW  Elec       q    Type
REMARK                         _______ _______ _______ _____ _____    ______ ____
ROOT
ATOM      1  C   UNL     1      -2.420  12.490  19.726  0.00  0.00    +0.000 C 
ATOM      2  C   UNL     1      -1.325  11.648  20.438  0.00  0.00    +0.000 C 
ATOM      3  C   UNL     1      -1.143  10.452  19.483  0.00  0.00    +0.000 C 
ATOM      4  C   UNL     1       0.205  10.619  18.688  0.00  0.00    +0.000 C 
ATOM      5  C   UNL     1       1.194  10.023  19.645  0.00  0.00    +0.000 C 
ATOM      6  C   UNL     1       1.680   8.845  19.242  0.00  0.00    +0.000 C 
ATOM      7  C   UNL     1       1.813   8.518  17.780  0.00  0.00    +0.000 C 
ATOM      8  C   UNL     1       3.142   7.863  17.574  0.00  0.00    +0.000 C 
ATOM      9  C   UNL     1       3.112   6.588  18.321  0.00  0.00    +0.000 C 
ATOM     10  O   UNL     1       3.630   5.546  17.913  0.00  0.00    +0.000 OA
ATOM     11  C   UNL     1       2.411   6.586  19.705  0.00  0.00    +0.000 C 
ATOM     12  C   UNL     1       1.795   7.728  20.152  0.00  0.00    +0.000 C 
ATOM     13  C   UNL     1       0.924   7.853  21.378  0.00  0.00    +0.000 C 
ATOM     14  C   UNL     1       0.644   9.360  21.966  0.00  0.00    +0.000 C 
ATOM     15  C   UNL     1       1.021  10.619  21.048  0.00  0.00    +0.000 C 
ATOM     16  C   UNL     1       0.128  12.017  20.726  0.00  0.00    +0.000 C 
ATOM     17  C   UNL     1       0.062  13.228  21.599  0.00  0.00    +0.000 C 
ATOM     18  C   UNL     1      -1.192  12.911  22.328  0.00  0.00    +0.000 C 
ATOM     19  O   UNL     1      -1.684  13.651  23.169  0.00  0.00    +0.000 OA
ATOM     20  O   UNL     1      -1.742  11.718  21.819  0.00  0.00    +0.000 OA
ENDROOT
TORSDOF 0
ENDMDL
