MODEL 1
REMARK VINA RESULT:      -8.4      0.000      0.000
REMARK  Name = 
REMARK  3 active torsions:
REMARK  status: ('A' for Active; 'I' for Inactive)
REMARK    1  A    between atoms: C_9  and  C_11
REMARK    2  A    between atoms: C_11  and  C_12
REMARK    3  A    between atoms: C_11  and  C_18
REMARK                            x       y       z     vdW  Elec       q    Type
REMARK                         _______ _______ _______ _____ _____    ______ ____
ROOT
ATOM      1  O   UNL     1      -2.243  12.478  18.408  0.00  0.00    +0.000 OA
ATOM      2  C   UNL     1      -1.210  11.895  18.674  0.00  0.00    +0.000 C 
ATOM      3  C   UNL     1       0.183  12.439  18.550  0.00  0.00    +0.000 C 
ATOM      4  C   UNL     1       1.018  11.441  19.353  0.00  0.00    +0.000 C 
ATOM      5  C   UNL     1       0.234  10.115  19.275  0.00  0.00    +0.000 C 
ATOM      6  C   UNL     1       0.341   9.288  20.567  0.00  0.00    +0.000 C 
ATOM      7  C   UNL     1       1.716   8.643  20.727  0.00  0.00    +0.000 C 
ATOM      8  N   UNL     1       2.077   7.882  19.526  0.00  0.00    +0.000 N 
ATOM      9  C   UNL     1       2.424   6.531  19.653  0.00  0.00    +0.000 C 
ATOM     10  O   UNL     1       2.383   5.992  20.766  0.00  0.00    +0.000 OA
ATOM     11  C   UNL     1       2.072   8.667  18.297  0.00  0.00    +0.000 C 
ATOM     12  C   UNL     1       0.681   9.261  18.072  0.00  0.00    +0.000 C 
ATOM     13  N   UNL     1      -1.124  10.588  19.100  0.00  0.00    +0.000 N 
ATOM     14  H   UNL     1      -1.962  10.022  19.177  0.00  0.00    +0.000 HD
ENDROOT
BRANCH   9  15
ATOM     15  C   UNL     1       2.928   5.752  18.396  0.00  0.00    +0.000 C 
BRANCH  15  16
ATOM     16  C   UNL     1       4.447   5.950  18.287  0.00  0.00    +0.000 A 
ATOM     17  C   UNL     1       4.993   6.696  17.225  0.00  0.00    +0.000 A 
ATOM     18  C   UNL     1       6.374   6.884  17.118  0.00  0.00    +0.000 A 
ATOM     19  C   UNL     1       7.223   6.340  18.072  0.00  0.00    +0.000 A 
ATOM     20  C   UNL     1       6.702   5.611  19.141  0.00  0.00    +0.000 A 
ATOM     21  C   UNL     1       5.320   5.413  19.246  0.00  0.00    +0.000 A 
ENDBRANCH  15  16
BRANCH  15  22
ATOM     22  C   UNL     1       2.539   4.264  18.300  0.00  0.00    +0.000 A 
ATOM     23  C   UNL     1       1.273   3.764  18.629  0.00  0.00    +0.000 A 
ATOM     24  C   UNL     1       1.021   2.388  18.632  0.00  0.00    +0.000 A 
ATOM     25  C   UNL     1       2.019   1.487  18.269  0.00  0.00    +0.000 A 
ATOM     26  C   UNL     1       3.255   1.965  17.849  0.00  0.00    +0.000 A 
ATOM     27  C   UNL     1       3.507   3.339  17.852  0.00  0.00    +0.000 A 
ENDBRANCH  15  22
ENDBRANCH   9  15
TORSDOF 3
ENDMDL
MODEL 2
REMARK VINA RESULT:      -8.3      1.919      4.102
REMARK  Name = 
REMARK  3 active torsions:
REMARK  status: ('A' for Active; 'I' for Inactive)
REMARK    1  A    between atoms: C_9  and  C_11
REMARK    2  A    between atoms: C_11  and  C_12
REMARK    3  A    between atoms: C_11  and  C_18
REMARK                            x       y       z     vdW  Elec       q    Type
REMARK                         _______ _______ _______ _____ _____    ______ ____
ROOT
ATOM      1  O   UNL     1      -0.044  12.865  22.239  0.00  0.00    +0.000 OA
ATOM      2  C   UNL     1       0.011  11.863  21.552  0.00  0.00    +0.000 C 
ATOM      3  C   UNL     1      -1.049  10.809  21.419  0.00  0.00    +0.000 C 
ATOM      4  C   UNL     1      -0.605  10.025  20.183  0.00  0.00    +0.000 C 
ATOM      5  C   UNL     1       0.925  10.205  20.129  0.00  0.00    +0.000 C 
ATOM      6  C   UNL     1       1.461  10.286  18.690  0.00  0.00    +0.000 C 
ATOM      7  C   UNL     1       1.441   8.930  17.990  0.00  0.00    +0.000 C 
ATOM      8  N   UNL     1       2.124   7.916  18.799  0.00  0.00    +0.000 N 
ATOM      9  C   UNL     1       3.175   7.184  18.233  0.00  0.00    +0.000 C 
ATOM     10  O   UNL     1       3.537   7.431  17.075  0.00  0.00    +0.000 OA
ATOM     11  C   UNL     1       1.576   7.753  20.142  0.00  0.00    +0.000 C 
ATOM     12  C   UNL     1       1.657   9.082  20.893  0.00  0.00    +0.000 C 
ATOM     13  N   UNL     1       1.095  11.481  20.794  0.00  0.00    +0.000 N 
ATOM     14  H   UNL     1       1.946  12.031  20.810  0.00  0.00    +0.000 HD
ENDROOT
BRANCH   9  15
ATOM     15  C   UNL     1       3.821   6.020  19.050  0.00  0.00    +0.000 C 
BRANCH  15  16
ATOM     16  C   UNL     1       2.774   4.907  19.209  0.00  0.00    +0.000 A 
ATOM     17  C   UNL     1       2.470   4.392  20.483  0.00  0.00    +0.000 A 
ATOM     18  C   UNL     1       1.517   3.381  20.638  0.00  0.00    +0.000 A 
ATOM     19  C   UNL     1       0.852   2.880  19.527  0.00  0.00    +0.000 A 
ATOM     20  C   UNL     1       1.126   3.388  18.257  0.00  0.00    +0.000 A 
ATOM     21  C   UNL     1       2.087   4.394  18.097  0.00  0.00    +0.000 A 
ENDBRANCH  15  16
BRANCH  15  22
ATOM     22  C   UNL     1       5.164   5.469  18.531  0.00  0.00    +0.000 A 
ATOM     23  C   UNL     1       6.389   5.651  19.186  0.00  0.00    +0.000 A 
ATOM     24  C   UNL     1       7.587   5.226  18.601  0.00  0.00    +0.000 A 
ATOM     25  C   UNL     1       7.579   4.577  17.370  0.00  0.00    +0.000 A 
ATOM     26  C   UNL     1       6.368   4.302  16.745  0.00  0.00    +0.000 A 
ATOM     27  C   UNL     1       5.173   4.731  17.327  0.00  0.00    +0.000 A 
ENDBRANCH  15  22
ENDBRANCH   9  15
TORSDOF 3
ENDMDL
MODEL 3
REMARK VINA RESULT:      -7.9      1.880      4.174
REMARK  Name = 
REMARK  3 active torsions:
REMARK  status: ('A' for Active; 'I' for Inactive)
REMARK    1  A    between atoms: C_9  and  C_11
REMARK    2  A    between atoms: C_11  and  C_12
REMARK    3  A    between atoms: C_11  and  C_18
REMARK                            x       y       z     vdW  Elec       q    Type
REMARK                         _______ _______ _______ _____ _____    ______ ____
ROOT
ATOM      1  O   UNL     1       0.180  13.723  22.390  0.00  0.00    +0.000 OA
ATOM      2  C   UNL     1       0.101  12.680  21.771  0.00  0.00    +0.000 C 
ATOM      3  C   UNL     1      -0.970  11.637  21.907  0.00  0.00    +0.000 C 
ATOM      4  C   UNL     1      -0.769  10.770  20.663  0.00  0.00    +0.000 C 
ATOM      5  C   UNL     1       0.725  10.921  20.313  0.00  0.00    +0.000 C 
ATOM      6  C   UNL     1       0.982  10.903  18.796  0.00  0.00    +0.000 C 
ATOM      7  C   UNL     1       0.825   9.505  18.201  0.00  0.00    +0.000 C 
ATOM      8  N   UNL     1       1.643   8.533  18.933  0.00  0.00    +0.000 N 
ATOM      9  C   UNL     1       2.566   7.750  18.229  0.00  0.00    +0.000 C 
ATOM     10  O   UNL     1       2.705   7.918  17.011  0.00  0.00    +0.000 OA
ATOM     11  C   UNL     1       1.356   8.464  20.362  0.00  0.00    +0.000 C 
ATOM     12  C   UNL     1       1.581   9.836  20.998  0.00  0.00    +0.000 C 
ATOM     13  N   UNL     1       1.022  12.233  20.850  0.00  0.00    +0.000 N 
ATOM     14  H   UNL     1       1.863  12.769  20.671  0.00  0.00    +0.000 HD
ENDROOT
BRANCH   9  15
ATOM     15  C   UNL     1       3.349   6.629  18.985  0.00  0.00    +0.000 C 
BRANCH  15  16
ATOM     16  C   UNL     1       2.429   5.404  19.111  0.00  0.00    +0.000 A 
ATOM     17  C   UNL     1       1.919   5.024  20.366  0.00  0.00    +0.000 A 
ATOM     18  C   UNL     1       1.080   3.913  20.491  0.00  0.00    +0.000 A 
ATOM     19  C   UNL     1       0.734   3.176  19.367  0.00  0.00    +0.000 A 
ATOM     20  C   UNL     1       1.215   3.546  18.111  0.00  0.00    +0.000 A 
ATOM     21  C   UNL     1       2.063   4.652  17.983  0.00  0.00    +0.000 A 
ENDBRANCH  15  16
BRANCH  15  22
ATOM     22  C   UNL     1       4.732   6.247  18.422  0.00  0.00    +0.000 A 
ATOM     23  C   UNL     1       5.234   6.716  17.201  0.00  0.00    +0.000 A 
ATOM     24  C   UNL     1       6.447   6.239  16.693  0.00  0.00    +0.000 A 
ATOM     25  C   UNL     1       7.198   5.313  17.411  0.00  0.00    +0.000 A 
ATOM     26  C   UNL     1       6.765   4.904  18.667  0.00  0.00    +0.000 A 
ATOM     27  C   UNL     1       5.552   5.377  19.172  0.00  0.00    +0.000 A 
ENDBRANCH  15  22
ENDBRANCH   9  15
TORSDOF 3
ENDMDL
MODEL 4
REMARK VINA RESULT:      -7.9      1.853      4.136
REMARK  Name = 
REMARK  3 active torsions:
REMARK  status: ('A' for Active; 'I' for Inactive)
REMARK    1  A    between atoms: C_9  and  C_11
REMARK    2  A    between atoms: C_11  and  C_12
REMARK    3  A    between atoms: C_11  and  C_18
REMARK                            x       y       z     vdW  Elec       q    Type
REMARK                         _______ _______ _______ _____ _____    ______ ____
ROOT
ATOM      1  O   UNL     1       0.107  13.652  22.426  0.00  0.00    +0.000 OA
ATOM      2  C   UNL     1       0.043  12.620  21.786  0.00  0.00    +0.000 C 
ATOM      3  C   UNL     1      -1.044  11.588  21.859  0.00  0.00    +0.000 C 
ATOM      4  C   UNL     1      -0.800  10.739  20.610  0.00  0.00    +0.000 C 
ATOM      5  C   UNL     1       0.708  10.879  20.325  0.00  0.00    +0.000 C 
ATOM      6  C   UNL     1       1.028  10.882  18.821  0.00  0.00    +0.000 C 
ATOM      7  C   UNL     1       0.881   9.497  18.196  0.00  0.00    +0.000 C 
ATOM      8  N   UNL     1       1.657   8.504  18.945  0.00  0.00    +0.000 N 
ATOM      9  C   UNL     1       2.600   7.722  18.267  0.00  0.00    +0.000 C 
ATOM     10  O   UNL     1       2.792   7.908  17.058  0.00  0.00    +0.000 OA
ATOM     11  C   UNL     1       1.309   8.414  20.359  0.00  0.00    +0.000 C 
ATOM     12  C   UNL     1       1.523   9.773  21.027  0.00  0.00    +0.000 C 
ATOM     13  N   UNL     1       0.997  12.178  20.897  0.00  0.00    +0.000 N 
ATOM     14  H   UNL     1       1.851  12.707  20.762  0.00  0.00    +0.000 HD
ENDROOT
BRANCH   9  15
ATOM     15  C   UNL     1       3.338   6.579  19.035  0.00  0.00    +0.000 C 
BRANCH  15  16
ATOM     16  C   UNL     1       2.401   5.363  19.101  0.00  0.00    +0.000 A 
ATOM     17  C   UNL     1       2.123   4.614  17.942  0.00  0.00    +0.000 A 
ATOM     18  C   UNL     1       1.274   3.506  17.993  0.00  0.00    +0.000 A 
ATOM     19  C   UNL     1       0.701   3.126  19.199  0.00  0.00    +0.000 A 
ATOM     20  C   UNL     1       0.976   3.844  20.363  0.00  0.00    +0.000 A 
ATOM     21  C   UNL     1       1.819   4.961  20.314  0.00  0.00    +0.000 A 
ENDBRANCH  15  16
BRANCH  15  22
ATOM     22  C   UNL     1       4.739   6.191  18.523  0.00  0.00    +0.000 A 
ATOM     23  C   UNL     1       5.580   5.275  19.169  0.00  0.00    +0.000 A 
ATOM     24  C   UNL     1       6.886   5.056  18.715  0.00  0.00    +0.000 A 
ATOM     25  C   UNL     1       7.362   5.718  17.587  0.00  0.00    +0.000 A 
ATOM     26  C   UNL     1       6.515   6.560  16.877  0.00  0.00    +0.000 A 
ATOM     27  C   UNL     1       5.213   6.782  17.332  0.00  0.00    +0.000 A 
ENDBRANCH  15  22
ENDBRANCH   9  15
TORSDOF 3
ENDMDL
MODEL 5
REMARK VINA RESULT:      -7.7      3.523      7.498
REMARK  Name = 
REMARK  3 active torsions:
REMARK  status: ('A' for Active; 'I' for Inactive)
REMARK    1  A    between atoms: C_9  and  C_11
REMARK    2  A    between atoms: C_11  and  C_12
REMARK    3  A    between atoms: C_11  and  C_18
REMARK                            x       y       z     vdW  Elec       q    Type
REMARK                         _______ _______ _______ _____ _____    ______ ____
ROOT
ATOM      1  O   UNL     1       8.057   5.814  11.984  0.00  0.00    +0.000 OA
ATOM      2  C   UNL     1       7.560   5.294  12.964  0.00  0.00    +0.000 C 
ATOM      3  C   UNL     1       7.078   3.878  13.080  0.00  0.00    +0.000 C 
ATOM      4  C   UNL     1       6.914   3.690  14.589  0.00  0.00    +0.000 C 
ATOM      5  C   UNL     1       6.633   5.104  15.135  0.00  0.00    +0.000 C 
ATOM      6  C   UNL     1       7.248   5.334  16.526  0.00  0.00    +0.000 C 
ATOM      7  C   UNL     1       6.490   4.591  17.623  0.00  0.00    +0.000 C 
ATOM      8  N   UNL     1       5.059   4.906  17.571  0.00  0.00    +0.000 N 
ATOM      9  C   UNL     1       4.426   5.403  18.717  0.00  0.00    +0.000 C 
ATOM     10  O   UNL     1       5.091   5.606  19.741  0.00  0.00    +0.000 OA
ATOM     11  C   UNL     1       4.428   4.611  16.289  0.00  0.00    +0.000 C 
ATOM     12  C   UNL     1       5.120   5.404  15.181  0.00  0.00    +0.000 C 
ATOM     13  N   UNL     1       7.298   5.936  14.154  0.00  0.00    +0.000 N 
ATOM     14  H   UNL     1       7.487   6.927  14.250  0.00  0.00    +0.000 HD
ENDROOT
BRANCH   9  15
ATOM     15  C   UNL     1       2.879   5.621  18.701  0.00  0.00    +0.000 C 
BRANCH  15  16
ATOM     16  C   UNL     1       2.240   4.587  19.640  0.00  0.00    +0.000 A 
ATOM     17  C   UNL     1       1.200   3.756  19.183  0.00  0.00    +0.000 A 
ATOM     18  C   UNL     1       0.614   2.811  20.028  0.00  0.00    +0.000 A 
ATOM     19  C   UNL     1       1.064   2.677  21.335  0.00  0.00    +0.000 A 
ATOM     20  C   UNL     1       2.104   3.478  21.804  0.00  0.00    +0.000 A 
ATOM     21  C   UNL     1       2.688   4.433  20.962  0.00  0.00    +0.000 A 
ENDBRANCH  15  16
BRANCH  15  22
ATOM     22  C   UNL     1       2.376   7.047  18.998  0.00  0.00    +0.000 A 
ATOM     23  C   UNL     1       1.887   7.460  20.244  0.00  0.00    +0.000 A 
ATOM     24  C   UNL     1       1.338   8.735  20.414  0.00  0.00    +0.000 A 
ATOM     25  C   UNL     1       1.301   9.635  19.352  0.00  0.00    +0.000 A 
ATOM     26  C   UNL     1       1.865   9.281  18.132  0.00  0.00    +0.000 A 
ATOM     27  C   UNL     1       2.409   8.006  17.962  0.00  0.00    +0.000 A 
ENDBRANCH  15  22
ENDBRANCH   9  15
TORSDOF 3
ENDMDL
MODEL 6
REMARK VINA RESULT:      -7.4      0.965      1.600
REMARK  Name = 
REMARK  3 active torsions:
REMARK  status: ('A' for Active; 'I' for Inactive)
REMARK    1  A    between atoms: C_9  and  C_11
REMARK    2  A    between atoms: C_11  and  C_12
REMARK    3  A    between atoms: C_11  and  C_18
REMARK                            x       y       z     vdW  Elec       q    Type
REMARK                         _______ _______ _______ _____ _____    ______ ____
ROOT
ATOM      1  O   UNL     1      -3.599  12.066  18.336  0.00  0.00    +0.000 OA
ATOM      2  C   UNL     1      -2.445  11.705  18.464  0.00  0.00    +0.000 C 
ATOM      3  C   UNL     1      -1.228  12.375  17.897  0.00  0.00    +0.000 C 
ATOM      4  C   UNL     1      -0.081  11.722  18.669  0.00  0.00    +0.000 C 
ATOM      5  C   UNL     1      -0.612  10.329  19.064  0.00  0.00    +0.000 C 
ATOM      6  C   UNL     1      -0.097   9.866  20.437  0.00  0.00    +0.000 C 
ATOM      7  C   UNL     1       1.375   9.463  20.395  0.00  0.00    +0.000 C 
ATOM      8  N   UNL     1       1.615   8.482  19.332  0.00  0.00    +0.000 N 
ATOM      9  C   UNL     1       2.219   7.260  19.654  0.00  0.00    +0.000 C 
ATOM     10  O   UNL     1       2.504   7.012  20.833  0.00  0.00    +0.000 OA
ATOM     11  C   UNL     1       1.219   8.932  18.002  0.00  0.00    +0.000 C 
ATOM     12  C   UNL     1      -0.272   9.268  17.997  0.00  0.00    +0.000 C 
ATOM     13  N   UNL     1      -2.040  10.565  19.123  0.00  0.00    +0.000 N 
ATOM     14  H   UNL     1      -2.728   9.934  19.517  0.00  0.00    +0.000 HD
ENDROOT
BRANCH   9  15
ATOM     15  C   UNL     1       2.590   6.266  18.507  0.00  0.00    +0.000 C 
BRANCH  15  16
ATOM     16  C   UNL     1       4.117   6.267  18.347  0.00  0.00    +0.000 A 
ATOM     17  C   UNL     1       4.924   5.503  19.211  0.00  0.00    +0.000 A 
ATOM     18  C   UNL     1       6.315   5.495  19.072  0.00  0.00    +0.000 A 
ATOM     19  C   UNL     1       6.915   6.240  18.066  0.00  0.00    +0.000 A 
ATOM     20  C   UNL     1       6.133   6.991  17.188  0.00  0.00    +0.000 A 
ATOM     21  C   UNL     1       4.740   7.008  17.330  0.00  0.00    +0.000 A 
ENDBRANCH  15  16
BRANCH  15  22
ATOM     22  C   UNL     1       2.029   4.835  18.621  0.00  0.00    +0.000 A 
ATOM     23  C   UNL     1       2.036   3.907  17.571  0.00  0.00    +0.000 A 
ATOM     24  C   UNL     1       1.406   2.665  17.706  0.00  0.00    +0.000 A 
ATOM     25  C   UNL     1       0.791   2.312  18.903  0.00  0.00    +0.000 A 
ATOM     26  C   UNL     1       0.853   3.178  19.989  0.00  0.00    +0.000 A 
ATOM     27  C   UNL     1       1.478   4.420  19.852  0.00  0.00    +0.000 A 
ENDBRANCH  15  22
ENDBRANCH   9  15
TORSDOF 3
ENDMDL
MODEL 7
REMARK VINA RESULT:      -7.4      3.660      7.579
REMARK  Name = 
REMARK  3 active torsions:
REMARK  status: ('A' for Active; 'I' for Inactive)
REMARK    1  A    between atoms: C_9  and  C_11
REMARK    2  A    between atoms: C_11  and  C_12
REMARK    3  A    between atoms: C_11  and  C_18
REMARK                            x       y       z     vdW  Elec       q    Type
REMARK                         _______ _______ _______ _____ _____    ______ ____
ROOT
ATOM      1  O   UNL     1       7.529   5.244  11.514  0.00  0.00    +0.000 OA
ATOM      2  C   UNL     1       7.120   4.821  12.578  0.00  0.00    +0.000 C 
ATOM      3  C   UNL     1       6.678   3.417  12.873  0.00  0.00    +0.000 C 
ATOM      4  C   UNL     1       6.635   3.382  14.401  0.00  0.00    +0.000 C 
ATOM      5  C   UNL     1       6.367   4.840  14.823  0.00  0.00    +0.000 C 
ATOM      6  C   UNL     1       7.084   5.219  16.131  0.00  0.00    +0.000 C 
ATOM      7  C   UNL     1       6.428   4.582  17.353  0.00  0.00    +0.000 C 
ATOM      8  N   UNL     1       4.991   4.872  17.383  0.00  0.00    +0.000 N 
ATOM      9  C   UNL     1       4.439   5.475  18.520  0.00  0.00    +0.000 C 
ATOM     10  O   UNL     1       5.177   5.790  19.463  0.00  0.00    +0.000 OA
ATOM     11  C   UNL     1       4.269   4.440  16.191  0.00  0.00    +0.000 C 
ATOM     12  C   UNL     1       4.857   5.125  14.958  0.00  0.00    +0.000 C 
ATOM     13  N   UNL     1       6.937   5.577  13.714  0.00  0.00    +0.000 N 
ATOM     14  H   UNL     1       7.114   6.575  13.694  0.00  0.00    +0.000 HD
ENDROOT
BRANCH   9  15
ATOM     15  C   UNL     1       2.891   5.671  18.605  0.00  0.00    +0.000 C 
BRANCH  15  16
ATOM     16  C   UNL     1       2.329   4.626  19.580  0.00  0.00    +0.000 A 
ATOM     17  C   UNL     1       3.033   4.295  20.753  0.00  0.00    +0.000 A 
ATOM     18  C   UNL     1       2.529   3.348  21.648  0.00  0.00    +0.000 A 
ATOM     19  C   UNL     1       1.314   2.727  21.388  0.00  0.00    +0.000 A 
ATOM     20  C   UNL     1       0.592   3.053  20.240  0.00  0.00    +0.000 A 
ATOM     21  C   UNL     1       1.098   3.995  19.337  0.00  0.00    +0.000 A 
ENDBRANCH  15  16
BRANCH  15  22
ATOM     22  C   UNL     1       2.388   7.090  18.937  0.00  0.00    +0.000 A 
ATOM     23  C   UNL     1       1.921   7.477  20.199  0.00  0.00    +0.000 A 
ATOM     24  C   UNL     1       1.369   8.746  20.403  0.00  0.00    +0.000 A 
ATOM     25  C   UNL     1       1.309   9.665  19.359  0.00  0.00    +0.000 A 
ATOM     26  C   UNL     1       1.852   9.337  18.123  0.00  0.00    +0.000 A 
ATOM     27  C   UNL     1       2.398   8.067  17.919  0.00  0.00    +0.000 A 
ENDBRANCH  15  22
ENDBRANCH   9  15
TORSDOF 3
ENDMDL
MODEL 8
REMARK VINA RESULT:      -7.4      1.990      4.096
REMARK  Name = 
REMARK  3 active torsions:
REMARK  status: ('A' for Active; 'I' for Inactive)
REMARK    1  A    between atoms: C_9  and  C_11
REMARK    2  A    between atoms: C_11  and  C_12
REMARK    3  A    between atoms: C_11  and  C_18
REMARK                            x       y       z     vdW  Elec       q    Type
REMARK                         _______ _______ _______ _____ _____    ______ ____
ROOT
ATOM      1  O   UNL     1      -0.372  11.974  23.133  0.00  0.00    +0.000 OA
ATOM      2  C   UNL     1      -0.253  11.110  22.287  0.00  0.00    +0.000 C 
ATOM      3  C   UNL     1      -1.256  10.047  21.945  0.00  0.00    +0.000 C 
ATOM      4  C   UNL     1      -0.748   9.509  20.606  0.00  0.00    +0.000 C 
ATOM      5  C   UNL     1       0.772   9.765  20.628  0.00  0.00    +0.000 C 
ATOM      6  C   UNL     1       1.333  10.117  19.240  0.00  0.00    +0.000 C 
ATOM      7  C   UNL     1       1.395   8.902  18.318  0.00  0.00    +0.000 C 
ATOM      8  N   UNL     1       2.111   7.796  18.962  0.00  0.00    +0.000 N 
ATOM      9  C   UNL     1       3.208   7.221  18.310  0.00  0.00    +0.000 C 
ATOM     10  O   UNL     1       3.581   7.679  17.222  0.00  0.00    +0.000 OA
ATOM     11  C   UNL     1       1.543   7.380  20.240  0.00  0.00    +0.000 C 
ATOM     12  C   UNL     1       1.542   8.561  21.210  0.00  0.00    +0.000 C 
ATOM     13  N   UNL     1       0.864  10.913  21.506  0.00  0.00    +0.000 N 
ATOM     14  H   UNL     1       1.686  11.491  21.640  0.00  0.00    +0.000 HD
ENDROOT
BRANCH   9  15
ATOM     15  C   UNL     1       3.894   5.963  18.934  0.00  0.00    +0.000 C 
BRANCH  15  16
ATOM     16  C   UNL     1       2.864   4.825  18.972  0.00  0.00    +0.000 A 
ATOM     17  C   UNL     1       2.107   4.510  17.828  0.00  0.00    +0.000 A 
ATOM     18  C   UNL     1       1.169   3.475  17.852  0.00  0.00    +0.000 A 
ATOM     19  C   UNL     1       0.982   2.736  19.013  0.00  0.00    +0.000 A 
ATOM     20  C   UNL     1       1.734   3.020  20.153  0.00  0.00    +0.000 A 
ATOM     21  C   UNL     1       2.667   4.063  20.135  0.00  0.00    +0.000 A 
ENDBRANCH  15  16
BRANCH  15  22
ATOM     22  C   UNL     1       5.222   5.509  18.297  0.00  0.00    +0.000 A 
ATOM     23  C   UNL     1       5.311   4.844  17.067  0.00  0.00    +0.000 A 
ATOM     24  C   UNL     1       6.537   4.356  16.601  0.00  0.00    +0.000 A 
ATOM     25  C   UNL     1       7.701   4.555  17.337  0.00  0.00    +0.000 A 
ATOM     26  C   UNL     1       7.652   5.292  18.514  0.00  0.00    +0.000 A 
ATOM     27  C   UNL     1       6.428   5.776  18.981  0.00  0.00    +0.000 A 
ENDBRANCH  15  22
ENDBRANCH   9  15
TORSDOF 3
ENDMDL
MODEL 9
REMARK VINA RESULT:      -7.2      3.526      7.549
REMARK  Name = 
REMARK  3 active torsions:
REMARK  status: ('A' for Active; 'I' for Inactive)
REMARK    1  A    between atoms: C_9  and  C_11
REMARK    2  A    between atoms: C_11  and  C_12
REMARK    3  A    between atoms: C_11  and  C_18
REMARK                            x       y       z     vdW  Elec       q    Type
REMARK                         _______ _______ _______ _____ _____    ______ ____
ROOT
ATOM      1  O   UNL     1       7.914   5.672  11.906  0.00  0.00    +0.000 OA
ATOM      2  C   UNL     1       7.444   5.180  12.913  0.00  0.00    +0.000 C 
ATOM      3  C   UNL     1       7.015   3.754  13.097  0.00  0.00    +0.000 C 
ATOM      4  C   UNL     1       6.870   3.628  14.614  0.00  0.00    +0.000 C 
ATOM      5  C   UNL     1       6.543   5.055  15.100  0.00  0.00    +0.000 C 
ATOM      6  C   UNL     1       7.161   5.369  16.472  0.00  0.00    +0.000 C 
ATOM      7  C   UNL     1       6.439   4.650  17.609  0.00  0.00    +0.000 C 
ATOM      8  N   UNL     1       4.997   4.911  17.557  0.00  0.00    +0.000 N 
ATOM      9  C   UNL     1       4.357   5.436  18.686  0.00  0.00    +0.000 C 
ATOM     10  O   UNL     1       5.022   5.709  19.694  0.00  0.00    +0.000 OA
ATOM     11  C   UNL     1       4.366   4.536  16.296  0.00  0.00    +0.000 C 
ATOM     12  C   UNL     1       5.021   5.304  15.147  0.00  0.00    +0.000 C 
ATOM     13  N   UNL     1       7.169   5.865  14.076  0.00  0.00    +0.000 N 
ATOM     14  H   UNL     1       7.324   6.865  14.126  0.00  0.00    +0.000 HD
ENDROOT
BRANCH   9  15
ATOM     15  C   UNL     1       2.803   5.599  18.676  0.00  0.00    +0.000 C 
BRANCH  15  16
ATOM     16  C   UNL     1       2.204   4.538  19.612  0.00  0.00    +0.000 A 
ATOM     17  C   UNL     1       2.686   4.394  20.926  0.00  0.00    +0.000 A 
ATOM     18  C   UNL     1       2.147   3.434  21.786  0.00  0.00    +0.000 A 
ATOM     19  C   UNL     1       1.115   2.614  21.349  0.00  0.00    +0.000 A 
ATOM     20  C   UNL     1       0.611   2.751  20.056  0.00  0.00    +0.000 A 
ATOM     21  C   UNL     1       1.155   3.706  19.189  0.00  0.00    +0.000 A 
ENDBRANCH  15  16
BRANCH  15  22
ATOM     22  C   UNL     1       2.250   7.005  18.981  0.00  0.00    +0.000 A 
ATOM     23  C   UNL     1       2.161   8.032  18.032  0.00  0.00    +0.000 A 
ATOM     24  C   UNL     1       1.758   9.319  18.403  0.00  0.00    +0.000 A 
ATOM     25  C   UNL     1       1.401   9.596  19.720  0.00  0.00    +0.000 A 
ATOM     26  C   UNL     1       1.392   8.570  20.658  0.00  0.00    +0.000 A 
ATOM     27  C   UNL     1       1.799   7.286  20.288  0.00  0.00    +0.000 A 
ENDBRANCH  15  22
ENDBRANCH   9  15
TORSDOF 3
ENDMDL
