MODEL 1
REMARK VINA RESULT:      -7.5      0.000      0.000
REMARK  Name = 
REMARK  8 active torsions:
REMARK  status: ('A' for Active; 'I' for Inactive)
REMARK    1  A    between atoms: C_1  and  O_2
REMARK    2  A    between atoms: O_2  and  C_3
REMARK    3  A    between atoms: C_6  and  C_7
REMARK    4  A    between atoms: C_10  and  C_11
REMARK    5  A    between atoms: C_11  and  C_12
REMARK    6  A    between atoms: C_15  and  C_16
REMARK    7  A    between atoms: C_19  and  O_20
REMARK    8  A    between atoms: O_20  and  C_21
REMARK                            x       y       z     vdW  Elec       q    Type
REMARK                         _______ _______ _______ _____ _____    ______ ____
ROOT
ATOM      1  C   UNL     1       5.945   6.438  16.578  0.00  0.00    +0.000 C 
ENDROOT
BRANCH   1   5
ATOM      2  C   UNL     1       2.863   7.108  18.188  0.00  0.00    +0.000 A 
ATOM      3  N   UNL     1       2.673   5.821  17.959  0.00  0.00    +0.000 NA
ATOM      4  N   UNL     1       3.783   5.369  17.288  0.00  0.00    +0.000 NA
ATOM      5  C   UNL     1       4.579   6.406  17.144  0.00  0.00    +0.000 A 
ATOM      6  O   UNL     1       4.064   7.553  17.696  0.00  0.00    +0.000 OA
BRANCH   2  10
ATOM      7  C   UNL     1       0.344   9.947  20.163  0.00  0.00    +0.000 A 
ATOM      8  C   UNL     1       0.667  10.092  18.817  0.00  0.00    +0.000 A 
ATOM      9  C   UNL     1       1.481   9.153  18.181  0.00  0.00    +0.000 A 
ATOM     10  C   UNL     1       2.002   8.055  18.886  0.00  0.00    +0.000 A 
ATOM     11  C   UNL     1       1.681   7.923  20.241  0.00  0.00    +0.000 A 
ATOM     12  C   UNL     1       0.860   8.865  20.876  0.00  0.00    +0.000 A 
BRANCH   7  14
ATOM     13  C   UNL     1      -0.716  10.833  22.079  0.00  0.00    +0.000 C 
ATOM     14  O   UNL     1      -0.435  10.940  20.689  0.00  0.00    +0.000 OA
ENDBRANCH   7  14
ENDBRANCH   2  10
ENDBRANCH   1   5
BRANCH   1  15
ATOM     15  C   UNL     1       6.942   7.093  17.450  0.00  0.00    +0.000 A 
ATOM     16  N   UNL     1       7.727   6.541  18.351  0.00  0.00    +0.000 NA
ATOM     17  N   UNL     1       8.539   7.546  18.824  0.00  0.00    +0.000 NA
ATOM     18  C   UNL     1       8.200   8.647  18.183  0.00  0.00    +0.000 A 
ATOM     19  O   UNL     1       7.188   8.433  17.277  0.00  0.00    +0.000 OA
BRANCH  18  20
ATOM     20  C   UNL     1       8.733   9.996  18.319  0.00  0.00    +0.000 A 
ATOM     21  C   UNL     1       9.729  10.239  19.276  0.00  0.00    +0.000 A 
ATOM     22  C   UNL     1      10.231  11.526  19.478  0.00  0.00    +0.000 A 
ATOM     23  C   UNL     1       9.765  12.595  18.715  0.00  0.00    +0.000 A 
ATOM     24  C   UNL     1       8.782  12.370  17.753  0.00  0.00    +0.000 A 
ATOM     25  C   UNL     1       8.270  11.078  17.554  0.00  0.00    +0.000 A 
BRANCH  23  26
ATOM     26  O   UNL     1      10.299  13.810  19.041  0.00  0.00    +0.000 OA
ATOM     27  C   UNL     1       9.657  14.947  18.478  0.00  0.00    +0.000 C 
ENDBRANCH  23  26
ENDBRANCH  18  20
ENDBRANCH   1  15
TORSDOF 6
ENDMDL
MODEL 2
REMARK VINA RESULT:      -7.5      0.595      7.832
REMARK  Name = 
REMARK  8 active torsions:
REMARK  status: ('A' for Active; 'I' for Inactive)
REMARK    1  A    between atoms: C_1  and  O_2
REMARK    2  A    between atoms: O_2  and  C_3
REMARK    3  A    between atoms: C_6  and  C_7
REMARK    4  A    between atoms: C_10  and  C_11
REMARK    5  A    between atoms: C_11  and  C_12
REMARK    6  A    between atoms: C_15  and  C_16
REMARK    7  A    between atoms: C_19  and  O_20
REMARK    8  A    between atoms: O_20  and  C_21
REMARK                            x       y       z     vdW  Elec       q    Type
REMARK                         _______ _______ _______ _____ _____    ______ ____
ROOT
ATOM      1  C   UNL     1       5.837   6.608  16.526  0.00  0.00    +0.000 C 
ENDROOT
BRANCH   1   5
ATOM      2  C   UNL     1       8.181   8.627  18.251  0.00  0.00    +0.000 A 
ATOM      3  N   UNL     1       8.554   7.458  18.739  0.00  0.00    +0.000 NA
ATOM      4  N   UNL     1       7.713   6.516  18.198  0.00  0.00    +0.000 NA
ATOM      5  C   UNL     1       6.877   7.166  17.417  0.00  0.00    +0.000 A 
ATOM      6  O   UNL     1       7.113   8.518  17.396  0.00  0.00    +0.000 OA
BRANCH   2  10
ATOM      7  C   UNL     1       9.833  12.527  18.853  0.00  0.00    +0.000 A 
ATOM      8  C   UNL     1       8.966  12.274  17.794  0.00  0.00    +0.000 A 
ATOM      9  C   UNL     1       8.425  10.999  17.614  0.00  0.00    +0.000 A 
ATOM     10  C   UNL     1       8.754   9.946  18.485  0.00  0.00    +0.000 A 
ATOM     11  C   UNL     1       9.635  10.208  19.539  0.00  0.00    +0.000 A 
ATOM     12  C   UNL     1      10.174  11.489  19.721  0.00  0.00    +0.000 A 
BRANCH   7  14
ATOM     13  C   UNL     1      10.102  14.606  17.762  0.00  0.00    +0.000 C 
ATOM     14  O   UNL     1      10.324  13.802  18.914  0.00  0.00    +0.000 OA
ENDBRANCH   7  14
ENDBRANCH   2  10
ENDBRANCH   1   5
BRANCH   1  15
ATOM     15  C   UNL     1       4.491   6.552  17.134  0.00  0.00    +0.000 A 
ATOM     16  N   UNL     1       3.741   5.495  17.361  0.00  0.00    +0.000 NA
ATOM     17  N   UNL     1       2.626   5.947  18.027  0.00  0.00    +0.000 NA
ATOM     18  C   UNL     1       2.765   7.251  18.165  0.00  0.00    +0.000 A 
ATOM     19  O   UNL     1       3.943   7.711  17.625  0.00  0.00    +0.000 OA
BRANCH  18  20
ATOM     20  C   UNL     1       1.862   8.216  18.780  0.00  0.00    +0.000 A 
ATOM     21  C   UNL     1       1.315   9.235  17.988  0.00  0.00    +0.000 A 
ATOM     22  C   UNL     1       0.488  10.212  18.545  0.00  0.00    +0.000 A 
ATOM     23  C   UNL     1       0.171  10.180  19.902  0.00  0.00    +0.000 A 
ATOM     24  C   UNL     1       0.698   9.168  20.703  0.00  0.00    +0.000 A 
ATOM     25  C   UNL     1       1.537   8.189  20.145  0.00  0.00    +0.000 A 
BRANCH  23  26
ATOM     26  O   UNL     1      -0.606  11.217  20.335  0.00  0.00    +0.000 OA
ATOM     27  C   UNL     1      -1.668  11.605  19.473  0.00  0.00    +0.000 C 
ENDBRANCH  23  26
ENDBRANCH  18  20
ENDBRANCH   1  15
TORSDOF 6
ENDMDL
MODEL 3
REMARK VINA RESULT:      -7.4      4.914      8.871
REMARK  Name = 
REMARK  8 active torsions:
REMARK  status: ('A' for Active; 'I' for Inactive)
REMARK    1  A    between atoms: C_1  and  O_2
REMARK    2  A    between atoms: O_2  and  C_3
REMARK    3  A    between atoms: C_6  and  C_7
REMARK    4  A    between atoms: C_10  and  C_11
REMARK    5  A    between atoms: C_11  and  C_12
REMARK    6  A    between atoms: C_15  and  C_16
REMARK    7  A    between atoms: C_19  and  O_20
REMARK    8  A    between atoms: O_20  and  C_21
REMARK                            x       y       z     vdW  Elec       q    Type
REMARK                         _______ _______ _______ _____ _____    ______ ____
ROOT
ATOM      1  C   UNL     1       2.813   5.688  19.853  0.00  0.00    +0.000 C 
ENDROOT
BRANCH   1   5
ATOM      2  C   UNL     1       5.414   5.062  17.532  0.00  0.00    +0.000 A 
ATOM      3  N   UNL     1       6.147   5.065  18.631  0.00  0.00    +0.000 NA
ATOM      4  N   UNL     1       5.296   5.334  19.675  0.00  0.00    +0.000 NA
ATOM      5  C   UNL     1       4.098   5.483  19.152  0.00  0.00    +0.000 A 
ATOM      6  O   UNL     1       4.091   5.322  17.789  0.00  0.00    +0.000 OA
BRANCH   2  10
ATOM      7  C   UNL     1       6.530   4.262  13.480  0.00  0.00    +0.000 A 
ATOM      8  C   UNL     1       5.266   3.923  13.954  0.00  0.00    +0.000 A 
ATOM      9  C   UNL     1       4.909   4.199  15.276  0.00  0.00    +0.000 A 
ATOM     10  C   UNL     1       5.820   4.808  16.156  0.00  0.00    +0.000 A 
ATOM     11  C   UNL     1       7.091   5.135  15.674  0.00  0.00    +0.000 A 
ATOM     12  C   UNL     1       7.446   4.861  14.346  0.00  0.00    +0.000 A 
BRANCH   7  14
ATOM     13  C   UNL     1       6.394   2.602  11.805  0.00  0.00    +0.000 C 
ATOM     14  O   UNL     1       6.779   3.919  12.180  0.00  0.00    +0.000 OA
ENDBRANCH   7  14
ENDBRANCH   2  10
ENDBRANCH   1   5
BRANCH   1  15
ATOM     15  C   UNL     1       2.268   7.055  19.724  0.00  0.00    +0.000 A 
ATOM     16  N   UNL     1       2.311   7.856  18.680  0.00  0.00    +0.000 NA
ATOM     17  N   UNL     1       1.585   8.974  19.019  0.00  0.00    +0.000 NA
ATOM     18  C   UNL     1       1.144   8.785  20.247  0.00  0.00    +0.000 A 
ATOM     19  O   UNL     1       1.533   7.572  20.762  0.00  0.00    +0.000 OA
BRANCH  18  20
ATOM     20  C   UNL     1       0.343   9.668  21.086  0.00  0.00    +0.000 A 
ATOM     21  C   UNL     1       0.001  10.939  20.602  0.00  0.00    +0.000 A 
ATOM     22  C   UNL     1      -0.719  11.838  21.391  0.00  0.00    +0.000 A 
ATOM     23  C   UNL     1      -1.133  11.480  22.672  0.00  0.00    +0.000 A 
ATOM     24  C   UNL     1      -0.811  10.216  23.166  0.00  0.00    +0.000 A 
ATOM     25  C   UNL     1      -0.079   9.314  22.377  0.00  0.00    +0.000 A 
BRANCH  23  26
ATOM     26  O   UNL     1      -1.787  12.462  23.361  0.00  0.00    +0.000 OA
ATOM     27  C   UNL     1      -3.185  12.276  23.539  0.00  0.00    +0.000 C 
ENDBRANCH  23  26
ENDBRANCH  18  20
ENDBRANCH   1  15
TORSDOF 6
ENDMDL
MODEL 4
REMARK VINA RESULT:      -7.4      4.924      8.564
REMARK  Name = 
REMARK  8 active torsions:
REMARK  status: ('A' for Active; 'I' for Inactive)
REMARK    1  A    between atoms: C_1  and  O_2
REMARK    2  A    between atoms: O_2  and  C_3
REMARK    3  A    between atoms: C_6  and  C_7
REMARK    4  A    between atoms: C_10  and  C_11
REMARK    5  A    between atoms: C_11  and  C_12
REMARK    6  A    between atoms: C_15  and  C_16
REMARK    7  A    between atoms: C_19  and  O_20
REMARK    8  A    between atoms: O_20  and  C_21
REMARK                            x       y       z     vdW  Elec       q    Type
REMARK                         _______ _______ _______ _____ _____    ______ ____
ROOT
ATOM      1  C   UNL     1       2.208   5.029  20.658  0.00  0.00    +0.000 C 
ENDROOT
BRANCH   1   5
ATOM      2  C   UNL     1       4.251   4.045  17.937  0.00  0.00    +0.000 A 
ATOM      3  N   UNL     1       3.621   2.898  18.117  0.00  0.00    +0.000 NA
ATOM      4  N   UNL     1       2.778   3.071  19.187  0.00  0.00    +0.000 NA
ATOM      5  C   UNL     1       2.947   4.309  19.599  0.00  0.00    +0.000 A 
ATOM      6  O   UNL     1       3.869   4.996  18.850  0.00  0.00    +0.000 OA
BRANCH   2  10
ATOM      7  C   UNL     1       7.095   5.051  14.904  0.00  0.00    +0.000 A 
ATOM      8  C   UNL     1       5.909   4.396  14.583  0.00  0.00    +0.000 A 
ATOM      9  C   UNL     1       4.983   4.083  15.581  0.00  0.00    +0.000 A 
ATOM     10  C   UNL     1       5.235   4.406  16.925  0.00  0.00    +0.000 A 
ATOM     11  C   UNL     1       6.434   5.053  17.239  0.00  0.00    +0.000 A 
ATOM     12  C   UNL     1       7.360   5.371  16.236  0.00  0.00    +0.000 A 
BRANCH   7  14
ATOM     13  C   UNL     1       7.491   4.811  12.587  0.00  0.00    +0.000 C 
ATOM     14  O   UNL     1       7.939   5.281  13.852  0.00  0.00    +0.000 OA
ENDBRANCH   7  14
ENDBRANCH   2  10
ENDBRANCH   1   5
BRANCH   1  15
ATOM     15  C   UNL     1       1.978   6.459  20.364  0.00  0.00    +0.000 A 
ATOM     16  N   UNL     1       2.279   7.127  19.270  0.00  0.00    +0.000 NA
ATOM     17  N   UNL     1       1.780   8.398  19.443  0.00  0.00    +0.000 NA
ATOM     18  C   UNL     1       1.206   8.425  20.630  0.00  0.00    +0.000 A 
ATOM     19  O   UNL     1       1.284   7.215  21.277  0.00  0.00    +0.000 OA
BRANCH  18  20
ATOM     20  C   UNL     1       0.542   9.531  21.308  0.00  0.00    +0.000 A 
ATOM     21  C   UNL     1      -0.214   9.267  22.459  0.00  0.00    +0.000 A 
ATOM     22  C   UNL     1      -0.910  10.286  23.110  0.00  0.00    +0.000 A 
ATOM     23  C   UNL     1      -0.850  11.597  22.639  0.00  0.00    +0.000 A 
ATOM     24  C   UNL     1      -0.096  11.880  21.501  0.00  0.00    +0.000 A 
ATOM     25  C   UNL     1       0.598  10.853  20.840  0.00  0.00    +0.000 A 
BRANCH  23  26
ATOM     26  O   UNL     1      -1.613  12.493  23.334  0.00  0.00    +0.000 OA
ATOM     27  C   UNL     1      -2.984  12.154  23.496  0.00  0.00    +0.000 C 
ENDBRANCH  23  26
ENDBRANCH  18  20
ENDBRANCH   1  15
TORSDOF 6
ENDMDL
MODEL 5
REMARK VINA RESULT:      -7.3      4.770      9.944
REMARK  Name = 
REMARK  8 active torsions:
REMARK  status: ('A' for Active; 'I' for Inactive)
REMARK    1  A    between atoms: C_1  and  O_2
REMARK    2  A    between atoms: O_2  and  C_3
REMARK    3  A    between atoms: C_6  and  C_7
REMARK    4  A    between atoms: C_10  and  C_11
REMARK    5  A    between atoms: C_11  and  C_12
REMARK    6  A    between atoms: C_15  and  C_16
REMARK    7  A    between atoms: C_19  and  O_20
REMARK    8  A    between atoms: O_20  and  C_21
REMARK                            x       y       z     vdW  Elec       q    Type
REMARK                         _______ _______ _______ _____ _____    ______ ____
ROOT
ATOM      1  C   UNL     1       0.825  10.002  18.869  0.00  0.00    +0.000 C 
ENDROOT
BRANCH   1   5
ATOM      2  C   UNL     1       2.823   7.096  18.539  0.00  0.00    +0.000 A 
ATOM      3  N   UNL     1       2.438   6.912  19.788  0.00  0.00    +0.000 NA
ATOM      4  N   UNL     1       1.655   7.988  20.126  0.00  0.00    +0.000 NA
ATOM      5  C   UNL     1       1.613   8.766  19.065  0.00  0.00    +0.000 A 
ATOM      6  O   UNL     1       2.331   8.263  18.009  0.00  0.00    +0.000 OA
BRANCH   2  10
ATOM      7  C   UNL     1       5.206   4.511  16.102  0.00  0.00    +0.000 A 
ATOM      8  C   UNL     1       4.203   3.998  16.920  0.00  0.00    +0.000 A 
ATOM      9  C   UNL     1       3.425   4.853  17.703  0.00  0.00    +0.000 A 
ATOM     10  C   UNL     1       3.646   6.241  17.693  0.00  0.00    +0.000 A 
ATOM     11  C   UNL     1       4.662   6.746  16.876  0.00  0.00    +0.000 A 
ATOM     12  C   UNL     1       5.440   5.886  16.088  0.00  0.00    +0.000 A 
BRANCH   7  14
ATOM     13  C   UNL     1       6.299   3.955  14.082  0.00  0.00    +0.000 C 
ATOM     14  O   UNL     1       5.924   3.580  15.402  0.00  0.00    +0.000 OA
ENDBRANCH   7  14
ENDBRANCH   2  10
ENDBRANCH   1   5
BRANCH   1  15
ATOM     15  C   UNL     1       0.389  10.643  20.127  0.00  0.00    +0.000 A 
ATOM     16  N   UNL     1       1.128  11.029  21.146  0.00  0.00    +0.000 NA
ATOM     17  N   UNL     1       0.276  11.654  22.027  0.00  0.00    +0.000 NA
ATOM     18  C   UNL     1      -0.928  11.611  21.491  0.00  0.00    +0.000 A 
ATOM     19  O   UNL     1      -0.933  10.986  20.267  0.00  0.00    +0.000 OA
BRANCH  18  20
ATOM     20  C   UNL     1      -2.191  12.111  22.019  0.00  0.00    +0.000 A 
ATOM     21  C   UNL     1      -2.441  12.007  23.395  0.00  0.00    +0.000 A 
ATOM     22  C   UNL     1      -3.658  12.424  23.936  0.00  0.00    +0.000 A 
ATOM     23  C   UNL     1      -4.645  12.973  23.119  0.00  0.00    +0.000 A 
ATOM     24  C   UNL     1      -4.410  13.093  21.750  0.00  0.00    +0.000 A 
ATOM     25  C   UNL     1      -3.189  12.667  21.203  0.00  0.00    +0.000 A 
BRANCH  23  26
ATOM     26  O   UNL     1      -5.807  13.296  23.761  0.00  0.00    +0.000 OA
ATOM     27  C   UNL     1      -6.703  14.137  23.045  0.00  0.00    +0.000 C 
ENDBRANCH  23  26
ENDBRANCH  18  20
ENDBRANCH   1  15
TORSDOF 6
ENDMDL
MODEL 6
REMARK VINA RESULT:      -7.3      5.071      8.667
REMARK  Name = 
REMARK  8 active torsions:
REMARK  status: ('A' for Active; 'I' for Inactive)
REMARK    1  A    between atoms: C_1  and  O_2
REMARK    2  A    between atoms: O_2  and  C_3
REMARK    3  A    between atoms: C_6  and  C_7
REMARK    4  A    between atoms: C_10  and  C_11
REMARK    5  A    between atoms: C_11  and  C_12
REMARK    6  A    between atoms: C_15  and  C_16
REMARK    7  A    between atoms: C_19  and  O_20
REMARK    8  A    between atoms: O_20  and  C_21
REMARK                            x       y       z     vdW  Elec       q    Type
REMARK                         _______ _______ _______ _____ _____    ______ ____
ROOT
ATOM      1  C   UNL     1       1.929   4.836  20.576  0.00  0.00    +0.000 C 
ENDROOT
BRANCH   1   5
ATOM      2  C   UNL     1       4.602   3.965  18.422  0.00  0.00    +0.000 A 
ATOM      3  N   UNL     1       4.689   2.937  19.245  0.00  0.00    +0.000 NA
ATOM      4  N   UNL     1       3.723   3.114  20.206  0.00  0.00    +0.000 NA
ATOM      5  C   UNL     1       3.109   4.240  19.915  0.00  0.00    +0.000 A 
ATOM      6  O   UNL     1       3.611   4.842  18.787  0.00  0.00    +0.000 OA
BRANCH   2  10
ATOM      7  C   UNL     1       6.948   4.845  14.955  0.00  0.00    +0.000 A 
ATOM      8  C   UNL     1       7.497   4.935  16.231  0.00  0.00    +0.000 A 
ATOM      9  C   UNL     1       6.724   4.635  17.354  0.00  0.00    +0.000 A 
ATOM     10  C   UNL     1       5.378   4.253  17.223  0.00  0.00    +0.000 A 
ATOM     11  C   UNL     1       4.833   4.175  15.937  0.00  0.00    +0.000 A 
ATOM     12  C   UNL     1       5.611   4.473  14.810  0.00  0.00    +0.000 A 
BRANCH   7  14
ATOM     13  C   UNL     1       7.363   4.805  12.629  0.00  0.00    +0.000 C 
ATOM     14  O   UNL     1       7.787   5.190  13.931  0.00  0.00    +0.000 OA
ENDBRANCH   7  14
ENDBRANCH   2  10
ENDBRANCH   1   5
BRANCH   1  15
ATOM     15  C   UNL     1       1.828   6.302  20.422  0.00  0.00    +0.000 A 
ATOM     16  N   UNL     1       2.404   7.070  19.521  0.00  0.00    +0.000 NA
ATOM     17  N   UNL     1       1.926   8.342  19.734  0.00  0.00    +0.000 NA
ATOM     18  C   UNL     1       1.089   8.271  20.749  0.00  0.00    +0.000 A 
ATOM     19  O   UNL     1       0.966   6.992  21.238  0.00  0.00    +0.000 OA
BRANCH  18  20
ATOM     20  C   UNL     1       0.324   9.333  21.391  0.00  0.00    +0.000 A 
ATOM     21  C   UNL     1       0.042  10.500  20.666  0.00  0.00    +0.000 A 
ATOM     22  C   UNL     1      -0.641  11.564  21.257  0.00  0.00    +0.000 A 
ATOM     23  C   UNL     1      -1.076  11.479  22.578  0.00  0.00    +0.000 A 
ATOM     24  C   UNL     1      -0.812  10.323  23.311  0.00  0.00    +0.000 A 
ATOM     25  C   UNL     1      -0.118   9.255  22.721  0.00  0.00    +0.000 A 
BRANCH  23  26
ATOM     26  O   UNL     1      -1.688  12.604  23.055  0.00  0.00    +0.000 OA
ATOM     27  C   UNL     1      -2.772  13.102  22.281  0.00  0.00    +0.000 C 
ENDBRANCH  23  26
ENDBRANCH  18  20
ENDBRANCH   1  15
TORSDOF 6
ENDMDL
MODEL 7
REMARK VINA RESULT:      -7.2      3.484      4.432
REMARK  Name = 
REMARK  8 active torsions:
REMARK  status: ('A' for Active; 'I' for Inactive)
REMARK    1  A    between atoms: C_1  and  O_2
REMARK    2  A    between atoms: O_2  and  C_3
REMARK    3  A    between atoms: C_6  and  C_7
REMARK    4  A    between atoms: C_10  and  C_11
REMARK    5  A    between atoms: C_11  and  C_12
REMARK    6  A    between atoms: C_15  and  C_16
REMARK    7  A    between atoms: C_19  and  O_20
REMARK    8  A    between atoms: O_20  and  C_21
REMARK                            x       y       z     vdW  Elec       q    Type
REMARK                         _______ _______ _______ _____ _____    ______ ____
ROOT
ATOM      1  C   UNL     1       7.819   8.144  17.313  0.00  0.00    +0.000 C 
ENDROOT
BRANCH   1   5
ATOM      2  C   UNL     1       6.165   5.528  19.035  0.00  0.00    +0.000 A 
ATOM      3  N   UNL     1       7.373   5.340  19.535  0.00  0.00    +0.000 NA
ATOM      4  N   UNL     1       8.196   6.269  18.945  0.00  0.00    +0.000 NA
ATOM      5  C   UNL     1       7.443   6.962  18.118  0.00  0.00    +0.000 A 
ATOM      6  O   UNL     1       6.133   6.551  18.121  0.00  0.00    +0.000 OA
BRANCH   2  10
ATOM      7  C   UNL     1       2.486   3.550  19.958  0.00  0.00    +0.000 A 
ATOM      8  C   UNL     1       2.574   4.940  19.972  0.00  0.00    +0.000 A 
ATOM      9  C   UNL     1       3.778   5.574  19.658  0.00  0.00    +0.000 A 
ATOM     10  C   UNL     1       4.924   4.827  19.339  0.00  0.00    +0.000 A 
ATOM     11  C   UNL     1       4.829   3.432  19.339  0.00  0.00    +0.000 A 
ATOM     12  C   UNL     1       3.619   2.797  19.650  0.00  0.00    +0.000 A 
BRANCH   7  14
ATOM     13  C   UNL     1       1.167   2.541  21.639  0.00  0.00    +0.000 C 
ATOM     14  O   UNL     1       1.267   3.038  20.310  0.00  0.00    +0.000 OA
ENDBRANCH   7  14
ENDBRANCH   2  10
ENDBRANCH   1   5
BRANCH   1  15
ATOM     15  C   UNL     1       8.452   9.228  18.095  0.00  0.00    +0.000 A 
ATOM     16  N   UNL     1       8.838   9.209  19.353  0.00  0.00    +0.000 NA
ATOM     17  N   UNL     1       9.453  10.417  19.587  0.00  0.00    +0.000 NA
ATOM     18  C   UNL     1       9.404  11.096  18.458  0.00  0.00    +0.000 A 
ATOM     19  O   UNL     1       8.784  10.395  17.452  0.00  0.00    +0.000 OA
BRANCH  18  20
ATOM     20  C   UNL     1       9.892  12.438  18.167  0.00  0.00    +0.000 A 
ATOM     21  C   UNL     1       9.295  13.533  18.809  0.00  0.00    +0.000 A 
ATOM     22  C   UNL     1       9.694  14.839  18.521  0.00  0.00    +0.000 A 
ATOM     23  C   UNL     1      10.713  15.081  17.601  0.00  0.00    +0.000 A 
ATOM     24  C   UNL     1      11.325  14.004  16.960  0.00  0.00    +0.000 A 
ATOM     25  C   UNL     1      10.918  12.690  17.243  0.00  0.00    +0.000 A 
BRANCH  23  26
ATOM     26  O   UNL     1      10.978  16.401  17.371  0.00  0.00    +0.000 OA
ATOM     27  C   UNL     1       9.920  17.309  17.650  0.00  0.00    +0.000 C 
ENDBRANCH  23  26
ENDBRANCH  18  20
ENDBRANCH   1  15
TORSDOF 6
ENDMDL
MODEL 8
REMARK VINA RESULT:      -7.2      5.012      7.001
REMARK  Name = 
REMARK  8 active torsions:
REMARK  status: ('A' for Active; 'I' for Inactive)
REMARK    1  A    between atoms: C_1  and  O_2
REMARK    2  A    between atoms: O_2  and  C_3
REMARK    3  A    between atoms: C_6  and  C_7
REMARK    4  A    between atoms: C_10  and  C_11
REMARK    5  A    between atoms: C_11  and  C_12
REMARK    6  A    between atoms: C_15  and  C_16
REMARK    7  A    between atoms: C_19  and  O_20
REMARK    8  A    between atoms: O_20  and  C_21
REMARK                            x       y       z     vdW  Elec       q    Type
REMARK                         _______ _______ _______ _____ _____    ______ ____
ROOT
ATOM      1  C   UNL     1       1.392   8.477  21.243  0.00  0.00    +0.000 C 
ENDROOT
BRANCH   1   5
ATOM      2  C   UNL     1      -0.630  10.459  19.115  0.00  0.00    +0.000 A 
ATOM      3  N   UNL     1       0.537  10.999  18.814  0.00  0.00    +0.000 NA
ATOM      4  N   UNL     1       1.479  10.367  19.587  0.00  0.00    +0.000 NA
ATOM      5  C   UNL     1       0.832   9.484  20.317  0.00  0.00    +0.000 A 
ATOM      6  O   UNL     1      -0.518   9.480  20.070  0.00  0.00    +0.000 OA
BRANCH   2  10
ATOM      7  C   UNL     1      -4.520  11.363  17.580  0.00  0.00    +0.000 A 
ATOM      8  C   UNL     1      -4.010  12.044  18.682  0.00  0.00    +0.000 A 
ATOM      9  C   UNL     1      -2.734  11.748  19.167  0.00  0.00    +0.000 A 
ATOM     10  C   UNL     1      -1.948  10.750  18.567  0.00  0.00    +0.000 A 
ATOM     11  C   UNL     1      -2.473  10.063  17.467  0.00  0.00    +0.000 A 
ATOM     12  C   UNL     1      -3.752  10.365  16.978  0.00  0.00    +0.000 A 
BRANCH   7  14
ATOM     13  C   UNL     1      -6.739  11.793  18.265  0.00  0.00    +0.000 C 
ATOM     14  O   UNL     1      -5.788  11.715  17.210  0.00  0.00    +0.000 OA
ENDBRANCH   7  14
ENDBRANCH   2  10
ENDBRANCH   1   5
BRANCH   1  15
ATOM     15  C   UNL     1       1.810   7.221  20.584  0.00  0.00    +0.000 A 
ATOM     16  N   UNL     1       1.362   6.001  20.794  0.00  0.00    +0.000 NA
ATOM     17  N   UNL     1       1.991   5.195  19.873  0.00  0.00    +0.000 NA
ATOM     18  C   UNL     1       2.782   5.973  19.161  0.00  0.00    +0.000 A 
ATOM     19  O   UNL     1       2.713   7.288  19.552  0.00  0.00    +0.000 OA
BRANCH  18  20
ATOM     20  C   UNL     1       3.683   5.621  18.071  0.00  0.00    +0.000 A 
ATOM     21  C   UNL     1       4.005   4.272  17.864  0.00  0.00    +0.000 A 
ATOM     22  C   UNL     1       4.905   3.894  16.866  0.00  0.00    +0.000 A 
ATOM     23  C   UNL     1       5.487   4.852  16.038  0.00  0.00    +0.000 A 
ATOM     24  C   UNL     1       5.171   6.198  16.223  0.00  0.00    +0.000 A 
ATOM     25  C   UNL     1       4.272   6.580  17.232  0.00  0.00    +0.000 A 
BRANCH  23  26
ATOM     26  O   UNL     1       6.386   4.361  15.134  0.00  0.00    +0.000 OA
ATOM     27  C   UNL     1       5.888   4.119  13.825  0.00  0.00    +0.000 C 
ENDBRANCH  23  26
ENDBRANCH  18  20
ENDBRANCH   1  15
TORSDOF 6
ENDMDL
MODEL 9
REMARK VINA RESULT:      -7.2      4.784      6.052
REMARK  Name = 
REMARK  8 active torsions:
REMARK  status: ('A' for Active; 'I' for Inactive)
REMARK    1  A    between atoms: C_1  and  O_2
REMARK    2  A    between atoms: O_2  and  C_3
REMARK    3  A    between atoms: C_6  and  C_7
REMARK    4  A    between atoms: C_10  and  C_11
REMARK    5  A    between atoms: C_11  and  C_12
REMARK    6  A    between atoms: C_15  and  C_16
REMARK    7  A    between atoms: C_19  and  O_20
REMARK    8  A    between atoms: O_20  and  C_21
REMARK                            x       y       z     vdW  Elec       q    Type
REMARK                         _______ _______ _______ _____ _____    ______ ____
ROOT
ATOM      1  C   UNL     1       1.923   4.929  20.764  0.00  0.00    +0.000 C 
ENDROOT
BRANCH   1   5
ATOM      2  C   UNL     1       0.989   8.345  20.799  0.00  0.00    +0.000 A 
ATOM      3  N   UNL     1       1.797   8.388  19.756  0.00  0.00    +0.000 NA
ATOM      4  N   UNL     1       2.305   7.122  19.594  0.00  0.00    +0.000 NA
ATOM      5  C   UNL     1       1.781   6.385  20.550  0.00  0.00    +0.000 A 
ATOM      6  O   UNL     1       0.927   7.094  21.358  0.00  0.00    +0.000 OA
BRANCH   2  10
ATOM      7  C   UNL     1      -1.367  11.521  22.433  0.00  0.00    +0.000 A 
ATOM      8  C   UNL     1      -0.951  11.550  21.105  0.00  0.00    +0.000 A 
ATOM      9  C   UNL     1      -0.191  10.502  20.580  0.00  0.00    +0.000 A 
ATOM     10  C   UNL     1       0.181   9.409  21.381  0.00  0.00    +0.000 A 
ATOM     11  C   UNL     1      -0.232   9.394  22.717  0.00  0.00    +0.000 A 
ATOM     12  C   UNL     1      -0.999  10.444  23.241  0.00  0.00    +0.000 A 
BRANCH   7  14
ATOM     13  C   UNL     1      -3.274  12.331  23.568  0.00  0.00    +0.000 C 
ATOM     14  O   UNL     1      -2.080  12.612  22.847  0.00  0.00    +0.000 OA
ENDBRANCH   7  14
ENDBRANCH   2  10
ENDBRANCH   1   5
BRANCH   1  15
ATOM     15  C   UNL     1       2.720   4.244  19.725  0.00  0.00    +0.000 A 
ATOM     16  N   UNL     1       2.637   2.992  19.325  0.00  0.00    +0.000 NA
ATOM     17  N   UNL     1       3.516   2.862  18.276  0.00  0.00    +0.000 NA
ATOM     18  C   UNL     1       4.080   4.040  18.100  0.00  0.00    +0.000 A 
ATOM     19  O   UNL     1       3.612   4.981  18.986  0.00  0.00    +0.000 OA
BRANCH  18  20
ATOM     20  C   UNL     1       5.095   4.443  17.135  0.00  0.00    +0.000 A 
ATOM     21  C   UNL     1       5.110   3.836  15.871  0.00  0.00    +0.000 A 
ATOM     22  C   UNL     1       6.095   4.151  14.935  0.00  0.00    +0.000 A 
ATOM     23  C   UNL     1       7.077   5.095  15.232  0.00  0.00    +0.000 A 
ATOM     24  C   UNL     1       7.073   5.716  16.481  0.00  0.00    +0.000 A 
ATOM     25  C   UNL     1       6.086   5.393  17.426  0.00  0.00    +0.000 A 
BRANCH  23  26
ATOM     26  O   UNL     1       8.012   5.280  14.253  0.00  0.00    +0.000 OA
ATOM     27  C   UNL     1       7.562   5.099  12.916  0.00  0.00    +0.000 C 
ENDBRANCH  23  26
ENDBRANCH  18  20
ENDBRANCH   1  15
TORSDOF 6
ENDMDL
