MODEL 1
REMARK VINA RESULT:      -9.2      0.000      0.000
REMARK  Name = 
REMARK  8 active torsions:
REMARK  status: ('A' for Active; 'I' for Inactive)
REMARK    1  A    between atoms: C_1  and  C_2
REMARK    2  A    between atoms: C_5  and  C_6
REMARK    3  A    between atoms: C_6  and  C_7
REMARK    4  A    between atoms: N_9  and  C_10
REMARK    5  A    between atoms: C_14  and  C_15
REMARK    6  A    between atoms: C_15  and  C_17
REMARK    7  A    between atoms: C_21  and  C_22
REMARK    8  A    between atoms: C_23  and  C_24
REMARK                            x       y       z     vdW  Elec       q    Type
REMARK                         _______ _______ _______ _____ _____    ______ ____
ROOT
ATOM      1  C   UNL     1      -3.067  13.115  21.274  0.00  0.00    +0.000 A 
ATOM      2  C   UNL     1      -2.858  14.283  22.008  0.00  0.00    +0.000 A 
ATOM      3  C   UNL     1      -1.815  14.365  22.927  0.00  0.00    +0.000 A 
ATOM      4  C   UNL     1      -0.979  13.268  23.132  0.00  0.00    +0.000 A 
ATOM      5  C   UNL     1      -1.236  12.059  22.482  0.00  0.00    +0.000 A 
ATOM      6  C   UNL     1      -2.289  11.986  21.552  0.00  0.00    +0.000 A 
ENDROOT
BRANCH   1   9
ATOM      7  C   UNL     1      -5.280  12.471  20.355  0.00  0.00    +0.000 C 
ATOM      8  O   UNL     1      -5.785  11.986  21.359  0.00  0.00    +0.000 OA
ATOM      9  N   UNL     1      -4.020  13.038  20.240  0.00  0.00    +0.000 N 
ATOM     10  H   UNL     1      -3.836  13.559  19.392  0.00  0.00    +0.000 HD
BRANCH   7  11
ATOM     11  C   UNL     1      -6.070  12.490  19.069  0.00  0.00    +0.000 C 
ATOM     12  C   UNL     1      -6.995  13.676  18.818  0.00  0.00    +0.000 C 
ATOM     13  C   UNL     1      -7.594  12.353  19.168  0.00  0.00    +0.000 C 
BRANCH  11  18
ATOM     14  C   UNL     1      -2.904   9.917  14.886  0.00  0.00    +0.000 C 
ATOM     15  C   UNL     1      -3.809  10.509  15.925  0.00  0.00    +0.000 A 
ATOM     16  C   UNL     1      -3.917   9.931  17.191  0.00  0.00    +0.000 A 
ATOM     17  C   UNL     1      -4.699  10.542  18.175  0.00  0.00    +0.000 A 
ATOM     18  C   UNL     1      -5.397  11.740  17.928  0.00  0.00    +0.000 A 
ATOM     19  C   UNL     1      -5.324  12.272  16.633  0.00  0.00    +0.000 A 
ATOM     20  C   UNL     1      -4.543  11.665  15.644  0.00  0.00    +0.000 A 
ENDBRANCH  11  18
ENDBRANCH   7  11
ENDBRANCH   1   9
BRANCH   5  21
ATOM     21  C   UNL     1      -0.364  10.860  22.660  0.00  0.00    +0.000 C 
ATOM     22  O   UNL     1      -0.259  10.371  23.785  0.00  0.00    +0.000 OA
BRANCH  21  23
ATOM     23  C   UNL     1       0.347  10.198  21.534  0.00  0.00    +0.000 A 
ATOM     24  C   UNL     1       0.801   8.888  21.743  0.00  0.00    +0.000 A 
ATOM     25  C   UNL     1       1.459   8.177  20.730  0.00  0.00    +0.000 A 
ATOM     26  C   UNL     1       1.668   8.797  19.481  0.00  0.00    +0.000 A 
ATOM     27  C   UNL     1       2.220   8.418  18.217  0.00  0.00    +0.000 A 
ATOM     28  N   UNL     1       2.194   9.442  17.348  0.00  0.00    +0.000 NA
ATOM     29  N   UNL     1       1.606  10.434  18.030  0.00  0.00    +0.000 N 
ATOM     30  C   UNL     1       1.249  10.113  19.312  0.00  0.00    +0.000 A 
ATOM     31  C   UNL     1       0.599  10.851  20.315  0.00  0.00    +0.000 A 
ATOM     32  H   UNL     1       1.454  11.314  17.550  0.00  0.00    +0.000 HD
BRANCH  27  33
ATOM     33  C   UNL     1       2.686   7.104  17.883  0.00  0.00    +0.000 C 
ATOM     34  C   UNL     1       2.174   5.985  18.423  0.00  0.00    +0.000 C 
BRANCH  34  35
ATOM     35  C   UNL     1       2.653   4.609  18.251  0.00  0.00    +0.000 A 
ATOM     36  C   UNL     1       1.674   3.604  18.219  0.00  0.00    +0.000 A 
ATOM     37  C   UNL     1       2.024   2.268  18.027  0.00  0.00    +0.000 A 
ATOM     38  C   UNL     1       3.360   1.923  17.858  0.00  0.00    +0.000 A 
ATOM     39  C   UNL     1       4.342   2.912  17.884  0.00  0.00    +0.000 A 
ATOM     40  C   UNL     1       3.993   4.253  18.077  0.00  0.00    +0.000 A 
ENDBRANCH  34  35
ENDBRANCH  27  33
ENDBRANCH  21  23
ENDBRANCH   5  21
TORSDOF 7
ENDMDL
MODEL 2
REMARK VINA RESULT:      -9.0      3.051      4.584
REMARK  Name = 
REMARK  8 active torsions:
REMARK  status: ('A' for Active; 'I' for Inactive)
REMARK    1  A    between atoms: C_1  and  C_2
REMARK    2  A    between atoms: C_5  and  C_6
REMARK    3  A    between atoms: C_6  and  C_7
REMARK    4  A    between atoms: N_9  and  C_10
REMARK    5  A    between atoms: C_14  and  C_15
REMARK    6  A    between atoms: C_15  and  C_17
REMARK    7  A    between atoms: C_21  and  C_22
REMARK    8  A    between atoms: C_23  and  C_24
REMARK                            x       y       z     vdW  Elec       q    Type
REMARK                         _______ _______ _______ _____ _____    ______ ____
ROOT
ATOM      1  C   UNL     1      -1.145  11.336  19.521  0.00  0.00    +0.000 A 
ATOM      2  C   UNL     1      -0.509  12.540  19.824  0.00  0.00    +0.000 A 
ATOM      3  C   UNL     1       0.702  12.549  20.510  0.00  0.00    +0.000 A 
ATOM      4  C   UNL     1       1.283  11.348  20.916  0.00  0.00    +0.000 A 
ATOM      5  C   UNL     1       0.611  10.141  20.712  0.00  0.00    +0.000 A 
ATOM      6  C   UNL     1      -0.611  10.140  20.014  0.00  0.00    +0.000 A 
ENDROOT
BRANCH   1   9
ATOM      7  C   UNL     1      -2.405  10.563  17.529  0.00  0.00    +0.000 C 
ATOM      8  O   UNL     1      -1.556   9.848  17.014  0.00  0.00    +0.000 OA
ATOM      9  N   UNL     1      -2.296  11.276  18.712  0.00  0.00    +0.000 N 
ATOM     10  H   UNL     1      -3.154  11.660  19.088  0.00  0.00    +0.000 HD
BRANCH   7  11
ATOM     11  C   UNL     1      -3.744  10.719  16.851  0.00  0.00    +0.000 C 
ATOM     12  C   UNL     1      -4.004   9.906  15.588  0.00  0.00    +0.000 C 
ATOM     13  C   UNL     1      -3.769  11.376  15.466  0.00  0.00    +0.000 C 
BRANCH  11  18
ATOM     14  C   UNL     1      -7.628  12.043  21.013  0.00  0.00    +0.000 C 
ATOM     15  C   UNL     1      -6.709  11.746  19.865  0.00  0.00    +0.000 A 
ATOM     16  C   UNL     1      -5.796  12.701  19.415  0.00  0.00    +0.000 A 
ATOM     17  C   UNL     1      -4.889  12.381  18.401  0.00  0.00    +0.000 A 
ATOM     18  C   UNL     1      -4.868  11.106  17.803  0.00  0.00    +0.000 A 
ATOM     19  C   UNL     1      -5.833  10.181  18.226  0.00  0.00    +0.000 A 
ATOM     20  C   UNL     1      -6.742  10.495  19.241  0.00  0.00    +0.000 A 
ENDBRANCH  11  18
ENDBRANCH   7  11
ENDBRANCH   1   9
BRANCH   5  21
ATOM     21  C   UNL     1       1.195   8.828  21.118  0.00  0.00    +0.000 C 
ATOM     22  O   UNL     1       1.065   8.463  22.286  0.00  0.00    +0.000 OA
BRANCH  21  23
ATOM     23  C   UNL     1       1.887   7.917  20.167  0.00  0.00    +0.000 A 
ATOM     24  C   UNL     1       2.172   8.419  18.890  0.00  0.00    +0.000 A 
ATOM     25  C   UNL     1       2.844   7.641  17.938  0.00  0.00    +0.000 A 
ATOM     26  C   UNL     1       3.236   6.330  18.275  0.00  0.00    +0.000 A 
ATOM     27  C   UNL     1       3.961   5.271  17.643  0.00  0.00    +0.000 A 
ATOM     28  N   UNL     1       4.024   4.185  18.432  0.00  0.00    +0.000 NA
ATOM     29  N   UNL     1       3.388   4.558  19.551  0.00  0.00    +0.000 N 
ATOM     30  C   UNL     1       2.902   5.838  19.533  0.00  0.00    +0.000 A 
ATOM     31  C   UNL     1       2.218   6.592  20.501  0.00  0.00    +0.000 A 
ATOM     32  H   UNL     1       3.336   3.889  20.312  0.00  0.00    +0.000 HD
BRANCH  27  33
ATOM     33  C   UNL     1       4.601   5.362  16.363  0.00  0.00    +0.000 C 
ATOM     34  C   UNL     1       5.198   4.317  15.766  0.00  0.00    +0.000 C 
BRANCH  34  35
ATOM     35  C   UNL     1       5.984   4.325  14.527  0.00  0.00    +0.000 A 
ATOM     36  C   UNL     1       5.489   3.554  13.465  0.00  0.00    +0.000 A 
ATOM     37  C   UNL     1       6.144   3.521  12.235  0.00  0.00    +0.000 A 
ATOM     38  C   UNL     1       7.304   4.266  12.052  0.00  0.00    +0.000 A 
ATOM     39  C   UNL     1       7.805   5.039  13.098  0.00  0.00    +0.000 A 
ATOM     40  C   UNL     1       7.148   5.073  14.333  0.00  0.00    +0.000 A 
ENDBRANCH  34  35
ENDBRANCH  27  33
ENDBRANCH  21  23
ENDBRANCH   5  21
TORSDOF 7
ENDMDL
MODEL 3
REMARK VINA RESULT:      -8.9      4.179      6.232
REMARK  Name = 
REMARK  8 active torsions:
REMARK  status: ('A' for Active; 'I' for Inactive)
REMARK    1  A    between atoms: C_1  and  C_2
REMARK    2  A    between atoms: C_5  and  C_6
REMARK    3  A    between atoms: C_6  and  C_7
REMARK    4  A    between atoms: N_9  and  C_10
REMARK    5  A    between atoms: C_14  and  C_15
REMARK    6  A    between atoms: C_15  and  C_17
REMARK    7  A    between atoms: C_21  and  C_22
REMARK    8  A    between atoms: C_23  and  C_24
REMARK                            x       y       z     vdW  Elec       q    Type
REMARK                         _______ _______ _______ _____ _____    ______ ____
ROOT
ATOM      1  C   UNL     1       0.103  12.755  19.320  0.00  0.00    +0.000 A 
ATOM      2  C   UNL     1      -0.967  12.600  18.437  0.00  0.00    +0.000 A 
ATOM      3  C   UNL     1      -1.483  11.336  18.163  0.00  0.00    +0.000 A 
ATOM      4  C   UNL     1      -0.919  10.209  18.760  0.00  0.00    +0.000 A 
ATOM      5  C   UNL     1       0.214  10.335  19.566  0.00  0.00    +0.000 A 
ATOM      6  C   UNL     1       0.727  11.617  19.841  0.00  0.00    +0.000 A 
ENDROOT
BRANCH   1   9
ATOM      7  C   UNL     1       0.438  14.543  21.006  0.00  0.00    +0.000 C 
ATOM      8  O   UNL     1      -0.045  13.993  21.987  0.00  0.00    +0.000 OA
ATOM      9  N   UNL     1       0.563  14.022  19.728  0.00  0.00    +0.000 N 
ATOM     10  H   UNL     1       1.155  14.534  19.087  0.00  0.00    +0.000 HD
BRANCH   7  11
ATOM     11  C   UNL     1       0.984  15.944  21.142  0.00  0.00    +0.000 C 
ATOM     12  C   UNL     1       2.100  16.179  22.154  0.00  0.00    +0.000 C 
ATOM     13  C   UNL     1       0.727  16.683  22.460  0.00  0.00    +0.000 C 
BRANCH  11  18
ATOM     14  C   UNL     1       0.411  18.527  15.932  0.00  0.00    +0.000 C 
ATOM     15  C   UNL     1       0.565  17.973  17.317  0.00  0.00    +0.000 A 
ATOM     16  C   UNL     1      -0.552  17.741  18.122  0.00  0.00    +0.000 A 
ATOM     17  C   UNL     1      -0.399  17.147  19.377  0.00  0.00    +0.000 A 
ATOM     18  C   UNL     1       0.866  16.771  19.869  0.00  0.00    +0.000 A 
ATOM     19  C   UNL     1       1.981  17.067  19.072  0.00  0.00    +0.000 A 
ATOM     20  C   UNL     1       1.834  17.662  17.814  0.00  0.00    +0.000 A 
ENDBRANCH  11  18
ENDBRANCH   7  11
ENDBRANCH   1   9
BRANCH   5  21
ATOM     21  C   UNL     1       0.848   9.161  20.236  0.00  0.00    +0.000 C 
ATOM     22  O   UNL     1       0.582   8.944  21.418  0.00  0.00    +0.000 OA
BRANCH  21  23
ATOM     23  C   UNL     1       1.751   8.212  19.531  0.00  0.00    +0.000 A 
ATOM     24  C   UNL     1       2.106   8.524  18.212  0.00  0.00    +0.000 A 
ATOM     25  C   UNL     1       2.972   7.702  17.479  0.00  0.00    +0.000 A 
ATOM     26  C   UNL     1       3.491   6.540  18.084  0.00  0.00    +0.000 A 
ATOM     27  C   UNL     1       4.411   5.506  17.721  0.00  0.00    +0.000 A 
ATOM     28  N   UNL     1       4.529   4.593  18.699  0.00  0.00    +0.000 NA
ATOM     29  N   UNL     1       3.732   5.054  19.673  0.00  0.00    +0.000 N 
ATOM     30  C   UNL     1       3.090   6.227  19.378  0.00  0.00    +0.000 A 
ATOM     31  C   UNL     1       2.213   7.027  20.130  0.00  0.00    +0.000 A 
ATOM     32  H   UNL     1       3.685   4.525  20.537  0.00  0.00    +0.000 HD
BRANCH  27  33
ATOM     33  C   UNL     1       5.169   5.469  16.504  0.00  0.00    +0.000 C 
ATOM     34  C   UNL     1       4.911   4.608  15.506  0.00  0.00    +0.000 C 
BRANCH  34  35
ATOM     35  C   UNL     1       5.692   4.398  14.281  0.00  0.00    +0.000 A 
ATOM     36  C   UNL     1       6.913   5.082  14.192  0.00  0.00    +0.000 A 
ATOM     37  C   UNL     1       7.744   4.925  13.084  0.00  0.00    +0.000 A 
ATOM     38  C   UNL     1       7.364   4.073  12.052  0.00  0.00    +0.000 A 
ATOM     39  C   UNL     1       6.154   3.385  12.130  0.00  0.00    +0.000 A 
ATOM     40  C   UNL     1       5.320   3.542  13.242  0.00  0.00    +0.000 A 
ENDBRANCH  34  35
ENDBRANCH  27  33
ENDBRANCH  21  23
ENDBRANCH   5  21
TORSDOF 7
ENDMDL
MODEL 4
REMARK VINA RESULT:      -8.7      2.710      5.355
REMARK  Name = 
REMARK  8 active torsions:
REMARK  status: ('A' for Active; 'I' for Inactive)
REMARK    1  A    between atoms: C_1  and  C_2
REMARK    2  A    between atoms: C_5  and  C_6
REMARK    3  A    between atoms: C_6  and  C_7
REMARK    4  A    between atoms: N_9  and  C_10
REMARK    5  A    between atoms: C_14  and  C_15
REMARK    6  A    between atoms: C_15  and  C_17
REMARK    7  A    between atoms: C_21  and  C_22
REMARK    8  A    between atoms: C_23  and  C_24
REMARK                            x       y       z     vdW  Elec       q    Type
REMARK                         _______ _______ _______ _____ _____    ______ ____
ROOT
ATOM      1  C   UNL     1      -3.346  12.413  19.379  0.00  0.00    +0.000 A 
ATOM      2  C   UNL     1      -3.957  11.604  18.421  0.00  0.00    +0.000 A 
ATOM      3  C   UNL     1      -3.259  10.553  17.831  0.00  0.00    +0.000 A 
ATOM      4  C   UNL     1      -1.932  10.312  18.185  0.00  0.00    +0.000 A 
ATOM      5  C   UNL     1      -1.274  11.174  19.066  0.00  0.00    +0.000 A 
ATOM      6  C   UNL     1      -1.989  12.231  19.660  0.00  0.00    +0.000 A 
ENDROOT
BRANCH   1   9
ATOM      7  C   UNL     1      -4.493  13.268  21.406  0.00  0.00    +0.000 C 
ATOM      8  O   UNL     1      -4.309  12.322  22.160  0.00  0.00    +0.000 OA
ATOM      9  N   UNL     1      -4.057  13.395  20.096  0.00  0.00    +0.000 N 
ATOM     10  H   UNL     1      -4.132  14.315  19.683  0.00  0.00    +0.000 HD
BRANCH   7  11
ATOM     11  C   UNL     1      -5.269  14.464  21.901  0.00  0.00    +0.000 C 
ATOM     12  C   UNL     1      -6.782  14.329  22.031  0.00  0.00    +0.000 C 
ATOM     13  C   UNL     1      -6.222  15.152  20.917  0.00  0.00    +0.000 C 
BRANCH  11  18
ATOM     14  C   UNL     1      -1.921  17.407  25.680  0.00  0.00    +0.000 C 
ATOM     15  C   UNL     1      -2.808  16.757  24.660  0.00  0.00    +0.000 A 
ATOM     16  C   UNL     1      -2.300  16.355  23.424  0.00  0.00    +0.000 A 
ATOM     17  C   UNL     1      -3.117  15.675  22.518  0.00  0.00    +0.000 A 
ATOM     18  C   UNL     1      -4.463  15.380  22.813  0.00  0.00    +0.000 A 
ATOM     19  C   UNL     1      -4.971  15.845  24.033  0.00  0.00    +0.000 A 
ATOM     20  C   UNL     1      -4.157  16.526  24.944  0.00  0.00    +0.000 A 
ENDBRANCH  11  18
ENDBRANCH   7  11
ENDBRANCH   1   9
BRANCH   5  21
ATOM     21  C   UNL     1       0.142  10.953  19.485  0.00  0.00    +0.000 C 
ATOM     22  O   UNL     1       0.746  11.878  20.028  0.00  0.00    +0.000 OA
BRANCH  21  23
ATOM     23  C   UNL     1       0.846   9.653  19.318  0.00  0.00    +0.000 A 
ATOM     24  C   UNL     1       1.309   9.334  18.034  0.00  0.00    +0.000 A 
ATOM     25  C   UNL     1       2.005   8.142  17.788  0.00  0.00    +0.000 A 
ATOM     26  C   UNL     1       2.238   7.251  18.855  0.00  0.00    +0.000 A 
ATOM     27  C   UNL     1       2.927   6.011  19.036  0.00  0.00    +0.000 A 
ATOM     28  N   UNL     1       2.807   5.566  20.298  0.00  0.00    +0.000 NA
ATOM     29  N   UNL     1       2.092   6.519  20.913  0.00  0.00    +0.000 N 
ATOM     30  C   UNL     1       1.729   7.568  20.111  0.00  0.00    +0.000 A 
ATOM     31  C   UNL     1       1.018   8.749  20.381  0.00  0.00    +0.000 A 
ATOM     32  H   UNL     1       1.899   6.403  21.901  0.00  0.00    +0.000 HD
BRANCH  27  33
ATOM     33  C   UNL     1       3.704   5.347  18.030  0.00  0.00    +0.000 C 
ATOM     34  C   UNL     1       4.653   5.966  17.310  0.00  0.00    +0.000 C 
BRANCH  34  35
ATOM     35  C   UNL     1       5.415   5.423  16.179  0.00  0.00    +0.000 A 
ATOM     36  C   UNL     1       6.796   5.669  16.177  0.00  0.00    +0.000 A 
ATOM     37  C   UNL     1       7.613   5.168  15.165  0.00  0.00    +0.000 A 
ATOM     38  C   UNL     1       7.056   4.406  14.144  0.00  0.00    +0.000 A 
ATOM     39  C   UNL     1       5.686   4.150  14.136  0.00  0.00    +0.000 A 
ATOM     40  C   UNL     1       4.865   4.653  15.151  0.00  0.00    +0.000 A 
ENDBRANCH  34  35
ENDBRANCH  27  33
ENDBRANCH  21  23
ENDBRANCH   5  21
TORSDOF 7
ENDMDL
MODEL 5
REMARK VINA RESULT:      -8.7      3.184      5.943
REMARK  Name = 
REMARK  8 active torsions:
REMARK  status: ('A' for Active; 'I' for Inactive)
REMARK    1  A    between atoms: C_1  and  C_2
REMARK    2  A    between atoms: C_5  and  C_6
REMARK    3  A    between atoms: C_6  and  C_7
REMARK    4  A    between atoms: N_9  and  C_10
REMARK    5  A    between atoms: C_14  and  C_15
REMARK    6  A    between atoms: C_15  and  C_17
REMARK    7  A    between atoms: C_21  and  C_22
REMARK    8  A    between atoms: C_23  and  C_24
REMARK                            x       y       z     vdW  Elec       q    Type
REMARK                         _______ _______ _______ _____ _____    ______ ____
ROOT
ATOM      1  C   UNL     1       0.268  11.651  20.205  0.00  0.00    +0.000 A 
ATOM      2  C   UNL     1       0.734  11.977  18.931  0.00  0.00    +0.000 A 
ATOM      3  C   UNL     1       1.382  11.024  18.149  0.00  0.00    +0.000 A 
ATOM      4  C   UNL     1       1.585   9.737  18.643  0.00  0.00    +0.000 A 
ATOM      5  C   UNL     1       1.216   9.423  19.953  0.00  0.00    +0.000 A 
ATOM      6  C   UNL     1       0.558  10.390  20.736  0.00  0.00    +0.000 A 
ENDROOT
BRANCH   1   9
ATOM      7  C   UNL     1      -0.890  12.340  22.288  0.00  0.00    +0.000 C 
ATOM      8  O   UNL     1      -0.591  11.398  23.010  0.00  0.00    +0.000 OA
ATOM      9  N   UNL     1      -0.510  12.541  20.970  0.00  0.00    +0.000 N 
ATOM     10  H   UNL     1      -0.687  13.460  20.585  0.00  0.00    +0.000 HD
BRANCH   7  11
ATOM     11  C   UNL     1      -1.761  13.442  22.840  0.00  0.00    +0.000 C 
ATOM     12  C   UNL     1      -1.377  14.882  22.520  0.00  0.00    +0.000 C 
ATOM     13  C   UNL     1      -1.154  14.365  23.903  0.00  0.00    +0.000 C 
BRANCH  11  18
ATOM     14  C   UNL     1      -7.452  12.503  23.777  0.00  0.00    +0.000 C 
ATOM     15  C   UNL     1      -5.982  12.629  23.506  0.00  0.00    +0.000 A 
ATOM     16  C   UNL     1      -5.516  12.950  22.231  0.00  0.00    +0.000 A 
ATOM     17  C   UNL     1      -4.149  13.147  22.013  0.00  0.00    +0.000 A 
ATOM     18  C   UNL     1      -3.209  13.025  23.055  0.00  0.00    +0.000 A 
ATOM     19  C   UNL     1      -3.691  12.642  24.315  0.00  0.00    +0.000 A 
ATOM     20  C   UNL     1      -5.058  12.444  24.538  0.00  0.00    +0.000 A 
ENDBRANCH  11  18
ENDBRANCH   7  11
ENDBRANCH   1   9
BRANCH   5  21
ATOM     21  C   UNL     1       1.402   8.056  20.526  0.00  0.00    +0.000 C 
ATOM     22  O   UNL     1       0.900   7.804  21.620  0.00  0.00    +0.000 OA
BRANCH  21  23
ATOM     23  C   UNL     1       2.128   6.969  19.815  0.00  0.00    +0.000 A 
ATOM     24  C   UNL     1       2.649   7.267  18.548  0.00  0.00    +0.000 A 
ATOM     25  C   UNL     1       3.369   6.313  17.817  0.00  0.00    +0.000 A 
ATOM     26  C   UNL     1       3.567   5.032  18.369  0.00  0.00    +0.000 A 
ATOM     27  C   UNL     1       4.263   3.839  17.994  0.00  0.00    +0.000 A 
ATOM     28  N   UNL     1       4.095   2.869  18.908  0.00  0.00    +0.000 NA
ATOM     29  N   UNL     1       3.344   3.443  19.858  0.00  0.00    +0.000 N 
ATOM     30  C   UNL     1       3.003   4.745  19.607  0.00  0.00    +0.000 A 
ATOM     31  C   UNL     1       2.266   5.679  20.355  0.00  0.00    +0.000 A 
ATOM     32  H   UNL     1       3.111   2.891  20.675  0.00  0.00    +0.000 HD
BRANCH  27  33
ATOM     33  C   UNL     1       5.090   3.701  16.830  0.00  0.00    +0.000 C 
ATOM     34  C   UNL     1       5.000   4.514  15.765  0.00  0.00    +0.000 C 
BRANCH  34  35
ATOM     35  C   UNL     1       5.701   4.388  14.482  0.00  0.00    +0.000 A 
ATOM     36  C   UNL     1       6.898   5.108  14.349  0.00  0.00    +0.000 A 
ATOM     37  C   UNL     1       7.656   5.029  13.182  0.00  0.00    +0.000 A 
ATOM     38  C   UNL     1       7.226   4.223  12.134  0.00  0.00    +0.000 A 
ATOM     39  C   UNL     1       6.041   3.500  12.254  0.00  0.00    +0.000 A 
ATOM     40  C   UNL     1       5.279   3.578  13.425  0.00  0.00    +0.000 A 
ENDBRANCH  34  35
ENDBRANCH  27  33
ENDBRANCH  21  23
ENDBRANCH   5  21
TORSDOF 7
ENDMDL
MODEL 6
REMARK VINA RESULT:      -8.7      4.512      6.750
REMARK  Name = 
REMARK  8 active torsions:
REMARK  status: ('A' for Active; 'I' for Inactive)
REMARK    1  A    between atoms: C_1  and  C_2
REMARK    2  A    between atoms: C_5  and  C_6
REMARK    3  A    between atoms: C_6  and  C_7
REMARK    4  A    between atoms: N_9  and  C_10
REMARK    5  A    between atoms: C_14  and  C_15
REMARK    6  A    between atoms: C_15  and  C_17
REMARK    7  A    between atoms: C_21  and  C_22
REMARK    8  A    between atoms: C_23  and  C_24
REMARK                            x       y       z     vdW  Elec       q    Type
REMARK                         _______ _______ _______ _____ _____    ______ ____
ROOT
ATOM      1  C   UNL     1       0.388  12.726  19.277  0.00  0.00    +0.000 A 
ATOM      2  C   UNL     1      -0.986  12.727  19.037  0.00  0.00    +0.000 A 
ATOM      3  C   UNL     1      -1.755  11.600  19.317  0.00  0.00    +0.000 A 
ATOM      4  C   UNL     1      -1.150  10.452  19.828  0.00  0.00    +0.000 A 
ATOM      5  C   UNL     1       0.237  10.400  19.980  0.00  0.00    +0.000 A 
ATOM      6  C   UNL     1       1.006  11.544  19.697  0.00  0.00    +0.000 A 
ENDROOT
BRANCH   1   9
ATOM      7  C   UNL     1       0.754  15.176  19.416  0.00  0.00    +0.000 C 
ATOM      8  O   UNL     1      -0.334  15.521  19.857  0.00  0.00    +0.000 OA
ATOM      9  N   UNL     1       1.175  13.885  19.137  0.00  0.00    +0.000 N 
ATOM     10  H   UNL     1       2.164  13.762  18.959  0.00  0.00    +0.000 HD
BRANCH   7  11
ATOM     11  C   UNL     1       1.799  16.227  19.129  0.00  0.00    +0.000 C 
ATOM     12  C   UNL     1       1.497  17.664  19.540  0.00  0.00    +0.000 C 
ATOM     13  C   UNL     1       1.461  17.303  18.091  0.00  0.00    +0.000 C 
BRANCH  11  18
ATOM     14  C   UNL     1       7.460  14.784  18.961  0.00  0.00    +0.000 C 
ATOM     15  C   UNL     1       5.983  15.039  19.026  0.00  0.00    +0.000 A 
ATOM     16  C   UNL     1       5.363  15.346  20.238  0.00  0.00    +0.000 A 
ATOM     17  C   UNL     1       4.003  15.663  20.270  0.00  0.00    +0.000 A 
ATOM     18  C   UNL     1       3.220  15.681  19.099  0.00  0.00    +0.000 A 
ATOM     19  C   UNL     1       3.846  15.312  17.900  0.00  0.00    +0.000 A 
ATOM     20  C   UNL     1       5.208  14.993  17.863  0.00  0.00    +0.000 A 
ENDBRANCH  11  18
ENDBRANCH   7  11
ENDBRANCH   1   9
BRANCH   5  21
ATOM     21  C   UNL     1       0.932   9.199  20.533  0.00  0.00    +0.000 C 
ATOM     22  O   UNL     1       0.803   8.944  21.730  0.00  0.00    +0.000 OA
BRANCH  21  23
ATOM     23  C   UNL     1       1.736   8.268  19.696  0.00  0.00    +0.000 A 
ATOM     24  C   UNL     1       1.951   8.630  18.359  0.00  0.00    +0.000 A 
ATOM     25  C   UNL     1       2.717   7.827  17.504  0.00  0.00    +0.000 A 
ATOM     26  C   UNL     1       3.278   6.634  18.002  0.00  0.00    +0.000 A 
ATOM     27  C   UNL     1       4.135   5.605  17.500  0.00  0.00    +0.000 A 
ATOM     28  N   UNL     1       4.341   4.649  18.422  0.00  0.00    +0.000 NA
ATOM     29  N   UNL     1       3.663   5.081  19.495  0.00  0.00    +0.000 N 
ATOM     30  C   UNL     1       3.014   6.273  19.319  0.00  0.00    +0.000 A 
ATOM     31  C   UNL     1       2.239   7.053  20.193  0.00  0.00    +0.000 A 
ATOM     32  H   UNL     1       3.700   4.517  20.337  0.00  0.00    +0.000 HD
BRANCH  27  33
ATOM     33  C   UNL     1       4.755   5.608  16.207  0.00  0.00    +0.000 C 
ATOM     34  C   UNL     1       5.336   4.523  15.669  0.00  0.00    +0.000 C 
BRANCH  34  35
ATOM     35  C   UNL     1       6.103   4.445  14.421  0.00  0.00    +0.000 A 
ATOM     36  C   UNL     1       5.625   3.557  13.446  0.00  0.00    +0.000 A 
ATOM     37  C   UNL     1       6.264   3.434  12.213  0.00  0.00    +0.000 A 
ATOM     38  C   UNL     1       7.388   4.205  11.938  0.00  0.00    +0.000 A 
ATOM     39  C   UNL     1       7.871   5.094  12.897  0.00  0.00    +0.000 A 
ATOM     40  C   UNL     1       7.231   5.219  14.135  0.00  0.00    +0.000 A 
ENDBRANCH  34  35
ENDBRANCH  27  33
ENDBRANCH  21  23
ENDBRANCH   5  21
TORSDOF 7
ENDMDL
MODEL 7
REMARK VINA RESULT:      -8.5      4.405      6.766
REMARK  Name = 
REMARK  8 active torsions:
REMARK  status: ('A' for Active; 'I' for Inactive)
REMARK    1  A    between atoms: C_1  and  C_2
REMARK    2  A    between atoms: C_5  and  C_6
REMARK    3  A    between atoms: C_6  and  C_7
REMARK    4  A    between atoms: N_9  and  C_10
REMARK    5  A    between atoms: C_14  and  C_15
REMARK    6  A    between atoms: C_15  and  C_17
REMARK    7  A    between atoms: C_21  and  C_22
REMARK    8  A    between atoms: C_23  and  C_24
REMARK                            x       y       z     vdW  Elec       q    Type
REMARK                         _______ _______ _______ _____ _____    ______ ____
ROOT
ATOM      1  C   UNL     1       0.249  12.500  18.670  0.00  0.00    +0.000 A 
ATOM      2  C   UNL     1      -1.012  12.206  18.150  0.00  0.00    +0.000 A 
ATOM      3  C   UNL     1      -1.614  10.976  18.405  0.00  0.00    +0.000 A 
ATOM      4  C   UNL     1      -0.950  10.020  19.172  0.00  0.00    +0.000 A 
ATOM      5  C   UNL     1       0.353  10.258  19.614  0.00  0.00    +0.000 A 
ATOM      6  C   UNL     1       0.953  11.505  19.355  0.00  0.00    +0.000 A 
ENDROOT
BRANCH   1   9
ATOM      7  C   UNL     1       1.334  14.527  19.603  0.00  0.00    +0.000 C 
ATOM      8  O   UNL     1       1.394  14.203  20.781  0.00  0.00    +0.000 OA
ATOM      9  N   UNL     1       0.831  13.777  18.551  0.00  0.00    +0.000 N 
ATOM     10  H   UNL     1       1.031  14.116  17.618  0.00  0.00    +0.000 HD
BRANCH   7  11
ATOM     11  C   UNL     1       1.857  15.879  19.183  0.00  0.00    +0.000 C 
ATOM     12  C   UNL     1       1.182  17.116  19.764  0.00  0.00    +0.000 C 
ATOM     13  C   UNL     1       0.939  16.765  18.333  0.00  0.00    +0.000 C 
BRANCH  11  18
ATOM     14  C   UNL     1       7.606  15.413  18.243  0.00  0.00    +0.000 C 
ATOM     15  C   UNL     1       6.124  15.598  18.384  0.00  0.00    +0.000 A 
ATOM     16  C   UNL     1       5.233  14.696  17.800  0.00  0.00    +0.000 A 
ATOM     17  C   UNL     1       3.859  14.833  18.010  0.00  0.00    +0.000 A 
ATOM     18  C   UNL     1       3.331  15.871  18.803  0.00  0.00    +0.000 A 
ATOM     19  C   UNL     1       4.238  16.802  19.331  0.00  0.00    +0.000 A 
ATOM     20  C   UNL     1       5.615  16.669  19.124  0.00  0.00    +0.000 A 
ENDBRANCH  11  18
ENDBRANCH   7  11
ENDBRANCH   1   9
BRANCH   5  21
ATOM     21  C   UNL     1       1.103   9.271  20.447  0.00  0.00    +0.000 C 
ATOM     22  O   UNL     1       1.185   9.467  21.659  0.00  0.00    +0.000 OA
BRANCH  21  23
ATOM     23  C   UNL     1       1.718   8.037  19.888  0.00  0.00    +0.000 A 
ATOM     24  C   UNL     1       2.285   8.125  18.609  0.00  0.00    +0.000 A 
ATOM     25  C   UNL     1       2.908   7.020  18.013  0.00  0.00    +0.000 A 
ATOM     26  C   UNL     1       2.962   5.801  18.718  0.00  0.00    +0.000 A 
ATOM     27  C   UNL     1       3.531   4.506  18.503  0.00  0.00    +0.000 A 
ATOM     28  N   UNL     1       3.249   3.675  19.521  0.00  0.00    +0.000 NA
ATOM     29  N   UNL     1       2.551   4.434  20.377  0.00  0.00    +0.000 N 
ATOM     30  C   UNL     1       2.354   5.725  19.966  0.00  0.00    +0.000 A 
ATOM     31  C   UNL     1       1.711   6.814  20.580  0.00  0.00    +0.000 A 
ATOM     32  H   UNL     1       2.250   4.011  21.248  0.00  0.00    +0.000 HD
BRANCH  27  33
ATOM     33  C   UNL     1       4.354   4.144  17.386  0.00  0.00    +0.000 C 
ATOM     34  C   UNL     1       4.889   5.045  16.547  0.00  0.00    +0.000 C 
BRANCH  34  35
ATOM     35  C   UNL     1       5.634   4.783  15.310  0.00  0.00    +0.000 A 
ATOM     36  C   UNL     1       4.962   4.058  14.314  0.00  0.00    +0.000 A 
ATOM     37  C   UNL     1       5.571   3.786  13.090  0.00  0.00    +0.000 A 
ATOM     38  C   UNL     1       6.862   4.243  12.846  0.00  0.00    +0.000 A 
ATOM     39  C   UNL     1       7.539   4.968  13.824  0.00  0.00    +0.000 A 
ATOM     40  C   UNL     1       6.929   5.242  15.053  0.00  0.00    +0.000 A 
ENDBRANCH  34  35
ENDBRANCH  27  33
ENDBRANCH  21  23
ENDBRANCH   5  21
TORSDOF 7
ENDMDL
MODEL 8
REMARK VINA RESULT:      -8.5      1.351      1.884
REMARK  Name = 
REMARK  8 active torsions:
REMARK  status: ('A' for Active; 'I' for Inactive)
REMARK    1  A    between atoms: C_1  and  C_2
REMARK    2  A    between atoms: C_5  and  C_6
REMARK    3  A    between atoms: C_6  and  C_7
REMARK    4  A    between atoms: N_9  and  C_10
REMARK    5  A    between atoms: C_14  and  C_15
REMARK    6  A    between atoms: C_15  and  C_17
REMARK    7  A    between atoms: C_21  and  C_22
REMARK    8  A    between atoms: C_23  and  C_24
REMARK                            x       y       z     vdW  Elec       q    Type
REMARK                         _______ _______ _______ _____ _____    ______ ____
ROOT
ATOM      1  C   UNL     1      -3.571  14.391  20.750  0.00  0.00    +0.000 A 
ATOM      2  C   UNL     1      -3.895  15.616  21.333  0.00  0.00    +0.000 A 
ATOM      3  C   UNL     1      -2.930  16.355  22.013  0.00  0.00    +0.000 A 
ATOM      4  C   UNL     1      -1.631  15.864  22.130  0.00  0.00    +0.000 A 
ATOM      5  C   UNL     1      -1.314  14.595  21.641  0.00  0.00    +0.000 A 
ATOM      6  C   UNL     1      -2.294  13.856  20.952  0.00  0.00    +0.000 A 
ENDROOT
BRANCH   1   9
ATOM      7  C   UNL     1      -5.264  12.619  20.361  0.00  0.00    +0.000 C 
ATOM      8  O   UNL     1      -5.334  12.151  21.489  0.00  0.00    +0.000 OA
ATOM      9  N   UNL     1      -4.478  13.681  19.940  0.00  0.00    +0.000 N 
ATOM     10  H   UNL     1      -4.683  14.058  19.023  0.00  0.00    +0.000 HD
BRANCH   7  11
ATOM     11  C   UNL     1      -6.109  12.022  19.263  0.00  0.00    +0.000 C 
ATOM     12  C   UNL     1      -7.464  12.661  18.977  0.00  0.00    +0.000 C 
ATOM     13  C   UNL     1      -7.420  11.336  19.666  0.00  0.00    +0.000 C 
BRANCH  11  18
ATOM     14  C   UNL     1      -2.449   9.728  15.327  0.00  0.00    +0.000 C 
ATOM     15  C   UNL     1      -3.474  10.245  16.293  0.00  0.00    +0.000 A 
ATOM     16  C   UNL     1      -3.661   9.630  17.532  0.00  0.00    +0.000 A 
ATOM     17  C   UNL     1      -4.559  10.173  18.455  0.00  0.00    +0.000 A 
ATOM     18  C   UNL     1      -5.297  11.338  18.171  0.00  0.00    +0.000 A 
ATOM     19  C   UNL     1      -5.140  11.906  16.899  0.00  0.00    +0.000 A 
ATOM     20  C   UNL     1      -4.243  11.367  15.971  0.00  0.00    +0.000 A 
ENDBRANCH  11  18
ENDBRANCH   7  11
ENDBRANCH   1   9
BRANCH   5  21
ATOM     21  C   UNL     1       0.065  14.029  21.732  0.00  0.00    +0.000 C 
ATOM     22  O   UNL     1       0.878  14.578  22.475  0.00  0.00    +0.000 OA
BRANCH  21  23
ATOM     23  C   UNL     1       0.490  12.804  21.003  0.00  0.00    +0.000 A 
ATOM     24  C   UNL     1       0.347  11.579  21.667  0.00  0.00    +0.000 A 
ATOM     25  C   UNL     1       0.699  10.372  21.048  0.00  0.00    +0.000 A 
ATOM     26  C   UNL     1       1.207  10.397  19.734  0.00  0.00    +0.000 A 
ATOM     27  C   UNL     1       1.612   9.428  18.762  0.00  0.00    +0.000 A 
ATOM     28  N   UNL     1       2.057  10.020  17.641  0.00  0.00    +0.000 NA
ATOM     29  N   UNL     1       1.902  11.329  17.880  0.00  0.00    +0.000 N 
ATOM     30  C   UNL     1       1.382  11.628  19.111  0.00  0.00    +0.000 A 
ATOM     31  C   UNL     1       1.050  12.853  19.714  0.00  0.00    +0.000 A 
ATOM     32  H   UNL     1       2.154  11.979  17.143  0.00  0.00    +0.000 HD
BRANCH  27  33
ATOM     33  C   UNL     1       1.504   8.007  18.922  0.00  0.00    +0.000 C 
ATOM     34  C   UNL     1       2.475   7.153  18.559  0.00  0.00    +0.000 C 
BRANCH  34  35
ATOM     35  C   UNL     1       2.422   5.686  18.560  0.00  0.00    +0.000 A 
ATOM     36  C   UNL     1       3.221   5.030  17.613  0.00  0.00    +0.000 A 
ATOM     37  C   UNL     1       3.267   3.637  17.554  0.00  0.00    +0.000 A 
ATOM     38  C   UNL     1       2.515   2.885  18.450  0.00  0.00    +0.000 A 
ATOM     39  C   UNL     1       1.720   3.525  19.399  0.00  0.00    +0.000 A 
ATOM     40  C   UNL     1       1.673   4.921  19.459  0.00  0.00    +0.000 A 
ENDBRANCH  34  35
ENDBRANCH  27  33
ENDBRANCH  21  23
ENDBRANCH   5  21
TORSDOF 7
ENDMDL
MODEL 9
REMARK VINA RESULT:      -8.4      4.777      7.269
REMARK  Name = 
REMARK  8 active torsions:
REMARK  status: ('A' for Active; 'I' for Inactive)
REMARK    1  A    between atoms: C_1  and  C_2
REMARK    2  A    between atoms: C_5  and  C_6
REMARK    3  A    between atoms: C_6  and  C_7
REMARK    4  A    between atoms: N_9  and  C_10
REMARK    5  A    between atoms: C_14  and  C_15
REMARK    6  A    between atoms: C_15  and  C_17
REMARK    7  A    between atoms: C_21  and  C_22
REMARK    8  A    between atoms: C_23  and  C_24
REMARK                            x       y       z     vdW  Elec       q    Type
REMARK                         _______ _______ _______ _____ _____    ______ ____
ROOT
ATOM      1  C   UNL     1       0.441  12.652  19.571  0.00  0.00    +0.000 A 
ATOM      2  C   UNL     1      -0.836  12.516  19.027  0.00  0.00    +0.000 A 
ATOM      3  C   UNL     1      -1.484  11.283  19.040  0.00  0.00    +0.000 A 
ATOM      4  C   UNL     1      -0.850  10.168  19.585  0.00  0.00    +0.000 A 
ATOM      5  C   UNL     1       0.467  10.264  20.042  0.00  0.00    +0.000 A 
ATOM      6  C   UNL     1       1.113  11.514  20.028  0.00  0.00    +0.000 A 
ENDROOT
BRANCH   1   9
ATOM      7  C   UNL     1       2.039  14.405  18.843  0.00  0.00    +0.000 C 
ATOM      8  O   UNL     1       2.474  13.877  17.827  0.00  0.00    +0.000 OA
ATOM      9  N   UNL     1       1.073  13.904  19.701  0.00  0.00    +0.000 N 
ATOM     10  H   UNL     1       0.696  14.551  20.383  0.00  0.00    +0.000 HD
BRANCH   7  11
ATOM     11  C   UNL     1       2.571  15.756  19.255  0.00  0.00    +0.000 C 
ATOM     12  C   UNL     1       1.641  16.682  20.030  0.00  0.00    +0.000 C 
ATOM     13  C   UNL     1       1.949  16.996  18.602  0.00  0.00    +0.000 C 
BRANCH  11  18
ATOM     14  C   UNL     1       8.254  16.353  20.478  0.00  0.00    +0.000 C 
ATOM     15  C   UNL     1       6.825  16.106  20.095  0.00  0.00    +0.000 A 
ATOM     16  C   UNL     1       6.023  15.246  20.848  0.00  0.00    +0.000 A 
ATOM     17  C   UNL     1       4.671  15.092  20.529  0.00  0.00    +0.000 A 
ATOM     18  C   UNL     1       4.080  15.783  19.453  0.00  0.00    +0.000 A 
ATOM     19  C   UNL     1       4.916  16.594  18.673  0.00  0.00    +0.000 A 
ATOM     20  C   UNL     1       6.270  16.753  18.988  0.00  0.00    +0.000 A 
ENDBRANCH  11  18
ENDBRANCH   7  11
ENDBRANCH   1   9
BRANCH   5  21
ATOM     21  C   UNL     1       1.186   9.102  20.644  0.00  0.00    +0.000 C 
ATOM     22  O   UNL     1       1.211   8.997  21.870  0.00  0.00    +0.000 OA
BRANCH  21  23
ATOM     23  C   UNL     1       1.836   8.039  19.831  0.00  0.00    +0.000 A 
ATOM     24  C   UNL     1       1.937   8.258  18.450  0.00  0.00    +0.000 A 
ATOM     25  C   UNL     1       2.556   7.322  17.610  0.00  0.00    +0.000 A 
ATOM     26  C   UNL     1       3.083   6.141  18.169  0.00  0.00    +0.000 A 
ATOM     27  C   UNL     1       3.812   5.006  17.693  0.00  0.00    +0.000 A 
ATOM     28  N   UNL     1       4.046   4.127  18.682  0.00  0.00    +0.000 NA
ATOM     29  N   UNL     1       3.513   4.707  19.766  0.00  0.00    +0.000 N 
ATOM     30  C   UNL     1       2.931   5.925  19.535  0.00  0.00    +0.000 A 
ATOM     31  C   UNL     1       2.303   6.839  20.397  0.00  0.00    +0.000 A 
ATOM     32  H   UNL     1       3.598   4.222  20.653  0.00  0.00    +0.000 HD
BRANCH  27  33
ATOM     33  C   UNL     1       4.295   4.842  16.353  0.00  0.00    +0.000 C 
ATOM     34  C   UNL     1       5.570   4.532  16.066  0.00  0.00    +0.000 C 
BRANCH  34  35
ATOM     35  C   UNL     1       6.198   4.464  14.741  0.00  0.00    +0.000 A 
ATOM     36  C   UNL     1       5.579   3.632  13.796  0.00  0.00    +0.000 A 
ATOM     37  C   UNL     1       6.078   3.524  12.499  0.00  0.00    +0.000 A 
ATOM     38  C   UNL     1       7.202   4.255  12.130  0.00  0.00    +0.000 A 
ATOM     39  C   UNL     1       7.824   5.089  13.057  0.00  0.00    +0.000 A 
ATOM     40  C   UNL     1       7.324   5.198  14.359  0.00  0.00    +0.000 A 
ENDBRANCH  34  35
ENDBRANCH  27  33
ENDBRANCH  21  23
ENDBRANCH   5  21
TORSDOF 7
ENDMDL
