MODEL 1
REMARK VINA RESULT:      -8.5      0.000      0.000
REMARK  Name = 
REMARK  2 active torsions:
REMARK  status: ('A' for Active; 'I' for Inactive)
REMARK    1  A    between atoms: C_7  and  C_8
REMARK    2  A    between atoms: C_11  and  C_12
REMARK                            x       y       z     vdW  Elec       q    Type
REMARK                         _______ _______ _______ _____ _____    ______ ____
ROOT
ATOM      1  C   UNL     1       2.474   6.915  19.427  0.00  0.00    +0.000 A 
ATOM      2  N   UNL     1       2.784   5.838  20.165  0.00  0.00    +0.000 NA
ATOM      3  O   UNL     1       3.561   5.057  19.303  0.00  0.00    +0.000 OA
ATOM      4  C   UNL     1       3.643   5.747  18.131  0.00  0.00    +0.000 A 
ATOM      5  N   UNL     1       2.988   6.882  18.154  0.00  0.00    +0.000 NA
ENDROOT
BRANCH   1  12
ATOM      6  C   UNL     1      -0.899  10.496  23.168  0.00  0.00    +0.000 A 
ATOM      7  C   UNL     1      -1.064  11.521  22.245  0.00  0.00    +0.000 A 
ATOM      8  C   UNL     1      -0.503  11.406  20.970  0.00  0.00    +0.000 A 
ATOM      9  C   UNL     1       0.224  10.286  20.595  0.00  0.00    +0.000 A 
ATOM     10  N   UNL     1       0.746  10.226  19.361  0.00  0.00    +0.000 NA
ATOM     11  C   UNL     1       1.460   9.122  19.031  0.00  0.00    +0.000 A 
ATOM     12  C   UNL     1       1.683   8.043  19.878  0.00  0.00    +0.000 A 
ATOM     13  C   UNL     1       1.127   8.114  21.155  0.00  0.00    +0.000 A 
ATOM     14  C   UNL     1       0.387   9.244  21.537  0.00  0.00    +0.000 A 
ATOM     15  C   UNL     1      -0.176   9.358  22.818  0.00  0.00    +0.000 A 
ENDBRANCH   1  12
BRANCH   4  16
ATOM     16  C   UNL     1       4.407   5.136  17.011  0.00  0.00    +0.000 C 
ATOM     17  C   UNL     1       5.461   4.129  17.538  0.00  0.00    +0.000 C 
ATOM     18  N   UNL     1       6.844   4.510  17.151  0.00  0.00    +0.000 NA
ATOM     19  C   UNL     1       6.941   4.524  15.677  0.00  0.00    +0.000 C 
ATOM     20  C   UNL     1       5.904   5.468  15.046  0.00  0.00    +0.000 C 
ATOM     21  C   UNL     1       5.136   6.207  16.161  0.00  0.00    +0.000 C 
ATOM     22  C   UNL     1       6.200   6.921  17.017  0.00  0.00    +0.000 C 
ATOM     23  C   UNL     1       7.116   5.871  17.668  0.00  0.00    +0.000 C 
ENDBRANCH   4  16
TORSDOF 2
ENDMDL
MODEL 2
REMARK VINA RESULT:      -8.5      4.258      8.628
REMARK  Name = 
REMARK  2 active torsions:
REMARK  status: ('A' for Active; 'I' for Inactive)
REMARK    1  A    between atoms: C_7  and  C_8
REMARK    2  A    between atoms: C_11  and  C_12
REMARK                            x       y       z     vdW  Elec       q    Type
REMARK                         _______ _______ _______ _____ _____    ______ ____
ROOT
ATOM      1  C   UNL     1       5.896   4.282  17.698  0.00  0.00    +0.000 A 
ATOM      2  N   UNL     1       6.521   4.762  18.785  0.00  0.00    +0.000 NA
ATOM      3  O   UNL     1       5.720   4.328  19.847  0.00  0.00    +0.000 OA
ATOM      4  C   UNL     1       4.694   3.627  19.290  0.00  0.00    +0.000 A 
ATOM      5  N   UNL     1       4.752   3.579  17.982  0.00  0.00    +0.000 NA
ENDROOT
BRANCH   1  12
ATOM      6  C   UNL     1       6.247   3.482  11.580  0.00  0.00    +0.000 A 
ATOM      7  C   UNL     1       7.235   4.439  11.385  0.00  0.00    +0.000 A 
ATOM      8  C   UNL     1       7.746   5.144  12.478  0.00  0.00    +0.000 A 
ATOM      9  C   UNL     1       7.288   4.917  13.768  0.00  0.00    +0.000 A 
ATOM     10  N   UNL     1       7.806   5.624  14.782  0.00  0.00    +0.000 NA
ATOM     11  C   UNL     1       7.328   5.383  16.028  0.00  0.00    +0.000 A 
ATOM     12  C   UNL     1       6.343   4.450  16.330  0.00  0.00    +0.000 A 
ATOM     13  C   UNL     1       5.819   3.715  15.267  0.00  0.00    +0.000 A 
ATOM     14  C   UNL     1       6.283   3.940  13.962  0.00  0.00    +0.000 A 
ATOM     15  C   UNL     1       5.770   3.230  12.864  0.00  0.00    +0.000 A 
ENDBRANCH   1  12
BRANCH   4  16
ATOM     16  C   UNL     1       3.663   3.055  20.198  0.00  0.00    +0.000 C 
ATOM     17  C   UNL     1       2.717   2.094  19.433  0.00  0.00    +0.000 C 
ATOM     18  N   UNL     1       1.300   2.537  19.489  0.00  0.00    +0.000 NA
ATOM     19  C   UNL     1       0.863   2.562  20.900  0.00  0.00    +0.000 C 
ATOM     20  C   UNL     1       1.765   3.462  21.761  0.00  0.00    +0.000 C 
ATOM     21  C   UNL     1       2.804   4.162  20.860  0.00  0.00    +0.000 C 
ATOM     22  C   UNL     1       2.001   4.918  19.784  0.00  0.00    +0.000 C 
ATOM     23  C   UNL     1       1.217   3.907  18.931  0.00  0.00    +0.000 C 
ENDBRANCH   4  16
TORSDOF 2
ENDMDL
MODEL 3
REMARK VINA RESULT:      -8.2      2.468      3.605
REMARK  Name = 
REMARK  2 active torsions:
REMARK  status: ('A' for Active; 'I' for Inactive)
REMARK    1  A    between atoms: C_7  and  C_8
REMARK    2  A    between atoms: C_11  and  C_12
REMARK                            x       y       z     vdW  Elec       q    Type
REMARK                         _______ _______ _______ _____ _____    ______ ____
ROOT
ATOM      1  C   UNL     1       1.554   7.851  20.366  0.00  0.00    +0.000 A 
ATOM      2  N   UNL     1       2.328   7.948  19.273  0.00  0.00    +0.000 NA
ATOM      3  O   UNL     1       2.789   6.641  19.076  0.00  0.00    +0.000 OA
ATOM      4  C   UNL     1       2.241   5.889  20.072  0.00  0.00    +0.000 A 
ATOM      5  N   UNL     1       1.488   6.584  20.889  0.00  0.00    +0.000 NA
ENDROOT
BRANCH   1  12
ATOM      6  C   UNL     1      -2.143  12.777  20.875  0.00  0.00    +0.000 A 
ATOM      7  C   UNL     1      -2.028  12.878  22.256  0.00  0.00    +0.000 A 
ATOM      8  C   UNL     1      -1.226  11.972  22.955  0.00  0.00    +0.000 A 
ATOM      9  C   UNL     1      -0.534  10.961  22.304  0.00  0.00    +0.000 A 
ATOM     10  N   UNL     1       0.218  10.114  23.021  0.00  0.00    +0.000 NA
ATOM     11  C   UNL     1       0.872   9.132  22.353  0.00  0.00    +0.000 A 
ATOM     12  C   UNL     1       0.825   8.944  20.977  0.00  0.00    +0.000 A 
ATOM     13  C   UNL     1       0.045   9.837  20.242  0.00  0.00    +0.000 A 
ATOM     14  C   UNL     1      -0.652  10.864  20.898  0.00  0.00    +0.000 A 
ATOM     15  C   UNL     1      -1.458  11.774  20.194  0.00  0.00    +0.000 A 
ENDBRANCH   1  12
BRANCH   4  16
ATOM     16  C   UNL     1       2.579   4.441  20.121  0.00  0.00    +0.000 C 
ATOM     17  C   UNL     1       3.919   4.156  19.396  0.00  0.00    +0.000 C 
ATOM     18  N   UNL     1       3.755   3.211  18.261  0.00  0.00    +0.000 NA
ATOM     19  C   UNL     1       3.248   1.924  18.781  0.00  0.00    +0.000 C 
ATOM     20  C   UNL     1       1.932   2.101  19.557  0.00  0.00    +0.000 C 
ATOM     21  C   UNL     1       1.476   3.572  19.467  0.00  0.00    +0.000 C 
ATOM     22  C   UNL     1       1.370   3.898  17.965  0.00  0.00    +0.000 C 
ATOM     23  C   UNL     1       2.761   3.779  17.320  0.00  0.00    +0.000 C 
ENDBRANCH   4  16
TORSDOF 2
ENDMDL
MODEL 4
REMARK VINA RESULT:      -8.0      2.143      3.119
REMARK  Name = 
REMARK  2 active torsions:
REMARK  status: ('A' for Active; 'I' for Inactive)
REMARK    1  A    between atoms: C_7  and  C_8
REMARK    2  A    between atoms: C_11  and  C_12
REMARK                            x       y       z     vdW  Elec       q    Type
REMARK                         _______ _______ _______ _____ _____    ______ ____
ROOT
ATOM      1  C   UNL     1       2.219   7.847  18.989  0.00  0.00    +0.000 A 
ATOM      2  N   UNL     1       2.812   7.944  17.789  0.00  0.00    +0.000 NA
ATOM      3  O   UNL     1       3.461   6.713  17.638  0.00  0.00    +0.000 OA
ATOM      4  C   UNL     1       3.188   5.998  18.766  0.00  0.00    +0.000 A 
ATOM      5  N   UNL     1       2.442   6.650  19.623  0.00  0.00    +0.000 NA
ENDROOT
BRANCH   1  12
ATOM      6  C   UNL     1      -1.208  10.743  23.239  0.00  0.00    +0.000 A 
ATOM      7  C   UNL     1      -1.418  11.884  22.474  0.00  0.00    +0.000 A 
ATOM      8  C   UNL     1      -0.873  11.971  21.190  0.00  0.00    +0.000 A 
ATOM      9  C   UNL     1      -0.117  10.940  20.651  0.00  0.00    +0.000 A 
ATOM     10  N   UNL     1       0.389  11.075  19.417  0.00  0.00    +0.000 NA
ATOM     11  C   UNL     1       1.131  10.053  18.924  0.00  0.00    +0.000 A 
ATOM     12  C   UNL     1       1.401   8.872  19.606  0.00  0.00    +0.000 A 
ATOM     13  C   UNL     1       0.862   8.741  20.885  0.00  0.00    +0.000 A 
ATOM     14  C   UNL     1       0.093   9.780  21.432  0.00  0.00    +0.000 A 
ATOM     15  C   UNL     1      -0.455   9.691  22.722  0.00  0.00    +0.000 A 
ENDBRANCH   1  12
BRANCH   4  16
ATOM     16  C   UNL     1       3.773   4.635  18.888  0.00  0.00    +0.000 C 
ATOM     17  C   UNL     1       3.651   3.854  17.555  0.00  0.00    +0.000 C 
ATOM     18  N   UNL     1       2.861   2.605  17.705  0.00  0.00    +0.000 NA
ATOM     19  C   UNL     1       3.541   1.724  18.677  0.00  0.00    +0.000 C 
ATOM     20  C   UNL     1       3.748   2.421  20.031  0.00  0.00    +0.000 C 
ATOM     21  C   UNL     1       3.080   3.811  20.002  0.00  0.00    +0.000 C 
ATOM     22  C   UNL     1       1.603   3.571  19.636  0.00  0.00    +0.000 C 
ATOM     23  C   UNL     1       1.521   2.960  18.227  0.00  0.00    +0.000 C 
ENDBRANCH   4  16
TORSDOF 2
ENDMDL
MODEL 5
REMARK VINA RESULT:      -8.0      4.266      8.507
REMARK  Name = 
REMARK  2 active torsions:
REMARK  status: ('A' for Active; 'I' for Inactive)
REMARK    1  A    between atoms: C_7  and  C_8
REMARK    2  A    between atoms: C_11  and  C_12
REMARK                            x       y       z     vdW  Elec       q    Type
REMARK                         _______ _______ _______ _____ _____    ______ ____
ROOT
ATOM      1  C   UNL     1       5.100   5.076  17.586  0.00  0.00    +0.000 A 
ATOM      2  N   UNL     1       5.586   5.696  18.673  0.00  0.00    +0.000 NA
ATOM      3  O   UNL     1       4.590   5.505  19.637  0.00  0.00    +0.000 OA
ATOM      4  C   UNL     1       3.605   4.784  19.031  0.00  0.00    +0.000 A 
ATOM      5  N   UNL     1       3.865   4.506  17.777  0.00  0.00    +0.000 NA
ENDROOT
BRANCH   1  12
ATOM      6  C   UNL     1       6.200   3.413  11.736  0.00  0.00    +0.000 A 
ATOM      7  C   UNL     1       7.377   4.141  11.618  0.00  0.00    +0.000 A 
ATOM      8  C   UNL     1       7.848   4.882  12.705  0.00  0.00    +0.000 A 
ATOM      9  C   UNL     1       7.165   4.916  13.912  0.00  0.00    +0.000 A 
ATOM     10  N   UNL     1       7.656   5.647  14.923  0.00  0.00    +0.000 NA
ATOM     11  C   UNL     1       6.958   5.666  16.085  0.00  0.00    +0.000 A 
ATOM     12  C   UNL     1       5.772   4.975  16.306  0.00  0.00    +0.000 A 
ATOM     13  C   UNL     1       5.277   4.211  15.249  0.00  0.00    +0.000 A 
ATOM     14  C   UNL     1       5.968   4.172  14.028  0.00  0.00    +0.000 A 
ATOM     15  C   UNL     1       5.494   3.426  12.937  0.00  0.00    +0.000 A 
ENDBRANCH   1  12
BRANCH   4  16
ATOM     16  C   UNL     1       2.395   4.445  19.828  0.00  0.00    +0.000 C 
ATOM     17  C   UNL     1       2.710   4.440  21.346  0.00  0.00    +0.000 C 
ATOM     18  N   UNL     1       2.452   3.117  21.969  0.00  0.00    +0.000 NA
ATOM     19  C   UNL     1       1.021   2.786  21.811  0.00  0.00    +0.000 C 
ATOM     20  C   UNL     1       0.591   2.802  20.334  0.00  0.00    +0.000 C 
ATOM     21  C   UNL     1       1.824   3.057  19.443  0.00  0.00    +0.000 C 
ATOM     22  C   UNL     1       2.843   1.955  19.791  0.00  0.00    +0.000 C 
ATOM     23  C   UNL     1       3.266   2.101  21.262  0.00  0.00    +0.000 C 
ENDBRANCH   4  16
TORSDOF 2
ENDMDL
MODEL 6
REMARK VINA RESULT:      -8.0      2.521      3.852
REMARK  Name = 
REMARK  2 active torsions:
REMARK  status: ('A' for Active; 'I' for Inactive)
REMARK    1  A    between atoms: C_7  and  C_8
REMARK    2  A    between atoms: C_11  and  C_12
REMARK                            x       y       z     vdW  Elec       q    Type
REMARK                         _______ _______ _______ _____ _____    ______ ____
ROOT
ATOM      1  C   UNL     1       1.615   8.209  19.951  0.00  0.00    +0.000 A 
ATOM      2  N   UNL     1       2.084   8.331  18.699  0.00  0.00    +0.000 NA
ATOM      3  O   UNL     1       2.728   7.110  18.465  0.00  0.00    +0.000 OA
ATOM      4  C   UNL     1       2.578   6.375  19.603  0.00  0.00    +0.000 A 
ATOM      5  N   UNL     1       1.915   7.006  20.541  0.00  0.00    +0.000 NA
ENDROOT
BRANCH   1  12
ATOM      6  C   UNL     1      -2.348  12.847  20.939  0.00  0.00    +0.000 A 
ATOM      7  C   UNL     1      -2.172  12.870  22.317  0.00  0.00    +0.000 A 
ATOM      8  C   UNL     1      -1.282  11.978  22.920  0.00  0.00    +0.000 A 
ATOM      9  C   UNL     1      -0.562  11.054  22.175  0.00  0.00    +0.000 A 
ATOM     10  N   UNL     1       0.275  10.216  22.802  0.00  0.00    +0.000 NA
ATOM     11  C   UNL     1       0.955   9.320  22.045  0.00  0.00    +0.000 A 
ATOM     12  C   UNL     1       0.851   9.213  20.663  0.00  0.00    +0.000 A 
ATOM     13  C   UNL     1      -0.017  10.097  20.022  0.00  0.00    +0.000 A 
ATOM     14  C   UNL     1      -0.743  11.035  20.773  0.00  0.00    +0.000 A 
ATOM     15  C   UNL     1      -1.637  11.932  20.165  0.00  0.00    +0.000 A 
ENDBRANCH   1  12
BRANCH   4  16
ATOM     16  C   UNL     1       3.188   5.019  19.645  0.00  0.00    +0.000 C 
ATOM     17  C   UNL     1       3.183   4.361  18.241  0.00  0.00    +0.000 C 
ATOM     18  N   UNL     1       2.416   3.088  18.220  0.00  0.00    +0.000 NA
ATOM     19  C   UNL     1       3.048   2.135  19.156  0.00  0.00    +0.000 C 
ATOM     20  C   UNL     1       3.140   2.709  20.579  0.00  0.00    +0.000 C 
ATOM     21  C   UNL     1       2.439   4.083  20.626  0.00  0.00    +0.000 C 
ATOM     22  C   UNL     1       0.999   3.849  20.133  0.00  0.00    +0.000 C 
ATOM     23  C   UNL     1       1.033   3.368  18.673  0.00  0.00    +0.000 C 
ENDBRANCH   4  16
TORSDOF 2
ENDMDL
MODEL 7
REMARK VINA RESULT:      -7.7      0.876      1.687
REMARK  Name = 
REMARK  2 active torsions:
REMARK  status: ('A' for Active; 'I' for Inactive)
REMARK    1  A    between atoms: C_7  and  C_8
REMARK    2  A    between atoms: C_11  and  C_12
REMARK                            x       y       z     vdW  Elec       q    Type
REMARK                         _______ _______ _______ _____ _____    ______ ____
ROOT
ATOM      1  C   UNL     1       2.434   6.934  19.436  0.00  0.00    +0.000 A 
ATOM      2  N   UNL     1       2.688   5.827  20.152  0.00  0.00    +0.000 NA
ATOM      3  O   UNL     1       3.457   5.041  19.287  0.00  0.00    +0.000 OA
ATOM      4  C   UNL     1       3.590   5.758  18.136  0.00  0.00    +0.000 A 
ATOM      5  N   UNL     1       2.976   6.915  18.175  0.00  0.00    +0.000 NA
ENDROOT
BRANCH   1  12
ATOM      6  C   UNL     1      -0.535  12.353  19.306  0.00  0.00    +0.000 A 
ATOM      7  C   UNL     1      -0.930  12.311  20.638  0.00  0.00    +0.000 A 
ATOM      8  C   UNL     1      -0.565  11.225  21.438  0.00  0.00    +0.000 A 
ATOM      9  C   UNL     1       0.185  10.172  20.935  0.00  0.00    +0.000 A 
ATOM     10  N   UNL     1       0.505   9.150  21.742  0.00  0.00    +0.000 NA
ATOM     11  C   UNL     1       1.230   8.133  21.216  0.00  0.00    +0.000 A 
ATOM     12  C   UNL     1       1.674   8.077  19.899  0.00  0.00    +0.000 A 
ATOM     13  C   UNL     1       1.342   9.151  19.073  0.00  0.00    +0.000 A 
ATOM     14  C   UNL     1       0.586  10.219  19.580  0.00  0.00    +0.000 A 
ATOM     15  C   UNL     1       0.221  11.311  18.775  0.00  0.00    +0.000 A 
ENDBRANCH   1  12
BRANCH   4  16
ATOM     16  C   UNL     1       4.357   5.148  17.017  0.00  0.00    +0.000 C 
ATOM     17  C   UNL     1       5.393   4.122  17.545  0.00  0.00    +0.000 C 
ATOM     18  N   UNL     1       6.785   4.487  17.176  0.00  0.00    +0.000 NA
ATOM     19  C   UNL     1       6.897   4.516  15.704  0.00  0.00    +0.000 C 
ATOM     20  C   UNL     1       5.880   5.480  15.072  0.00  0.00    +0.000 C 
ATOM     21  C   UNL     1       5.110   6.218  16.187  0.00  0.00    +0.000 C 
ATOM     22  C   UNL     1       6.175   6.908  17.061  0.00  0.00    +0.000 C 
ATOM     23  C   UNL     1       7.069   5.840  17.711  0.00  0.00    +0.000 C 
ENDBRANCH   4  16
TORSDOF 2
ENDMDL
MODEL 8
REMARK VINA RESULT:      -7.7      1.460      2.215
REMARK  Name = 
REMARK  2 active torsions:
REMARK  status: ('A' for Active; 'I' for Inactive)
REMARK    1  A    between atoms: C_7  and  C_8
REMARK    2  A    between atoms: C_11  and  C_12
REMARK                            x       y       z     vdW  Elec       q    Type
REMARK                         _______ _______ _______ _____ _____    ______ ____
ROOT
ATOM      1  C   UNL     1       1.619   7.640  20.255  0.00  0.00    +0.000 A 
ATOM      2  N   UNL     1       1.762   6.432  20.824  0.00  0.00    +0.000 NA
ATOM      3  O   UNL     1       2.484   5.701  19.874  0.00  0.00    +0.000 OA
ATOM      4  C   UNL     1       2.706   6.546  18.829  0.00  0.00    +0.000 A 
ATOM      5  N   UNL     1       2.189   7.737  19.010  0.00  0.00    +0.000 NA
ENDROOT
BRANCH   1  12
ATOM      6  C   UNL     1      -1.934  12.674  20.733  0.00  0.00    +0.000 A 
ATOM      7  C   UNL     1      -1.750  12.827  22.101  0.00  0.00    +0.000 A 
ATOM      8  C   UNL     1      -0.936  11.931  22.799  0.00  0.00    +0.000 A 
ATOM      9  C   UNL     1      -0.300  10.877  22.158  0.00  0.00    +0.000 A 
ATOM     10  N   UNL     1       0.466  10.041  22.873  0.00  0.00    +0.000 NA
ATOM     11  C   UNL     1       1.064   9.017  22.217  0.00  0.00    +0.000 A 
ATOM     12  C   UNL     1       0.946   8.775  20.854  0.00  0.00    +0.000 A 
ATOM     13  C   UNL     1       0.153   9.656  20.120  0.00  0.00    +0.000 A 
ATOM     14  C   UNL     1      -0.489  10.726  20.765  0.00  0.00    +0.000 A 
ATOM     15  C   UNL     1      -1.306  11.627  20.063  0.00  0.00    +0.000 A 
ENDBRANCH   1  12
BRANCH   4  16
ATOM     16  C   UNL     1       3.447   6.023  17.651  0.00  0.00    +0.000 C 
ATOM     17  C   UNL     1       3.252   4.491  17.504  0.00  0.00    +0.000 C 
ATOM     18  N   UNL     1       4.539   3.752  17.576  0.00  0.00    +0.000 NA
ATOM     19  C   UNL     1       5.408   4.198  16.467  0.00  0.00    +0.000 C 
ATOM     20  C   UNL     1       5.635   5.718  16.496  0.00  0.00    +0.000 C 
ATOM     21  C   UNL     1       4.965   6.314  17.752  0.00  0.00    +0.000 C 
ATOM     22  C   UNL     1       5.566   5.564  18.957  0.00  0.00    +0.000 C 
ATOM     23  C   UNL     1       5.193   4.075  18.865  0.00  0.00    +0.000 C 
ENDBRANCH   4  16
TORSDOF 2
ENDMDL
MODEL 9
REMARK VINA RESULT:      -7.6      4.095      8.576
REMARK  Name = 
REMARK  2 active torsions:
REMARK  status: ('A' for Active; 'I' for Inactive)
REMARK    1  A    between atoms: C_7  and  C_8
REMARK    2  A    between atoms: C_11  and  C_12
REMARK                            x       y       z     vdW  Elec       q    Type
REMARK                         _______ _______ _______ _____ _____    ______ ____
ROOT
ATOM      1  C   UNL     1       4.831   5.412  17.044  0.00  0.00    +0.000 A 
ATOM      2  N   UNL     1       4.510   6.639  17.487  0.00  0.00    +0.000 NA
ATOM      3  O   UNL     1       3.841   6.392  18.691  0.00  0.00    +0.000 OA
ATOM      4  C   UNL     1       3.830   5.039  18.852  0.00  0.00    +0.000 A 
ATOM      5  N   UNL     1       4.413   4.398  17.869  0.00  0.00    +0.000 NA
ENDROOT
BRANCH   1  12
ATOM      6  C   UNL     1       6.091   3.047  11.475  0.00  0.00    +0.000 A 
ATOM      7  C   UNL     1       7.326   3.672  11.351  0.00  0.00    +0.000 A 
ATOM      8  C   UNL     1       7.798   4.491  12.379  0.00  0.00    +0.000 A 
ATOM      9  C   UNL     1       7.060   4.706  13.534  0.00  0.00    +0.000 A 
ATOM     10  N   UNL     1       7.554   5.506  14.489  0.00  0.00    +0.000 NA
ATOM     11  C   UNL     1       6.802   5.701  15.600  0.00  0.00    +0.000 A 
ATOM     12  C   UNL     1       5.557   5.125  15.823  0.00  0.00    +0.000 A 
ATOM     13  C   UNL     1       5.058   4.288  14.826  0.00  0.00    +0.000 A 
ATOM     14  C   UNL     1       5.804   4.066  13.658  0.00  0.00    +0.000 A 
ATOM     15  C   UNL     1       5.330   3.241  12.625  0.00  0.00    +0.000 A 
ENDBRANCH   1  12
BRANCH   4  16
ATOM     16  C   UNL     1       3.157   4.483  20.056  0.00  0.00    +0.000 C 
ATOM     17  C   UNL     1       3.606   3.022  20.322  0.00  0.00    +0.000 C 
ATOM     18  N   UNL     1       2.466   2.070  20.290  0.00  0.00    +0.000 NA
ATOM     19  C   UNL     1       1.505   2.440  21.350  0.00  0.00    +0.000 C 
ATOM     20  C   UNL     1       1.024   3.893  21.202  0.00  0.00    +0.000 C 
ATOM     21  C   UNL     1       1.615   4.501  19.913  0.00  0.00    +0.000 C 
ATOM     22  C   UNL     1       1.183   3.574  18.761  0.00  0.00    +0.000 C 
ATOM     23  C   UNL     1       1.801   2.182  18.971  0.00  0.00    +0.000 C 
ENDBRANCH   4  16
TORSDOF 2
ENDMDL
