MODEL 1
REMARK VINA RESULT:      -8.7      0.000      0.000
REMARK  Name = 
REMARK  11 active torsions:
REMARK  status: ('A' for Active; 'I' for Inactive)
REMARK    1  A    between atoms: C_1  and  C_2
REMARK    2  A    between atoms: C_2  and  C_3
REMARK    3  A    between atoms: C_2  and  N_4
REMARK    4  A    between atoms: C_5  and  C_7
REMARK    5  A    between atoms: C_7  and  C_8
REMARK    6  A    between atoms: C_12  and  N_13
REMARK    7  A    between atoms: N_13  and  C_14
REMARK    8  A    between atoms: C_14  and  C_15
REMARK    9  A    between atoms: N_24  and  C_25
REMARK   10  A    between atoms: C_25  and  C_26
REMARK   11  A    between atoms: C_25  and  C_27
REMARK                            x       y       z     vdW  Elec       q    Type
REMARK                         _______ _______ _______ _____ _____    ______ ____
ROOT
ATOM      1  N   UNL     1       3.945   5.497  17.917  0.00  0.00    +0.000 N 
ATOM      2  C   UNL     1       5.333   5.485  17.781  0.00  0.00    +0.000 C 
ATOM      3  O   UNL     1       5.961   4.475  17.479  0.00  0.00    +0.000 OA
ATOM      4  N   UNL     1       5.971   6.694  17.958  0.00  0.00    +0.000 N 
ATOM      5  H   UNL     1       5.486   7.397  18.505  0.00  0.00    +0.000 HD
ENDROOT
BRANCH   1  10
ATOM      6  C   UNL     1       1.797   7.835  19.934  0.00  0.00    +0.000 A 
ATOM      7  C   UNL     1       1.673   8.910  19.047  0.00  0.00    +0.000 A 
ATOM      8  C   UNL     1       2.234   8.826  17.772  0.00  0.00    +0.000 A 
ATOM      9  C   UNL     1       2.967   7.691  17.394  0.00  0.00    +0.000 A 
ATOM     10  C   UNL     1       3.174   6.641  18.292  0.00  0.00    +0.000 A 
ATOM     11  C   UNL     1       2.560   6.705  19.554  0.00  0.00    +0.000 A 
BRANCH   6  12
ATOM     12  C   UNL     1       1.069   7.884  21.260  0.00  0.00    +0.000 C 
BRANCH  12  14
ATOM     13  N   UNL     1      -0.277   9.909  21.366  0.00  0.00    +0.000 N 
ATOM     14  C   UNL     1       0.871   9.282  21.810  0.00  0.00    +0.000 C 
ATOM     15  O   UNL     1       1.686   9.815  22.559  0.00  0.00    +0.000 OA
ATOM     16  H   UNL     1      -0.958   9.372  20.843  0.00  0.00    +0.000 HD
BRANCH  13  18
ATOM     17  C   UNL     1      -1.363  11.993  20.686  0.00  0.00    +0.000 C 
ATOM     18  C   UNL     1      -0.622  11.255  21.797  0.00  0.00    +0.000 C 
ATOM     19  C   UNL     1      -1.445  11.229  23.082  0.00  0.00    +0.000 C 
ENDBRANCH  13  18
ENDBRANCH  12  14
ENDBRANCH   6  12
ENDBRANCH   1  10
BRANCH   4  20
ATOM     20  C   UNL     1       7.414   6.811  17.790  0.00  0.00    +0.000 C 
ATOM     21  C   UNL     1       7.819   8.260  17.550  0.00  0.00    +0.000 C 
ATOM     22  C   UNL     1       8.168   6.230  18.988  0.00  0.00    +0.000 C 
ENDBRANCH   4  20
BRANCH   1  23
ATOM     23  C   UNL     1       3.235   4.251  17.561  0.00  0.00    +0.000 C 
BRANCH  23  24
ATOM     24  C   UNL     1       2.612   3.549  18.762  0.00  0.00    +0.000 A 
ATOM     25  C   UNL     1       1.216   3.412  18.887  0.00  0.00    +0.000 A 
ATOM     26  C   UNL     1       0.645   2.966  20.084  0.00  0.00    +0.000 A 
ATOM     27  C   UNL     1       1.472   2.635  21.148  0.00  0.00    +0.000 A 
ATOM     28  F   UNL     1       0.934   2.310  22.332  0.00  0.00    +0.000 F 
ATOM     29  C   UNL     1       2.853   2.662  21.010  0.00  0.00    +0.000 A 
ATOM     30  C   UNL     1       3.425   3.101  19.813  0.00  0.00    +0.000 A 
ENDBRANCH  23  24
ENDBRANCH   1  23
TORSDOF 7
ENDMDL
MODEL 2
REMARK VINA RESULT:      -7.9      2.497      4.679
REMARK  Name = 
REMARK  11 active torsions:
REMARK  status: ('A' for Active; 'I' for Inactive)
REMARK    1  A    between atoms: C_1  and  C_2
REMARK    2  A    between atoms: C_2  and  C_3
REMARK    3  A    between atoms: C_2  and  N_4
REMARK    4  A    between atoms: C_5  and  C_7
REMARK    5  A    between atoms: C_7  and  C_8
REMARK    6  A    between atoms: C_12  and  N_13
REMARK    7  A    between atoms: N_13  and  C_14
REMARK    8  A    between atoms: C_14  and  C_15
REMARK    9  A    between atoms: N_24  and  C_25
REMARK   10  A    between atoms: C_25  and  C_26
REMARK   11  A    between atoms: C_25  and  C_27
REMARK                            x       y       z     vdW  Elec       q    Type
REMARK                         _______ _______ _______ _____ _____    ______ ____
ROOT
ATOM      1  N   UNL     1       3.979   5.656  18.879  0.00  0.00    +0.000 N 
ATOM      2  C   UNL     1       3.610   4.334  19.123  0.00  0.00    +0.000 C 
ATOM      3  O   UNL     1       4.400   3.398  19.041  0.00  0.00    +0.000 OA
ATOM      4  N   UNL     1       2.305   4.131  19.518  0.00  0.00    +0.000 N 
ATOM      5  H   UNL     1       1.630   4.844  19.265  0.00  0.00    +0.000 HD
ENDROOT
BRANCH   1  10
ATOM      6  C   UNL     1       1.362   8.060  20.111  0.00  0.00    +0.000 A 
ATOM      7  C   UNL     1       1.351   8.994  19.070  0.00  0.00    +0.000 A 
ATOM      8  C   UNL     1       2.149   8.787  17.944  0.00  0.00    +0.000 A 
ATOM      9  C   UNL     1       3.001   7.674  17.874  0.00  0.00    +0.000 A 
ATOM     10  C   UNL     1       3.090   6.774  18.938  0.00  0.00    +0.000 A 
ATOM     11  C   UNL     1       2.243   6.954  20.044  0.00  0.00    +0.000 A 
BRANCH   6  12
ATOM     12  C   UNL     1       0.392   8.225  21.261  0.00  0.00    +0.000 C 
BRANCH  12  14
ATOM     13  N   UNL     1      -0.526  10.462  21.533  0.00  0.00    +0.000 N 
ATOM     14  C   UNL     1       0.456   9.579  21.938  0.00  0.00    +0.000 C 
ATOM     15  O   UNL     1       1.330   9.867  22.752  0.00  0.00    +0.000 OA
ATOM     16  H   UNL     1      -1.279  10.123  20.948  0.00  0.00    +0.000 HD
BRANCH  13  18
ATOM     17  C   UNL     1      -0.831  12.823  20.968  0.00  0.00    +0.000 C 
ATOM     18  C   UNL     1      -0.613  11.806  22.084  0.00  0.00    +0.000 C 
ATOM     19  C   UNL     1      -1.715  11.901  23.136  0.00  0.00    +0.000 C 
ENDBRANCH  13  18
ENDBRANCH  12  14
ENDBRANCH   6  12
ENDBRANCH   1  10
BRANCH   4  20
ATOM     20  C   UNL     1       1.822   2.796  19.849  0.00  0.00    +0.000 C 
ATOM     21  C   UNL     1       1.304   2.745  21.281  0.00  0.00    +0.000 C 
ATOM     22  C   UNL     1       0.746   2.329  18.868  0.00  0.00    +0.000 C 
ENDBRANCH   4  20
BRANCH   1  23
ATOM     23  C   UNL     1       5.414   5.906  18.626  0.00  0.00    +0.000 C 
BRANCH  23  24
ATOM     24  C   UNL     1       5.855   5.510  17.222  0.00  0.00    +0.000 A 
ATOM     25  C   UNL     1       5.125   5.908  16.085  0.00  0.00    +0.000 A 
ATOM     26  C   UNL     1       5.408   5.365  14.827  0.00  0.00    +0.000 A 
ATOM     27  C   UNL     1       6.437   4.442  14.702  0.00  0.00    +0.000 A 
ATOM     28  F   UNL     1       6.647   3.836  13.525  0.00  0.00    +0.000 F 
ATOM     29  C   UNL     1       7.237   4.117  15.789  0.00  0.00    +0.000 A 
ATOM     30  C   UNL     1       6.959   4.664  17.046  0.00  0.00    +0.000 A 
ENDBRANCH  23  24
ENDBRANCH   1  23
TORSDOF 7
ENDMDL
MODEL 3
REMARK VINA RESULT:      -7.9      2.200      4.733
REMARK  Name = 
REMARK  11 active torsions:
REMARK  status: ('A' for Active; 'I' for Inactive)
REMARK    1  A    between atoms: C_1  and  C_2
REMARK    2  A    between atoms: C_2  and  C_3
REMARK    3  A    between atoms: C_2  and  N_4
REMARK    4  A    between atoms: C_5  and  C_7
REMARK    5  A    between atoms: C_7  and  C_8
REMARK    6  A    between atoms: C_12  and  N_13
REMARK    7  A    between atoms: N_13  and  C_14
REMARK    8  A    between atoms: C_14  and  C_15
REMARK    9  A    between atoms: N_24  and  C_25
REMARK   10  A    between atoms: C_25  and  C_26
REMARK   11  A    between atoms: C_25  and  C_27
REMARK                            x       y       z     vdW  Elec       q    Type
REMARK                         _______ _______ _______ _____ _____    ______ ____
ROOT
ATOM      1  N   UNL     1       3.529   5.243  17.826  0.00  0.00    +0.000 N 
ATOM      2  C   UNL     1       3.250   3.980  18.348  0.00  0.00    +0.000 C 
ATOM      3  O   UNL     1       3.779   2.956  17.926  0.00  0.00    +0.000 OA
ATOM      4  N   UNL     1       2.376   3.943  19.413  0.00  0.00    +0.000 N 
ATOM      5  H   UNL     1       1.737   4.724  19.513  0.00  0.00    +0.000 HD
ENDROOT
BRANCH   1  10
ATOM      6  C   UNL     1       1.696   7.730  19.971  0.00  0.00    +0.000 A 
ATOM      7  C   UNL     1       1.742   8.865  19.154  0.00  0.00    +0.000 A 
ATOM      8  C   UNL     1       2.308   8.783  17.882  0.00  0.00    +0.000 A 
ATOM      9  C   UNL     1       2.880   7.581  17.437  0.00  0.00    +0.000 A 
ATOM     10  C   UNL     1       2.921   6.459  18.267  0.00  0.00    +0.000 A 
ATOM     11  C   UNL     1       2.298   6.529  19.525  0.00  0.00    +0.000 A 
BRANCH   6  12
ATOM     12  C   UNL     1       0.958   7.798  21.290  0.00  0.00    +0.000 C 
BRANCH  12  14
ATOM     13  N   UNL     1      -0.189   9.903  21.710  0.00  0.00    +0.000 N 
ATOM     14  C   UNL     1       0.960   9.171  21.933  0.00  0.00    +0.000 C 
ATOM     15  O   UNL     1       1.921   9.597  22.570  0.00  0.00    +0.000 OA
ATOM     16  H   UNL     1      -0.983   9.450  21.276  0.00  0.00    +0.000 HD
BRANCH  13  18
ATOM     17  C   UNL     1      -0.305  12.281  21.141  0.00  0.00    +0.000 C 
ATOM     18  C   UNL     1      -0.354  11.242  22.257  0.00  0.00    +0.000 C 
ATOM     19  C   UNL     1      -1.650  11.355  23.055  0.00  0.00    +0.000 C 
ENDBRANCH  13  18
ENDBRANCH  12  14
ENDBRANCH   6  12
ENDBRANCH   1  10
BRANCH   4  20
ATOM     20  C   UNL     1       2.050   2.684  20.071  0.00  0.00    +0.000 C 
ATOM     21  C   UNL     1       1.814   2.894  21.561  0.00  0.00    +0.000 C 
ATOM     22  C   UNL     1       0.841   2.007  19.422  0.00  0.00    +0.000 C 
ENDBRANCH   4  20
BRANCH   1  23
ATOM     23  C   UNL     1       4.594   5.315  16.803  0.00  0.00    +0.000 C 
BRANCH  23  24
ATOM     24  C   UNL     1       5.900   5.894  17.333  0.00  0.00    +0.000 A 
ATOM     25  C   UNL     1       6.585   5.294  18.406  0.00  0.00    +0.000 A 
ATOM     26  C   UNL     1       7.657   5.946  19.025  0.00  0.00    +0.000 A 
ATOM     27  C   UNL     1       8.058   7.188  18.555  0.00  0.00    +0.000 A 
ATOM     28  F   UNL     1       9.012   7.869  19.206  0.00  0.00    +0.000 F 
ATOM     29  C   UNL     1       7.465   7.749  17.431  0.00  0.00    +0.000 A 
ATOM     30  C   UNL     1       6.398   7.095  16.809  0.00  0.00    +0.000 A 
ENDBRANCH  23  24
ENDBRANCH   1  23
TORSDOF 7
ENDMDL
MODEL 4
REMARK VINA RESULT:      -7.9      2.940      5.310
REMARK  Name = 
REMARK  11 active torsions:
REMARK  status: ('A' for Active; 'I' for Inactive)
REMARK    1  A    between atoms: C_1  and  C_2
REMARK    2  A    between atoms: C_2  and  C_3
REMARK    3  A    between atoms: C_2  and  N_4
REMARK    4  A    between atoms: C_5  and  C_7
REMARK    5  A    between atoms: C_7  and  C_8
REMARK    6  A    between atoms: C_12  and  N_13
REMARK    7  A    between atoms: N_13  and  C_14
REMARK    8  A    between atoms: C_14  and  C_15
REMARK    9  A    between atoms: N_24  and  C_25
REMARK   10  A    between atoms: C_25  and  C_26
REMARK   11  A    between atoms: C_25  and  C_27
REMARK                            x       y       z     vdW  Elec       q    Type
REMARK                         _______ _______ _______ _____ _____    ______ ____
ROOT
ATOM      1  N   UNL     1       3.015   5.808  18.000  0.00  0.00    +0.000 N 
ATOM      2  C   UNL     1       2.808   4.446  18.219  0.00  0.00    +0.000 C 
ATOM      3  O   UNL     1       3.322   3.576  17.521  0.00  0.00    +0.000 OA
ATOM      4  N   UNL     1       2.027   4.117  19.306  0.00  0.00    +0.000 N 
ATOM      5  H   UNL     1       1.382   4.824  19.642  0.00  0.00    +0.000 HD
ENDROOT
BRANCH   1  10
ATOM      6  C   UNL     1       1.494   9.122  18.922  0.00  0.00    +0.000 A 
ATOM      7  C   UNL     1       1.218   8.916  20.278  0.00  0.00    +0.000 A 
ATOM      8  C   UNL     1       1.598   7.722  20.891  0.00  0.00    +0.000 A 
ATOM      9  C   UNL     1       2.209   6.705  20.142  0.00  0.00    +0.000 A 
ATOM     10  C   UNL     1       2.419   6.855  18.769  0.00  0.00    +0.000 A 
ATOM     11  C   UNL     1       2.087   8.081  18.168  0.00  0.00    +0.000 A 
BRANCH   6  12
ATOM     12  C   UNL     1       1.201  10.472  18.305  0.00  0.00    +0.000 C 
BRANCH  12  14
ATOM     13  N   UNL     1      -0.996  10.396  17.261  0.00  0.00    +0.000 N 
ATOM     14  C   UNL     1      -0.263  10.864  18.334  0.00  0.00    +0.000 C 
ATOM     15  O   UNL     1      -0.738  11.566  19.223  0.00  0.00    +0.000 OA
ATOM     16  H   UNL     1      -0.569   9.731  16.628  0.00  0.00    +0.000 HD
BRANCH  13  18
ATOM     17  C   UNL     1      -2.786  10.886  15.666  0.00  0.00    +0.000 C 
ATOM     18  C   UNL     1      -2.418  10.678  17.132  0.00  0.00    +0.000 C 
ATOM     19  C   UNL     1      -3.259   9.569  17.758  0.00  0.00    +0.000 C 
ENDBRANCH  13  18
ENDBRANCH  12  14
ENDBRANCH   6  12
ENDBRANCH   1  10
BRANCH   4  20
ATOM     20  C   UNL     1       1.785   2.724  19.661  0.00  0.00    +0.000 C 
ATOM     21  C   UNL     1       1.578   2.574  21.163  0.00  0.00    +0.000 C 
ATOM     22  C   UNL     1       0.598   2.146  18.889  0.00  0.00    +0.000 C 
ENDBRANCH   4  20
BRANCH   1  23
ATOM     23  C   UNL     1       3.987   6.168  16.947  0.00  0.00    +0.000 C 
BRANCH  23  24
ATOM     24  C   UNL     1       5.418   6.279  17.461  0.00  0.00    +0.000 A 
ATOM     25  C   UNL     1       5.869   5.500  18.545  0.00  0.00    +0.000 A 
ATOM     26  C   UNL     1       7.104   5.760  19.147  0.00  0.00    +0.000 A 
ATOM     27  C   UNL     1       7.899   6.783  18.651  0.00  0.00    +0.000 A 
ATOM     28  F   UNL     1       9.034   7.111  19.285  0.00  0.00    +0.000 F 
ATOM     29  C   UNL     1       7.521   7.492  17.518  0.00  0.00    +0.000 A 
ATOM     30  C   UNL     1       6.290   7.229  16.912  0.00  0.00    +0.000 A 
ENDBRANCH  23  24
ENDBRANCH   1  23
TORSDOF 7
ENDMDL
MODEL 5
REMARK VINA RESULT:      -7.8      2.606      4.865
REMARK  Name = 
REMARK  11 active torsions:
REMARK  status: ('A' for Active; 'I' for Inactive)
REMARK    1  A    between atoms: C_1  and  C_2
REMARK    2  A    between atoms: C_2  and  C_3
REMARK    3  A    between atoms: C_2  and  N_4
REMARK    4  A    between atoms: C_5  and  C_7
REMARK    5  A    between atoms: C_7  and  C_8
REMARK    6  A    between atoms: C_12  and  N_13
REMARK    7  A    between atoms: N_13  and  C_14
REMARK    8  A    between atoms: C_14  and  C_15
REMARK    9  A    between atoms: N_24  and  C_25
REMARK   10  A    between atoms: C_25  and  C_26
REMARK   11  A    between atoms: C_25  and  C_27
REMARK                            x       y       z     vdW  Elec       q    Type
REMARK                         _______ _______ _______ _____ _____    ______ ____
ROOT
ATOM      1  N   UNL     1       3.879   5.652  18.911  0.00  0.00    +0.000 N 
ATOM      2  C   UNL     1       3.507   4.337  19.188  0.00  0.00    +0.000 C 
ATOM      3  O   UNL     1       4.293   3.396  19.120  0.00  0.00    +0.000 OA
ATOM      4  N   UNL     1       2.204   4.148  19.597  0.00  0.00    +0.000 N 
ATOM      5  H   UNL     1       1.530   4.859  19.334  0.00  0.00    +0.000 HD
ENDROOT
BRANCH   1  10
ATOM      6  C   UNL     1       1.417   8.198  20.178  0.00  0.00    +0.000 A 
ATOM      7  C   UNL     1       1.268   9.005  19.045  0.00  0.00    +0.000 A 
ATOM      8  C   UNL     1       1.919   8.665  17.859  0.00  0.00    +0.000 A 
ATOM      9  C   UNL     1       2.765   7.547  17.811  0.00  0.00    +0.000 A 
ATOM     10  C   UNL     1       2.995   6.774  18.952  0.00  0.00    +0.000 A 
ATOM     11  C   UNL     1       2.293   7.086  20.128  0.00  0.00    +0.000 A 
BRANCH   6  12
ATOM     12  C   UNL     1       0.599   8.501  21.414  0.00  0.00    +0.000 C 
BRANCH  12  14
ATOM     13  N   UNL     1      -0.841  10.416  21.841  0.00  0.00    +0.000 N 
ATOM     14  C   UNL     1       0.463   9.979  21.723  0.00  0.00    +0.000 C 
ATOM     15  O   UNL     1       1.437  10.720  21.826  0.00  0.00    +0.000 OA
ATOM     16  H   UNL     1      -1.588   9.733  21.858  0.00  0.00    +0.000 HD
BRANCH  13  18
ATOM     17  C   UNL     1      -1.548  12.545  20.862  0.00  0.00    +0.000 C 
ATOM     18  C   UNL     1      -1.152  11.806  22.137  0.00  0.00    +0.000 C 
ATOM     19  C   UNL     1      -2.246  11.913  23.196  0.00  0.00    +0.000 C 
ENDBRANCH  13  18
ENDBRANCH  12  14
ENDBRANCH   6  12
ENDBRANCH   1  10
BRANCH   4  20
ATOM     20  C   UNL     1       1.718   2.823  19.962  0.00  0.00    +0.000 C 
ATOM     21  C   UNL     1       1.239   2.799  21.408  0.00  0.00    +0.000 C 
ATOM     22  C   UNL     1       0.612   2.351  19.017  0.00  0.00    +0.000 C 
ENDBRANCH   4  20
BRANCH   1  23
ATOM     23  C   UNL     1       5.313   5.890  18.641  0.00  0.00    +0.000 C 
BRANCH  23  24
ATOM     24  C   UNL     1       5.753   5.414  17.262  0.00  0.00    +0.000 A 
ATOM     25  C   UNL     1       6.952   4.697  17.083  0.00  0.00    +0.000 A 
ATOM     26  C   UNL     1       7.455   4.455  15.801  0.00  0.00    +0.000 A 
ATOM     27  C   UNL     1       6.749   4.909  14.697  0.00  0.00    +0.000 A 
ATOM     28  F   UNL     1       7.274   4.777  13.471  0.00  0.00    +0.000 F 
ATOM     29  C   UNL     1       5.513   5.524  14.847  0.00  0.00    +0.000 A 
ATOM     30  C   UNL     1       5.005   5.761  16.128  0.00  0.00    +0.000 A 
ENDBRANCH  23  24
ENDBRANCH   1  23
TORSDOF 7
ENDMDL
MODEL 6
REMARK VINA RESULT:      -7.6      3.870      8.070
REMARK  Name = 
REMARK  11 active torsions:
REMARK  status: ('A' for Active; 'I' for Inactive)
REMARK    1  A    between atoms: C_1  and  C_2
REMARK    2  A    between atoms: C_2  and  C_3
REMARK    3  A    between atoms: C_2  and  N_4
REMARK    4  A    between atoms: C_5  and  C_7
REMARK    5  A    between atoms: C_7  and  C_8
REMARK    6  A    between atoms: C_12  and  N_13
REMARK    7  A    between atoms: N_13  and  C_14
REMARK    8  A    between atoms: C_14  and  C_15
REMARK    9  A    between atoms: N_24  and  C_25
REMARK   10  A    between atoms: C_25  and  C_26
REMARK   11  A    between atoms: C_25  and  C_27
REMARK                            x       y       z     vdW  Elec       q    Type
REMARK                         _______ _______ _______ _____ _____    ______ ____
ROOT
ATOM      1  N   UNL     1      -0.370  11.246  19.485  0.00  0.00    +0.000 N 
ATOM      2  C   UNL     1       0.183  12.515  19.314  0.00  0.00    +0.000 C 
ATOM      3  O   UNL     1      -0.493  13.503  19.043  0.00  0.00    +0.000 OA
ATOM      4  N   UNL     1       1.543  12.616  19.517  0.00  0.00    +0.000 N 
ATOM      5  H   UNL     1       2.090  11.768  19.415  0.00  0.00    +0.000 HD
ENDROOT
BRANCH   1  10
ATOM      6  C   UNL     1       1.917   8.291  19.063  0.00  0.00    +0.000 A 
ATOM      7  C   UNL     1       1.880   7.744  20.350  0.00  0.00    +0.000 A 
ATOM      8  C   UNL     1       1.050   8.307  21.320  0.00  0.00    +0.000 A 
ATOM      9  C   UNL     1       0.293   9.451  21.027  0.00  0.00    +0.000 A 
ATOM     10  C   UNL     1       0.378  10.064  19.775  0.00  0.00    +0.000 A 
ATOM     11  C   UNL     1       1.170   9.460  18.784  0.00  0.00    +0.000 A 
BRANCH   6  12
ATOM     12  C   UNL     1       2.714   7.589  17.985  0.00  0.00    +0.000 C 
BRANCH  12  14
ATOM     13  N   UNL     1       2.109   5.243  18.224  0.00  0.00    +0.000 N 
ATOM     14  C   UNL     1       3.124   6.173  18.338  0.00  0.00    +0.000 C 
ATOM     15  O   UNL     1       4.257   5.893  18.723  0.00  0.00    +0.000 OA
ATOM     16  H   UNL     1       1.236   5.522  17.794  0.00  0.00    +0.000 HD
BRANCH  13  18
ATOM     17  C   UNL     1       1.132   3.258  19.268  0.00  0.00    +0.000 C 
ATOM     18  C   UNL     1       2.331   3.836  18.522  0.00  0.00    +0.000 C 
ATOM     19  C   UNL     1       2.622   3.043  17.252  0.00  0.00    +0.000 C 
ENDBRANCH  13  18
ENDBRANCH  12  14
ENDBRANCH   6  12
ENDBRANCH   1  10
BRANCH   4  20
ATOM     20  C   UNL     1       2.222  13.902  19.415  0.00  0.00    +0.000 C 
ATOM     21  C   UNL     1       3.133  14.132  20.615  0.00  0.00    +0.000 C 
ATOM     22  C   UNL     1       3.007  14.021  18.108  0.00  0.00    +0.000 C 
ENDBRANCH   4  20
BRANCH   1  23
ATOM     23  C   UNL     1      -1.845  11.157  19.442  0.00  0.00    +0.000 C 
BRANCH  23  24
ATOM     24  C   UNL     1      -2.398  10.999  18.030  0.00  0.00    +0.000 A 
ATOM     25  C   UNL     1      -3.577  11.656  17.628  0.00  0.00    +0.000 A 
ATOM     26  C   UNL     1      -4.193  11.338  16.413  0.00  0.00    +0.000 A 
ATOM     27  C   UNL     1      -3.618  10.380  15.590  0.00  0.00    +0.000 A 
ATOM     28  F   UNL     1      -4.255   9.991  14.476  0.00  0.00    +0.000 F 
ATOM     29  C   UNL     1      -2.400   9.799  15.918  0.00  0.00    +0.000 A 
ATOM     30  C   UNL     1      -1.780  10.120  17.129  0.00  0.00    +0.000 A 
ENDBRANCH  23  24
ENDBRANCH   1  23
TORSDOF 7
ENDMDL
MODEL 7
REMARK VINA RESULT:      -7.6      2.565      4.858
REMARK  Name = 
REMARK  11 active torsions:
REMARK  status: ('A' for Active; 'I' for Inactive)
REMARK    1  A    between atoms: C_1  and  C_2
REMARK    2  A    between atoms: C_2  and  C_3
REMARK    3  A    between atoms: C_2  and  N_4
REMARK    4  A    between atoms: C_5  and  C_7
REMARK    5  A    between atoms: C_7  and  C_8
REMARK    6  A    between atoms: C_12  and  N_13
REMARK    7  A    between atoms: N_13  and  C_14
REMARK    8  A    between atoms: C_14  and  C_15
REMARK    9  A    between atoms: N_24  and  C_25
REMARK   10  A    between atoms: C_25  and  C_26
REMARK   11  A    between atoms: C_25  and  C_27
REMARK                            x       y       z     vdW  Elec       q    Type
REMARK                         _______ _______ _______ _____ _____    ______ ____
ROOT
ATOM      1  N   UNL     1       3.536   5.510  19.366  0.00  0.00    +0.000 N 
ATOM      2  C   UNL     1       2.900   4.311  19.682  0.00  0.00    +0.000 C 
ATOM      3  O   UNL     1       3.511   3.258  19.847  0.00  0.00    +0.000 OA
ATOM      4  N   UNL     1       1.534   4.374  19.851  0.00  0.00    +0.000 N 
ATOM      5  H   UNL     1       1.048   5.144  19.404  0.00  0.00    +0.000 HD
ENDROOT
BRANCH   1  10
ATOM      6  C   UNL     1       1.450   8.586  19.948  0.00  0.00    +0.000 A 
ATOM      7  C   UNL     1       1.563   9.218  18.706  0.00  0.00    +0.000 A 
ATOM      8  C   UNL     1       2.260   8.596  17.670  0.00  0.00    +0.000 A 
ATOM      9  C   UNL     1       2.894   7.363  17.884  0.00  0.00    +0.000 A 
ATOM     10  C   UNL     1       2.866   6.752  19.140  0.00  0.00    +0.000 A 
ATOM     11  C   UNL     1       2.114   7.354  20.163  0.00  0.00    +0.000 A 
BRANCH   6  12
ATOM     12  C   UNL     1       0.577   9.206  21.017  0.00  0.00    +0.000 C 
BRANCH  12  14
ATOM     13  N   UNL     1      -0.795  11.040  20.194  0.00  0.00    +0.000 N 
ATOM     14  C   UNL     1       0.366  10.699  20.858  0.00  0.00    +0.000 C 
ATOM     15  O   UNL     1       1.182  11.524  21.262  0.00  0.00    +0.000 OA
ATOM     16  H   UNL     1      -1.474  10.317  19.991  0.00  0.00    +0.000 HD
BRANCH  13  18
ATOM     17  C   UNL     1      -0.722  12.857  18.557  0.00  0.00    +0.000 C 
ATOM     18  C   UNL     1      -1.153  12.430  19.956  0.00  0.00    +0.000 C 
ATOM     19  C   UNL     1      -2.649  12.657  20.163  0.00  0.00    +0.000 C 
ENDBRANCH  13  18
ENDBRANCH  12  14
ENDBRANCH   6  12
ENDBRANCH   1  10
BRANCH   4  20
ATOM     20  C   UNL     1       0.770   3.192  20.231  0.00  0.00    +0.000 C 
ATOM     21  C   UNL     1       0.747   2.172  19.100  0.00  0.00    +0.000 C 
ATOM     22  C   UNL     1       1.311   2.564  21.517  0.00  0.00    +0.000 C 
ENDBRANCH   4  20
BRANCH   1  23
ATOM     23  C   UNL     1       5.014   5.492  19.353  0.00  0.00    +0.000 C 
BRANCH  23  24
ATOM     24  C   UNL     1       5.601   5.237  17.970  0.00  0.00    +0.000 A 
ATOM     25  C   UNL     1       6.725   5.949  17.508  0.00  0.00    +0.000 A 
ATOM     26  C   UNL     1       7.122   5.869  16.170  0.00  0.00    +0.000 A 
ATOM     27  C   UNL     1       6.410   5.058  15.297  0.00  0.00    +0.000 A 
ATOM     28  F   UNL     1       6.715   5.056  13.992  0.00  0.00    +0.000 F 
ATOM     29  C   UNL     1       5.365   4.266  15.755  0.00  0.00    +0.000 A 
ATOM     30  C   UNL     1       4.971   4.341  17.094  0.00  0.00    +0.000 A 
ENDBRANCH  23  24
ENDBRANCH   1  23
TORSDOF 7
ENDMDL
MODEL 8
REMARK VINA RESULT:      -7.5      2.830      4.982
REMARK  Name = 
REMARK  11 active torsions:
REMARK  status: ('A' for Active; 'I' for Inactive)
REMARK    1  A    between atoms: C_1  and  C_2
REMARK    2  A    between atoms: C_2  and  C_3
REMARK    3  A    between atoms: C_2  and  N_4
REMARK    4  A    between atoms: C_5  and  C_7
REMARK    5  A    between atoms: C_7  and  C_8
REMARK    6  A    between atoms: C_12  and  N_13
REMARK    7  A    between atoms: N_13  and  C_14
REMARK    8  A    between atoms: C_14  and  C_15
REMARK    9  A    between atoms: N_24  and  C_25
REMARK   10  A    between atoms: C_25  and  C_26
REMARK   11  A    between atoms: C_25  and  C_27
REMARK                            x       y       z     vdW  Elec       q    Type
REMARK                         _______ _______ _______ _____ _____    ______ ____
ROOT
ATOM      1  N   UNL     1       4.191   4.992  18.707  0.00  0.00    +0.000 N 
ATOM      2  C   UNL     1       3.683   3.757  19.107  0.00  0.00    +0.000 C 
ATOM      3  O   UNL     1       4.348   2.724  19.075  0.00  0.00    +0.000 OA
ATOM      4  N   UNL     1       2.394   3.758  19.593  0.00  0.00    +0.000 N 
ATOM      5  H   UNL     1       1.793   4.524  19.308  0.00  0.00    +0.000 HD
ENDROOT
BRANCH   1  10
ATOM      6  C   UNL     1       1.965   7.809  19.830  0.00  0.00    +0.000 A 
ATOM      7  C   UNL     1       2.002   8.638  18.705  0.00  0.00    +0.000 A 
ATOM      8  C   UNL     1       2.697   8.231  17.565  0.00  0.00    +0.000 A 
ATOM      9  C   UNL     1       3.402   7.018  17.560  0.00  0.00    +0.000 A 
ATOM     10  C   UNL     1       3.448   6.214  18.701  0.00  0.00    +0.000 A 
ATOM     11  C   UNL     1       2.701   6.599  19.827  0.00  0.00    +0.000 A 
BRANCH   6  12
ATOM     12  C   UNL     1       1.097   8.198  21.007  0.00  0.00    +0.000 C 
BRANCH  12  14
ATOM     13  N   UNL     1       0.767  10.584  21.357  0.00  0.00    +0.000 N 
ATOM     14  C   UNL     1       0.258   9.440  20.776  0.00  0.00    +0.000 C 
ATOM     15  O   UNL     1      -0.799   9.411  20.150  0.00  0.00    +0.000 OA
ATOM     16  H   UNL     1       1.696  10.559  21.759  0.00  0.00    +0.000 HD
BRANCH  13  18
ATOM     17  C   UNL     1      -0.763  12.137  22.470  0.00  0.00    +0.000 C 
ATOM     18  C   UNL     1       0.088  11.865  21.233  0.00  0.00    +0.000 C 
ATOM     19  C   UNL     1       1.084  12.996  20.993  0.00  0.00    +0.000 C 
ENDBRANCH  13  18
ENDBRANCH  12  14
ENDBRANCH   6  12
ENDBRANCH   1  10
BRANCH   4  20
ATOM     20  C   UNL     1       1.777   2.533  20.087  0.00  0.00    +0.000 C 
ATOM     21  C   UNL     1       1.332   2.693  21.535  0.00  0.00    +0.000 C 
ATOM     22  C   UNL     1       0.605   2.099  19.205  0.00  0.00    +0.000 C 
ENDBRANCH   4  20
BRANCH   1  23
ATOM     23  C   UNL     1       5.624   5.034  18.348  0.00  0.00    +0.000 C 
BRANCH  23  24
ATOM     24  C   UNL     1       5.872   4.940  16.847  0.00  0.00    +0.000 A 
ATOM     25  C   UNL     1       5.023   4.190  16.010  0.00  0.00    +0.000 A 
ATOM     26  C   UNL     1       5.376   3.931  14.682  0.00  0.00    +0.000 A 
ATOM     27  C   UNL     1       6.566   4.441  14.183  0.00  0.00    +0.000 A 
ATOM     28  F   UNL     1       6.966   4.111  12.947  0.00  0.00    +0.000 F 
ATOM     29  C   UNL     1       7.364   5.271  14.959  0.00  0.00    +0.000 A 
ATOM     30  C   UNL     1       7.010   5.536  16.285  0.00  0.00    +0.000 A 
ENDBRANCH  23  24
ENDBRANCH   1  23
TORSDOF 7
ENDMDL
MODEL 9
REMARK VINA RESULT:      -7.4      2.045      2.515
REMARK  Name = 
REMARK  11 active torsions:
REMARK  status: ('A' for Active; 'I' for Inactive)
REMARK    1  A    between atoms: C_1  and  C_2
REMARK    2  A    between atoms: C_2  and  C_3
REMARK    3  A    between atoms: C_2  and  N_4
REMARK    4  A    between atoms: C_5  and  C_7
REMARK    5  A    between atoms: C_7  and  C_8
REMARK    6  A    between atoms: C_12  and  N_13
REMARK    7  A    between atoms: N_13  and  C_14
REMARK    8  A    between atoms: C_14  and  C_15
REMARK    9  A    between atoms: N_24  and  C_25
REMARK   10  A    between atoms: C_25  and  C_26
REMARK   11  A    between atoms: C_25  and  C_27
REMARK                            x       y       z     vdW  Elec       q    Type
REMARK                         _______ _______ _______ _____ _____    ______ ____
ROOT
ATOM      1  N   UNL     1       4.580   5.714  17.312  0.00  0.00    +0.000 N 
ATOM      2  C   UNL     1       5.946   5.983  17.226  0.00  0.00    +0.000 C 
ATOM      3  O   UNL     1       6.720   5.286  16.576  0.00  0.00    +0.000 OA
ATOM      4  N   UNL     1       6.384   7.116  17.878  0.00  0.00    +0.000 N 
ATOM      5  H   UNL     1       5.810   7.462  18.639  0.00  0.00    +0.000 HD
ENDROOT
BRANCH   1  10
ATOM      6  C   UNL     1       2.213   8.455  18.327  0.00  0.00    +0.000 A 
ATOM      7  C   UNL     1       1.781   7.982  19.571  0.00  0.00    +0.000 A 
ATOM      8  C   UNL     1       2.324   6.808  20.094  0.00  0.00    +0.000 A 
ATOM      9  C   UNL     1       3.263   6.071  19.356  0.00  0.00    +0.000 A 
ATOM     10  C   UNL     1       3.646   6.480  18.076  0.00  0.00    +0.000 A 
ATOM     11  C   UNL     1       3.141   7.692  17.578  0.00  0.00    +0.000 A 
BRANCH   6  12
ATOM     12  C   UNL     1       1.718   9.797  17.835  0.00  0.00    +0.000 C 
BRANCH  12  14
ATOM     13  N   UNL     1      -0.699  10.065  17.725  0.00  0.00    +0.000 N 
ATOM     14  C   UNL     1       0.434  10.265  18.490  0.00  0.00    +0.000 C 
ATOM     15  O   UNL     1       0.418  10.804  19.594  0.00  0.00    +0.000 OA
ATOM     16  H   UNL     1      -0.627   9.515  16.879  0.00  0.00    +0.000 HD
BRANCH  13  18
ATOM     17  C   UNL     1      -2.243  11.946  17.978  0.00  0.00    +0.000 C 
ATOM     18  C   UNL     1      -2.017  10.455  18.204  0.00  0.00    +0.000 C 
ATOM     19  C   UNL     1      -3.112   9.626  17.537  0.00  0.00    +0.000 C 
ENDBRANCH  13  18
ENDBRANCH  12  14
ENDBRANCH   6  12
ENDBRANCH   1  10
BRANCH   4  20
ATOM     20  C   UNL     1       7.782   7.523  17.815  0.00  0.00    +0.000 C 
ATOM     21  C   UNL     1       7.902   9.035  17.667  0.00  0.00    +0.000 C 
ATOM     22  C   UNL     1       8.565   7.035  19.035  0.00  0.00    +0.000 C 
ENDBRANCH   4  20
BRANCH   1  23
ATOM     23  C   UNL     1       4.071   4.604  16.478  0.00  0.00    +0.000 C 
BRANCH  23  24
ATOM     24  C   UNL     1       3.234   3.600  17.260  0.00  0.00    +0.000 A 
ATOM     25  C   UNL     1       1.852   3.790  17.452  0.00  0.00    +0.000 A 
ATOM     26  C   UNL     1       1.136   2.987  18.346  0.00  0.00    +0.000 A 
ATOM     27  C   UNL     1       1.798   1.977  19.030  0.00  0.00    +0.000 A 
ATOM     28  F   UNL     1       1.148   1.272  19.966  0.00  0.00    +0.000 F 
ATOM     29  C   UNL     1       3.135   1.704  18.776  0.00  0.00    +0.000 A 
ATOM     30  C   UNL     1       3.850   2.502  17.878  0.00  0.00    +0.000 A 
ENDBRANCH  23  24
ENDBRANCH   1  23
TORSDOF 7
ENDMDL
