MODEL 1
REMARK VINA RESULT:      -7.9      0.000      0.000
REMARK  Name = 
REMARK  5 active torsions:
REMARK  status: ('A' for Active; 'I' for Inactive)
REMARK    1  A    between atoms: C_1  and  O_2
REMARK    2  A    between atoms: O_2  and  C_3
REMARK    3  A    between atoms: C_3  and  C_4
REMARK    4  A    between atoms: C_3  and  C_15
REMARK    5  A    between atoms: C_9  and  C_10
REMARK                            x       y       z     vdW  Elec       q    Type
REMARK                         _______ _______ _______ _____ _____    ______ ____
ROOT
ATOM      1  C   UNL     1       3.731   5.182  17.393  0.00  0.00    +0.000 C 
ATOM      2  O   UNL     1       3.887   3.971  17.271  0.00  0.00    +0.000 OA
ATOM      3  N   UNL     1       4.481   6.142  16.743  0.00  0.00    +0.000 N 
ATOM      4  C   UNL     1       5.541   5.750  15.935  0.00  0.00    +0.000 A 
ATOM      5  C   UNL     1       5.470   4.893  14.817  0.00  0.00    +0.000 A 
ATOM      6  C   UNL     1       6.763   4.764  14.380  0.00  0.00    +0.000 A 
ATOM      7  N   UNL     1       7.515   5.510  15.240  0.00  0.00    +0.000 N 
ATOM      8  N   UNL     1       6.778   6.220  16.119  0.00  0.00    +0.000 NA
ATOM      9  H   UNL     1       4.631   7.022  17.226  0.00  0.00    +0.000 HD
ATOM     10  H   UNL     1       8.530   5.592  15.270  0.00  0.00    +0.000 HD
ENDROOT
BRANCH   6  11
ATOM     11  C   UNL     1       7.224   3.916  13.215  0.00  0.00    +0.000 C 
ATOM     12  C   UNL     1       6.220   3.449  12.182  0.00  0.00    +0.000 C 
ATOM     13  C   UNL     1       7.183   4.531  11.831  0.00  0.00    +0.000 C 
ENDBRANCH   6  11
BRANCH   1  14
ATOM     14  C   UNL     1       2.600   5.730  18.328  0.00  0.00    +0.000 C 
BRANCH  14  15
ATOM     15  C   UNL     1       2.113   4.709  19.357  0.00  0.00    +0.000 A 
ATOM     16  C   UNL     1       2.612   4.715  20.667  0.00  0.00    +0.000 A 
ATOM     17  C   UNL     1       2.195   3.751  21.593  0.00  0.00    +0.000 A 
ATOM     18  C   UNL     1       1.265   2.779  21.229  0.00  0.00    +0.000 A 
ATOM     19  C   UNL     1       0.764   2.754  19.932  0.00  0.00    +0.000 A 
ATOM     20  C   UNL     1       1.187   3.706  19.004  0.00  0.00    +0.000 A 
ENDBRANCH  14  15
BRANCH  14  22
ATOM     21  C   UNL     1       2.199   8.078  18.655  0.00  0.00    +0.000 C 
ATOM     22  O   UNL     1       2.900   6.921  19.057  0.00  0.00    +0.000 OA
ENDBRANCH  14  22
ENDBRANCH   1  14
TORSDOF 4
ENDMDL
MODEL 2
REMARK VINA RESULT:      -7.9      0.085      1.081
REMARK  Name = 
REMARK  5 active torsions:
REMARK  status: ('A' for Active; 'I' for Inactive)
REMARK    1  A    between atoms: C_1  and  O_2
REMARK    2  A    between atoms: O_2  and  C_3
REMARK    3  A    between atoms: C_3  and  C_4
REMARK    4  A    between atoms: C_3  and  C_15
REMARK    5  A    between atoms: C_9  and  C_10
REMARK                            x       y       z     vdW  Elec       q    Type
REMARK                         _______ _______ _______ _____ _____    ______ ____
ROOT
ATOM      1  C   UNL     1       3.778   5.119  17.415  0.00  0.00    +0.000 C 
ATOM      2  O   UNL     1       3.950   3.910  17.298  0.00  0.00    +0.000 OA
ATOM      3  N   UNL     1       4.500   6.086  16.743  0.00  0.00    +0.000 N 
ATOM      4  C   UNL     1       5.550   5.705  15.916  0.00  0.00    +0.000 A 
ATOM      5  C   UNL     1       5.469   4.838  14.806  0.00  0.00    +0.000 A 
ATOM      6  C   UNL     1       6.754   4.726  14.343  0.00  0.00    +0.000 A 
ATOM      7  N   UNL     1       7.512   5.490  15.182  0.00  0.00    +0.000 N 
ATOM      8  N   UNL     1       6.782   6.195  16.072  0.00  0.00    +0.000 NA
ATOM      9  H   UNL     1       4.646   6.972  17.216  0.00  0.00    +0.000 HD
ATOM     10  H   UNL     1       8.526   5.588  15.191  0.00  0.00    +0.000 HD
ENDROOT
BRANCH   6  11
ATOM     11  C   UNL     1       7.204   3.878  13.174  0.00  0.00    +0.000 C 
ATOM     12  C   UNL     1       6.199   3.445  12.128  0.00  0.00    +0.000 C 
ATOM     13  C   UNL     1       7.191   4.506  11.796  0.00  0.00    +0.000 C 
ENDBRANCH   6  11
BRANCH   1  14
ATOM     14  C   UNL     1       2.658   5.657  18.369  0.00  0.00    +0.000 C 
BRANCH  14  15
ATOM     15  C   UNL     1       2.177   4.622  19.387  0.00  0.00    +0.000 A 
ATOM     16  C   UNL     1       1.197   3.681  19.046  0.00  0.00    +0.000 A 
ATOM     17  C   UNL     1       0.729   2.763  19.994  0.00  0.00    +0.000 A 
ATOM     18  C   UNL     1       1.243   2.764  21.290  0.00  0.00    +0.000 A 
ATOM     19  C   UNL     1       2.213   3.695  21.647  0.00  0.00    +0.000 A 
ATOM     20  C   UNL     1       2.671   4.618  20.707  0.00  0.00    +0.000 A 
ENDBRANCH  14  15
BRANCH  14  22
ATOM     21  C   UNL     1       2.204   7.979  18.798  0.00  0.00    +0.000 C 
ATOM     22  O   UNL     1       2.969   6.835  19.113  0.00  0.00    +0.000 OA
ENDBRANCH  14  22
ENDBRANCH   1  14
TORSDOF 4
ENDMDL
MODEL 3
REMARK VINA RESULT:      -7.5      1.969      7.161
REMARK  Name = 
REMARK  5 active torsions:
REMARK  status: ('A' for Active; 'I' for Inactive)
REMARK    1  A    between atoms: C_1  and  O_2
REMARK    2  A    between atoms: O_2  and  C_3
REMARK    3  A    between atoms: C_3  and  C_4
REMARK    4  A    between atoms: C_3  and  C_15
REMARK    5  A    between atoms: C_9  and  C_10
REMARK                            x       y       z     vdW  Elec       q    Type
REMARK                         _______ _______ _______ _____ _____    ______ ____
ROOT
ATOM      1  C   UNL     1       6.012   4.709  17.213  0.00  0.00    +0.000 C 
ATOM      2  O   UNL     1       6.277   4.165  18.280  0.00  0.00    +0.000 OA
ATOM      3  N   UNL     1       4.734   4.957  16.751  0.00  0.00    +0.000 N 
ATOM      4  C   UNL     1       3.643   4.515  17.488  0.00  0.00    +0.000 A 
ATOM      5  C   UNL     1       3.343   4.852  18.825  0.00  0.00    +0.000 A 
ATOM      6  C   UNL     1       2.210   4.142  19.130  0.00  0.00    +0.000 A 
ATOM      7  N   UNL     1       1.913   3.429  18.005  0.00  0.00    +0.000 N 
ATOM      8  N   UNL     1       2.700   3.736  16.952  0.00  0.00    +0.000 NA
ATOM      9  H   UNL     1       4.589   4.941  15.747  0.00  0.00    +0.000 HD
ATOM     10  H   UNL     1       1.180   2.733  17.884  0.00  0.00    +0.000 HD
ENDROOT
BRANCH   6  11
ATOM     11  C   UNL     1       1.501   4.137  20.466  0.00  0.00    +0.000 C 
ATOM     12  C   UNL     1       1.122   2.820  21.111  0.00  0.00    +0.000 C 
ATOM     13  C   UNL     1       2.257   3.609  21.668  0.00  0.00    +0.000 C 
ENDBRANCH   6  11
BRANCH   1  14
ATOM     14  C   UNL     1       7.171   5.194  16.277  0.00  0.00    +0.000 C 
BRANCH  14  15
ATOM     15  C   UNL     1       6.981   4.791  14.814  0.00  0.00    +0.000 A 
ATOM     16  C   UNL     1       6.070   3.787  14.458  0.00  0.00    +0.000 A 
ATOM     17  C   UNL     1       5.931   3.391  13.122  0.00  0.00    +0.000 A 
ATOM     18  C   UNL     1       6.689   4.002  12.123  0.00  0.00    +0.000 A 
ATOM     19  C   UNL     1       7.601   4.996  12.459  0.00  0.00    +0.000 A 
ATOM     20  C   UNL     1       7.750   5.382  13.791  0.00  0.00    +0.000 A 
ENDBRANCH  14  15
BRANCH  14  22
ATOM     21  C   UNL     1       7.475   7.216  17.541  0.00  0.00    +0.000 C 
ATOM     22  O   UNL     1       7.440   6.596  16.273  0.00  0.00    +0.000 OA
ENDBRANCH  14  22
ENDBRANCH   1  14
TORSDOF 4
ENDMDL
MODEL 4
REMARK VINA RESULT:      -7.4      1.967      7.110
REMARK  Name = 
REMARK  5 active torsions:
REMARK  status: ('A' for Active; 'I' for Inactive)
REMARK    1  A    between atoms: C_1  and  O_2
REMARK    2  A    between atoms: O_2  and  C_3
REMARK    3  A    between atoms: C_3  and  C_4
REMARK    4  A    between atoms: C_3  and  C_15
REMARK    5  A    between atoms: C_9  and  C_10
REMARK                            x       y       z     vdW  Elec       q    Type
REMARK                         _______ _______ _______ _____ _____    ______ ____
ROOT
ATOM      1  C   UNL     1       5.933   4.677  17.195  0.00  0.00    +0.000 C 
ATOM      2  O   UNL     1       6.186   4.108  18.252  0.00  0.00    +0.000 OA
ATOM      3  N   UNL     1       4.661   4.940  16.727  0.00  0.00    +0.000 N 
ATOM      4  C   UNL     1       3.561   4.485  17.443  0.00  0.00    +0.000 A 
ATOM      5  C   UNL     1       3.249   4.793  18.784  0.00  0.00    +0.000 A 
ATOM      6  C   UNL     1       2.111   4.080  19.061  0.00  0.00    +0.000 A 
ATOM      7  N   UNL     1       1.822   3.394  17.917  0.00  0.00    +0.000 N 
ATOM      8  N   UNL     1       2.621   3.723  16.880  0.00  0.00    +0.000 NA
ATOM      9  H   UNL     1       4.526   4.948  15.721  0.00  0.00    +0.000 HD
ATOM     10  H   UNL     1       1.088   2.704  17.773  0.00  0.00    +0.000 HD
ENDROOT
BRANCH   6  11
ATOM     11  C   UNL     1       1.388   4.047  20.390  0.00  0.00    +0.000 C 
ATOM     12  C   UNL     1       1.203   2.730  21.112  0.00  0.00    +0.000 C 
ATOM     13  C   UNL     1       2.195   3.714  21.628  0.00  0.00    +0.000 C 
ENDBRANCH   6  11
BRANCH   1  14
ATOM     14  C   UNL     1       7.103   5.178  16.283  0.00  0.00    +0.000 C 
BRANCH  14  15
ATOM     15  C   UNL     1       6.965   4.744  14.823  0.00  0.00    +0.000 A 
ATOM     16  C   UNL     1       7.737   5.345  13.818  0.00  0.00    +0.000 A 
ATOM     17  C   UNL     1       7.576   4.974  12.478  0.00  0.00    +0.000 A 
ATOM     18  C   UNL     1       6.653   3.990  12.124  0.00  0.00    +0.000 A 
ATOM     19  C   UNL     1       5.875   3.388  13.107  0.00  0.00    +0.000 A 
ATOM     20  C   UNL     1       6.026   3.765  14.441  0.00  0.00    +0.000 A 
ENDBRANCH  14  15
BRANCH  14  22
ATOM     21  C   UNL     1       7.554   7.192  17.517  0.00  0.00    +0.000 C 
ATOM     22  O   UNL     1       7.332   6.588  16.260  0.00  0.00    +0.000 OA
ENDBRANCH  14  22
ENDBRANCH   1  14
TORSDOF 4
ENDMDL
MODEL 5
REMARK VINA RESULT:      -7.2      2.416      7.175
REMARK  Name = 
REMARK  5 active torsions:
REMARK  status: ('A' for Active; 'I' for Inactive)
REMARK    1  A    between atoms: C_1  and  O_2
REMARK    2  A    between atoms: O_2  and  C_3
REMARK    3  A    between atoms: C_3  and  C_4
REMARK    4  A    between atoms: C_3  and  C_15
REMARK    5  A    between atoms: C_9  and  C_10
REMARK                            x       y       z     vdW  Elec       q    Type
REMARK                         _______ _______ _______ _____ _____    ______ ____
ROOT
ATOM      1  C   UNL     1       5.901   4.993  17.147  0.00  0.00    +0.000 C 
ATOM      2  O   UNL     1       4.965   5.782  17.233  0.00  0.00    +0.000 OA
ATOM      3  N   UNL     1       5.962   3.770  17.785  0.00  0.00    +0.000 N 
ATOM      4  C   UNL     1       4.940   3.397  18.649  0.00  0.00    +0.000 A 
ATOM      5  C   UNL     1       3.571   3.284  18.327  0.00  0.00    +0.000 A 
ATOM      6  C   UNL     1       2.952   2.942  19.502  0.00  0.00    +0.000 A 
ATOM      7  N   UNL     1       3.946   2.889  20.435  0.00  0.00    +0.000 N 
ATOM      8  N   UNL     1       5.181   3.040  19.912  0.00  0.00    +0.000 NA
ATOM      9  H   UNL     1       6.879   3.431  18.058  0.00  0.00    +0.000 HD
ATOM     10  H   UNL     1       3.852   2.736  21.438  0.00  0.00    +0.000 HD
ENDROOT
BRANCH   6  11
ATOM     11  C   UNL     1       1.466   2.731  19.692  0.00  0.00    +0.000 C 
ATOM     12  C   UNL     1       0.871   2.787  21.082  0.00  0.00    +0.000 C 
ATOM     13  C   UNL     1       0.634   3.915  20.138  0.00  0.00    +0.000 C 
ENDBRANCH   6  11
BRANCH   1  14
ATOM     14  C   UNL     1       7.133   5.343  16.244  0.00  0.00    +0.000 C 
BRANCH  14  15
ATOM     15  C   UNL     1       6.959   4.915  14.786  0.00  0.00    +0.000 A 
ATOM     16  C   UNL     1       5.993   3.965  14.426  0.00  0.00    +0.000 A 
ATOM     17  C   UNL     1       5.867   3.544  13.097  0.00  0.00    +0.000 A 
ATOM     18  C   UNL     1       6.694   4.075  12.108  0.00  0.00    +0.000 A 
ATOM     19  C   UNL     1       7.661   5.014  12.447  0.00  0.00    +0.000 A 
ATOM     20  C   UNL     1       7.796   5.425  13.774  0.00  0.00    +0.000 A 
ENDBRANCH  14  15
BRANCH  14  22
ATOM     21  C   UNL     1       7.691   7.333  17.471  0.00  0.00    +0.000 C 
ATOM     22  O   UNL     1       7.528   6.715  16.213  0.00  0.00    +0.000 OA
ENDBRANCH  14  22
ENDBRANCH   1  14
TORSDOF 4
ENDMDL
MODEL 6
REMARK VINA RESULT:      -7.2      2.414      7.128
REMARK  Name = 
REMARK  5 active torsions:
REMARK  status: ('A' for Active; 'I' for Inactive)
REMARK    1  A    between atoms: C_1  and  O_2
REMARK    2  A    between atoms: O_2  and  C_3
REMARK    3  A    between atoms: C_3  and  C_4
REMARK    4  A    between atoms: C_3  and  C_15
REMARK    5  A    between atoms: C_9  and  C_10
REMARK                            x       y       z     vdW  Elec       q    Type
REMARK                         _______ _______ _______ _____ _____    ______ ____
ROOT
ATOM      1  C   UNL     1       5.898   4.967  17.150  0.00  0.00    +0.000 C 
ATOM      2  O   UNL     1       4.962   5.757  17.225  0.00  0.00    +0.000 OA
ATOM      3  N   UNL     1       5.957   3.751  17.801  0.00  0.00    +0.000 N 
ATOM      4  C   UNL     1       4.931   3.387  18.665  0.00  0.00    +0.000 A 
ATOM      5  C   UNL     1       3.563   3.271  18.340  0.00  0.00    +0.000 A 
ATOM      6  C   UNL     1       2.941   2.941  19.516  0.00  0.00    +0.000 A 
ATOM      7  N   UNL     1       3.932   2.897  20.453  0.00  0.00    +0.000 N 
ATOM      8  N   UNL     1       5.168   3.042  19.933  0.00  0.00    +0.000 NA
ATOM      9  H   UNL     1       6.873   3.415  18.081  0.00  0.00    +0.000 HD
ATOM     10  H   UNL     1       3.833   2.755  21.457  0.00  0.00    +0.000 HD
ENDROOT
BRANCH   6  11
ATOM     11  C   UNL     1       1.454   2.732  19.702  0.00  0.00    +0.000 C 
ATOM     12  C   UNL     1       0.860   2.763  21.095  0.00  0.00    +0.000 C 
ATOM     13  C   UNL     1       0.626   3.910  20.173  0.00  0.00    +0.000 C 
ENDBRANCH   6  11
BRANCH   1  14
ATOM     14  C   UNL     1       7.133   5.308  16.248  0.00  0.00    +0.000 C 
BRANCH  14  15
ATOM     15  C   UNL     1       6.970   4.852  14.797  0.00  0.00    +0.000 A 
ATOM     16  C   UNL     1       7.790   5.369  13.785  0.00  0.00    +0.000 A 
ATOM     17  C   UNL     1       7.609   4.980  12.452  0.00  0.00    +0.000 A 
ATOM     18  C   UNL     1       6.617   4.062  12.114  0.00  0.00    +0.000 A 
ATOM     19  C   UNL     1       5.790   3.542  13.105  0.00  0.00    +0.000 A 
ATOM     20  C   UNL     1       5.961   3.938  14.431  0.00  0.00    +0.000 A 
ENDBRANCH  14  15
BRANCH  14  22
ATOM     21  C   UNL     1       7.631   7.335  17.440  0.00  0.00    +0.000 C 
ATOM     22  O   UNL     1       7.520   6.681  16.194  0.00  0.00    +0.000 OA
ENDBRANCH  14  22
ENDBRANCH   1  14
TORSDOF 4
ENDMDL
MODEL 7
REMARK VINA RESULT:      -7.1      1.453      2.068
REMARK  Name = 
REMARK  5 active torsions:
REMARK  status: ('A' for Active; 'I' for Inactive)
REMARK    1  A    between atoms: C_1  and  O_2
REMARK    2  A    between atoms: O_2  and  C_3
REMARK    3  A    between atoms: C_3  and  C_4
REMARK    4  A    between atoms: C_3  and  C_15
REMARK    5  A    between atoms: C_9  and  C_10
REMARK                            x       y       z     vdW  Elec       q    Type
REMARK                         _______ _______ _______ _____ _____    ______ ____
ROOT
ATOM      1  C   UNL     1       4.954   4.666  17.339  0.00  0.00    +0.000 C 
ATOM      2  O   UNL     1       4.923   3.466  17.085  0.00  0.00    +0.000 OA
ATOM      3  N   UNL     1       5.478   5.634  16.506  0.00  0.00    +0.000 N 
ATOM      4  C   UNL     1       6.083   5.257  15.313  0.00  0.00    +0.000 A 
ATOM      5  C   UNL     1       5.485   4.524  14.266  0.00  0.00    +0.000 A 
ATOM      6  C   UNL     1       6.476   4.353  13.335  0.00  0.00    +0.000 A 
ATOM      7  N   UNL     1       7.581   4.956  13.863  0.00  0.00    +0.000 N 
ATOM      8  N   UNL     1       7.331   5.621  15.011  0.00  0.00    +0.000 NA
ATOM      9  H   UNL     1       5.897   6.449  16.943  0.00  0.00    +0.000 HD
ATOM     10  H   UNL     1       8.526   4.966  13.485  0.00  0.00    +0.000 HD
ENDROOT
BRANCH   6  11
ATOM     11  C   UNL     1       6.346   3.600  12.030  0.00  0.00    +0.000 C 
ATOM     12  C   UNL     1       5.894   2.155  12.038  0.00  0.00    +0.000 C 
ATOM     13  C   UNL     1       4.955   3.213  11.571  0.00  0.00    +0.000 C 
ENDBRANCH   6  11
BRANCH   1  14
ATOM     14  C   UNL     1       4.351   5.191  18.686  0.00  0.00    +0.000 C 
BRANCH  14  15
ATOM     15  C   UNL     1       3.230   4.308  19.236  0.00  0.00    +0.000 A 
ATOM     16  C   UNL     1       1.923   4.415  18.741  0.00  0.00    +0.000 A 
ATOM     17  C   UNL     1       0.891   3.635  19.278  0.00  0.00    +0.000 A 
ATOM     18  C   UNL     1       1.153   2.729  20.305  0.00  0.00    +0.000 A 
ATOM     19  C   UNL     1       2.443   2.614  20.811  0.00  0.00    +0.000 A 
ATOM     20  C   UNL     1       3.470   3.399  20.286  0.00  0.00    +0.000 A 
ENDBRANCH  14  15
BRANCH  14  22
ATOM     21  C   UNL     1       6.634   5.429  19.399  0.00  0.00    +0.000 C 
ATOM     22  O   UNL     1       5.270   5.385  19.761  0.00  0.00    +0.000 OA
ENDBRANCH  14  22
ENDBRANCH   1  14
TORSDOF 4
ENDMDL
MODEL 8
REMARK VINA RESULT:      -7.1      1.534      2.014
REMARK  Name = 
REMARK  5 active torsions:
REMARK  status: ('A' for Active; 'I' for Inactive)
REMARK    1  A    between atoms: C_1  and  O_2
REMARK    2  A    between atoms: O_2  and  C_3
REMARK    3  A    between atoms: C_3  and  C_4
REMARK    4  A    between atoms: C_3  and  C_15
REMARK    5  A    between atoms: C_9  and  C_10
REMARK                            x       y       z     vdW  Elec       q    Type
REMARK                         _______ _______ _______ _____ _____    ______ ____
ROOT
ATOM      1  C   UNL     1       5.078   4.542  17.244  0.00  0.00    +0.000 C 
ATOM      2  O   UNL     1       5.063   3.344  16.981  0.00  0.00    +0.000 OA
ATOM      3  N   UNL     1       5.543   5.529  16.396  0.00  0.00    +0.000 N 
ATOM      4  C   UNL     1       6.103   5.174  15.176  0.00  0.00    +0.000 A 
ATOM      5  C   UNL     1       5.476   4.435  14.150  0.00  0.00    +0.000 A 
ATOM      6  C   UNL     1       6.429   4.295  13.174  0.00  0.00    +0.000 A 
ATOM      7  N   UNL     1       7.542   4.918  13.659  0.00  0.00    +0.000 N 
ATOM      8  N   UNL     1       7.328   5.569  14.822  0.00  0.00    +0.000 NA
ATOM      9  H   UNL     1       5.962   6.349  16.822  0.00  0.00    +0.000 HD
ATOM     10  H   UNL     1       8.469   4.953  13.239  0.00  0.00    +0.000 HD
ENDROOT
BRANCH   6  11
ATOM     11  C   UNL     1       6.258   3.548  11.870  0.00  0.00    +0.000 C 
ATOM     12  C   UNL     1       5.888   2.080  11.887  0.00  0.00    +0.000 C 
ATOM     13  C   UNL     1       4.864   3.089  11.493  0.00  0.00    +0.000 C 
ENDBRANCH   6  11
BRANCH   1  14
ATOM     14  C   UNL     1       4.523   5.044  18.620  0.00  0.00    +0.000 C 
BRANCH  14  15
ATOM     15  C   UNL     1       3.270   4.297  19.079  0.00  0.00    +0.000 A 
ATOM     16  C   UNL     1       3.281   3.526  20.250  0.00  0.00    +0.000 A 
ATOM     17  C   UNL     1       2.144   2.810  20.643  0.00  0.00    +0.000 A 
ATOM     18  C   UNL     1       0.978   2.864  19.880  0.00  0.00    +0.000 A 
ATOM     19  C   UNL     1       0.951   3.619  18.713  0.00  0.00    +0.000 A 
ATOM     20  C   UNL     1       2.087   4.323  18.313  0.00  0.00    +0.000 A 
ENDBRANCH  14  15
BRANCH  14  22
ATOM     21  C   UNL     1       6.736   5.482  19.451  0.00  0.00    +0.000 C 
ATOM     22  O   UNL     1       5.432   5.013  19.721  0.00  0.00    +0.000 OA
ENDBRANCH  14  22
ENDBRANCH   1  14
TORSDOF 4
ENDMDL
MODEL 9
REMARK VINA RESULT:      -7.0      3.794      7.171
REMARK  Name = 
REMARK  5 active torsions:
REMARK  status: ('A' for Active; 'I' for Inactive)
REMARK    1  A    between atoms: C_1  and  O_2
REMARK    2  A    between atoms: O_2  and  C_3
REMARK    3  A    between atoms: C_3  and  C_4
REMARK    4  A    between atoms: C_3  and  C_15
REMARK    5  A    between atoms: C_9  and  C_10
REMARK                            x       y       z     vdW  Elec       q    Type
REMARK                         _______ _______ _______ _____ _____    ______ ____
ROOT
ATOM      1  C   UNL     1       2.333   8.087  18.358  0.00  0.00    +0.000 C 
ATOM      2  O   UNL     1       2.330   8.630  17.258  0.00  0.00    +0.000 OA
ATOM      3  N   UNL     1       1.594   8.507  19.446  0.00  0.00    +0.000 N 
ATOM      4  C   UNL     1       0.831   9.664  19.349  0.00  0.00    +0.000 A 
ATOM      5  C   UNL     1      -0.198   9.912  18.416  0.00  0.00    +0.000 A 
ATOM      6  C   UNL     1      -0.618  11.191  18.676  0.00  0.00    +0.000 A 
ATOM      7  N   UNL     1       0.167  11.631  19.702  0.00  0.00    +0.000 N 
ATOM      8  N   UNL     1       0.971  10.674  20.211  0.00  0.00    +0.000 NA
ATOM      9  H   UNL     1       1.989   8.347  20.368  0.00  0.00    +0.000 HD
ATOM     10  H   UNL     1       0.191  12.563  20.112  0.00  0.00    +0.000 HD
ENDROOT
BRANCH   6  11
ATOM     11  C   UNL     1      -1.694  11.941  17.922  0.00  0.00    +0.000 C 
ATOM     12  C   UNL     1      -2.574  11.202  16.936  0.00  0.00    +0.000 C 
ATOM     13  C   UNL     1      -3.139  11.625  18.248  0.00  0.00    +0.000 C 
ENDBRANCH   6  11
BRANCH   1  14
ATOM     14  C   UNL     1       3.207   6.808  18.592  0.00  0.00    +0.000 C 
BRANCH  14  15
ATOM     15  C   UNL     1       2.389   5.574  18.977  0.00  0.00    +0.000 A 
ATOM     16  C   UNL     1       2.101   5.293  20.319  0.00  0.00    +0.000 A 
ATOM     17  C   UNL     1       1.389   4.140  20.670  0.00  0.00    +0.000 A 
ATOM     18  C   UNL     1       0.943   3.260  19.685  0.00  0.00    +0.000 A 
ATOM     19  C   UNL     1       1.224   3.520  18.348  0.00  0.00    +0.000 A 
ATOM     20  C   UNL     1       1.944   4.662  17.998  0.00  0.00    +0.000 A 
ENDBRANCH  14  15
BRANCH  14  22
ATOM     21  C   UNL     1       5.361   6.027  17.864  0.00  0.00    +0.000 C 
ATOM     22  O   UNL     1       4.048   6.407  17.510  0.00  0.00    +0.000 OA
ENDBRANCH  14  22
ENDBRANCH   1  14
TORSDOF 4
ENDMDL
