MODEL 1
REMARK VINA RESULT:      -7.6      0.000      0.000
REMARK  Name = 
REMARK  8 active torsions:
REMARK  status: ('A' for Active; 'I' for Inactive)
REMARK    1  A    between atoms: C_2  and  C_3
REMARK    2  A    between atoms: C_3  and  C_4
REMARK    3  A    between atoms: N_10  and  CA_11
REMARK    4  A    between atoms: CA_11  and  CB_12
REMARK    5  A    between atoms: CA_11  and  C_20
REMARK    6  A    between atoms: CB_12  and  CG_13
REMARK    7  A    between atoms: CZ_16  and  OH_17
REMARK    8  A    between atoms: C_20  and  OXT_22
REMARK                            x       y       z     vdW  Elec       q    Type
REMARK                         _______ _______ _______ _____ _____    ______ ____
ROOT
ATOM      1  CA  TYR A   1       6.276   6.450  17.455  0.00  0.00    +0.000 C 
ENDROOT
BRANCH   1   4
ATOM      2  O   UNK A   0       8.572   7.590  18.765  0.00  0.00    +0.000 OA
ATOM      3  C   UNK A   0       7.942   8.270  17.961  0.00  0.00    +0.000 C 
ATOM      4  N   TYR A   1       6.808   7.814  17.335  0.00  0.00    +0.000 N 
ATOM      5  H   TYR A   1       6.340   8.416  16.660  0.00  0.00    +0.000 HD
BRANCH   3   6
ATOM      6  C   UNK A   0       8.382   9.662  17.527  0.00  0.00    +0.000 C 
BRANCH   6   7
ATOM      7  C   UNK A   0       9.327  10.406  18.443  0.00  0.00    +0.000 A 
ATOM      8  C   UNK A   0      10.401  11.114  17.882  0.00  0.00    +0.000 A 
ATOM      9  C   UNK A   0      11.248  11.888  18.679  0.00  0.00    +0.000 A 
ATOM     10  C   UNK A   0      11.036  11.966  20.055  0.00  0.00    +0.000 A 
ATOM     11  C   UNK A   0       9.971  11.279  20.626  0.00  0.00    +0.000 A 
ATOM     12  C   UNK A   0       9.115  10.509  19.827  0.00  0.00    +0.000 A 
ENDBRANCH   6   7
ENDBRANCH   3   6
ENDBRANCH   1   4
BRANCH   1  13
ATOM     13  C   TYR A   1       6.838   5.666  16.256  0.00  0.00    +0.000 C 
ATOM     14  O   TYR A   1       7.752   4.853  16.352  0.00  0.00    +0.000 OA
BRANCH  13  15
ATOM     15  OXT TYR A   1       6.239   5.909  15.069  0.00  0.00    +0.000 OA
ATOM     16  HXT TYR A   1       5.362   6.331  15.115  0.00  0.00    +0.000 HD
ENDBRANCH  13  15
ENDBRANCH   1  13
BRANCH   1  17
ATOM     17  CB  TYR A   1       4.737   6.358  17.571  0.00  0.00    +0.000 C 
BRANCH  17  18
ATOM     18  CG  TYR A   1       4.222   4.998  17.979  0.00  0.00    +0.000 A 
ATOM     19  CD1 TYR A   1       4.806   4.289  19.039  0.00  0.00    +0.000 A 
ATOM     20  CE1 TYR A   1       4.463   2.959  19.273  0.00  0.00    +0.000 A 
ATOM     21  CZ  TYR A   1       3.497   2.354  18.481  0.00  0.00    +0.000 A 
ATOM     22  CE2 TYR A   1       2.818   3.075  17.508  0.00  0.00    +0.000 A 
ATOM     23  CD2 TYR A   1       3.184   4.398  17.252  0.00  0.00    +0.000 A 
BRANCH  21  24
ATOM     24  OH  TYR A   1       3.212   1.029  18.615  0.00  0.00    +0.000 OA
ATOM     25  HH  TYR A   1       2.387   0.952  19.126  0.00  0.00    +0.000 HD
ENDBRANCH  21  24
ENDBRANCH  17  18
ENDBRANCH   1  17
TORSDOF 8
ENDMDL
MODEL 2
REMARK VINA RESULT:      -7.6      3.669      6.870
REMARK  Name = 
REMARK  8 active torsions:
REMARK  status: ('A' for Active; 'I' for Inactive)
REMARK    1  A    between atoms: C_2  and  C_3
REMARK    2  A    between atoms: C_3  and  C_4
REMARK    3  A    between atoms: N_10  and  CA_11
REMARK    4  A    between atoms: CA_11  and  CB_12
REMARK    5  A    between atoms: CA_11  and  C_20
REMARK    6  A    between atoms: CB_12  and  CG_13
REMARK    7  A    between atoms: CZ_16  and  OH_17
REMARK    8  A    between atoms: C_20  and  OXT_22
REMARK                            x       y       z     vdW  Elec       q    Type
REMARK                         _______ _______ _______ _____ _____    ______ ____
ROOT
ATOM      1  CA  TYR A   1       3.675   2.947  18.362  0.00  0.00    +0.000 C 
ENDROOT
BRANCH   1   4
ATOM      2  O   UNK A   0       1.087   4.024  19.017  0.00  0.00    +0.000 OA
ATOM      3  C   UNK A   0       2.084   4.494  19.554  0.00  0.00    +0.000 C 
ATOM      4  N   TYR A   1       3.356   4.069  19.256  0.00  0.00    +0.000 N 
ATOM      5  H   TYR A   1       4.144   4.481  19.752  0.00  0.00    +0.000 HD
BRANCH   3   6
ATOM      6  C   UNK A   0       2.017   5.552  20.649  0.00  0.00    +0.000 C 
BRANCH   6   7
ATOM      7  C   UNK A   0       1.815   6.985  20.213  0.00  0.00    +0.000 A 
ATOM      8  C   UNK A   0       2.222   7.368  18.925  0.00  0.00    +0.000 A 
ATOM      9  C   UNK A   0       1.976   8.656  18.445  0.00  0.00    +0.000 A 
ATOM     10  C   UNK A   0       1.318   9.588  19.247  0.00  0.00    +0.000 A 
ATOM     11  C   UNK A   0       0.899   9.223  20.521  0.00  0.00    +0.000 A 
ATOM     12  C   UNK A   0       1.138   7.929  21.002  0.00  0.00    +0.000 A 
ENDBRANCH   6   7
ENDBRANCH   3   6
ENDBRANCH   1   4
BRANCH   1  13
ATOM     13  C   TYR A   1       4.350   1.880  19.242  0.00  0.00    +0.000 C 
ATOM     14  O   TYR A   1       4.815   2.118  20.352  0.00  0.00    +0.000 OA
BRANCH  13  15
ATOM     15  OXT TYR A   1       4.380   0.632  18.723  0.00  0.00    +0.000 OA
ATOM     16  HXT TYR A   1       4.938  -0.012  19.196  0.00  0.00    +0.000 HD
ENDBRANCH  13  15
ENDBRANCH   1  13
BRANCH   1  17
ATOM     17  CB  TYR A   1       4.511   3.324  17.118  0.00  0.00    +0.000 C 
BRANCH  17  18
ATOM     18  CG  TYR A   1       5.305   4.601  17.263  0.00  0.00    +0.000 A 
ATOM     19  CD1 TYR A   1       4.829   5.814  16.747  0.00  0.00    +0.000 A 
ATOM     20  CE1 TYR A   1       5.654   6.936  16.704  0.00  0.00    +0.000 A 
ATOM     21  CZ  TYR A   1       6.938   6.860  17.227  0.00  0.00    +0.000 A 
ATOM     22  CE2 TYR A   1       7.384   5.704  17.855  0.00  0.00    +0.000 A 
ATOM     23  CD2 TYR A   1       6.569   4.571  17.869  0.00  0.00    +0.000 A 
BRANCH  21  24
ATOM     24  OH  TYR A   1       7.805   7.903  17.109  0.00  0.00    +0.000 OA
ATOM     25  HH  TYR A   1       7.316   8.720  17.311  0.00  0.00    +0.000 HD
ENDBRANCH  21  24
ENDBRANCH  17  18
ENDBRANCH   1  17
TORSDOF 8
ENDMDL
MODEL 3
REMARK VINA RESULT:      -7.5      0.993      1.177
REMARK  Name = 
REMARK  8 active torsions:
REMARK  status: ('A' for Active; 'I' for Inactive)
REMARK    1  A    between atoms: C_2  and  C_3
REMARK    2  A    between atoms: C_3  and  C_4
REMARK    3  A    between atoms: N_10  and  CA_11
REMARK    4  A    between atoms: CA_11  and  CB_12
REMARK    5  A    between atoms: CA_11  and  C_20
REMARK    6  A    between atoms: CB_12  and  CG_13
REMARK    7  A    between atoms: CZ_16  and  OH_17
REMARK    8  A    between atoms: C_20  and  OXT_22
REMARK                            x       y       z     vdW  Elec       q    Type
REMARK                         _______ _______ _______ _____ _____    ______ ____
ROOT
ATOM      1  CA  TYR A   1       6.275   6.377  17.210  0.00  0.00    +0.000 C 
ENDROOT
BRANCH   1   4
ATOM      2  O   UNK A   0       8.459   7.521  18.696  0.00  0.00    +0.000 OA
ATOM      3  C   UNK A   0       7.878   8.208  17.861  0.00  0.00    +0.000 C 
ATOM      4  N   TYR A   1       6.796   7.749  17.150  0.00  0.00    +0.000 N 
ATOM      5  H   TYR A   1       6.369   8.357  16.453  0.00  0.00    +0.000 HD
BRANCH   3   6
ATOM      6  C   UNK A   0       8.329   9.612  17.480  0.00  0.00    +0.000 C 
BRANCH   6   7
ATOM      7  C   UNK A   0       9.289  10.307  18.419  0.00  0.00    +0.000 A 
ATOM      8  C   UNK A   0      10.400  10.977  17.882  0.00  0.00    +0.000 A 
ATOM      9  C   UNK A   0      11.265  11.707  18.701  0.00  0.00    +0.000 A 
ATOM     10  C   UNK A   0      11.034  11.781  20.073  0.00  0.00    +0.000 A 
ATOM     11  C   UNK A   0       9.933  11.132  20.620  0.00  0.00    +0.000 A 
ATOM     12  C   UNK A   0       9.060  10.405  19.801  0.00  0.00    +0.000 A 
ENDBRANCH   6   7
ENDBRANCH   3   6
ENDBRANCH   1   4
BRANCH   1  13
ATOM     13  C   TYR A   1       7.302   5.497  16.475  0.00  0.00    +0.000 C 
ATOM     14  O   TYR A   1       7.891   4.562  17.007  0.00  0.00    +0.000 OA
BRANCH  13  15
ATOM     15  OXT TYR A   1       7.505   5.804  15.174  0.00  0.00    +0.000 OA
ATOM     16  HXT TYR A   1       7.069   5.221  14.527  0.00  0.00    +0.000 HD
ENDBRANCH  13  15
ENDBRANCH   1  13
BRANCH   1  17
ATOM     17  CB  TYR A   1       4.834   6.203  16.675  0.00  0.00    +0.000 C 
BRANCH  17  18
ATOM     18  CG  TYR A   1       4.024   5.152  17.397  0.00  0.00    +0.000 A 
ATOM     19  CD1 TYR A   1       3.995   3.824  16.950  0.00  0.00    +0.000 A 
ATOM     20  CE1 TYR A   1       3.090   2.914  17.494  0.00  0.00    +0.000 A 
ATOM     21  CZ  TYR A   1       2.250   3.320  18.522  0.00  0.00    +0.000 A 
ATOM     22  CE2 TYR A   1       2.350   4.595  19.063  0.00  0.00    +0.000 A 
ATOM     23  CD2 TYR A   1       3.233   5.515  18.497  0.00  0.00    +0.000 A 
BRANCH  21  24
ATOM     24  OH  TYR A   1       1.286   2.489  19.006  0.00  0.00    +0.000 OA
ATOM     25  HH  TYR A   1       1.305   2.544  19.977  0.00  0.00    +0.000 HD
ENDBRANCH  21  24
ENDBRANCH  17  18
ENDBRANCH   1  17
TORSDOF 8
ENDMDL
MODEL 4
REMARK VINA RESULT:      -7.5      0.927      1.060
REMARK  Name = 
REMARK  8 active torsions:
REMARK  status: ('A' for Active; 'I' for Inactive)
REMARK    1  A    between atoms: C_2  and  C_3
REMARK    2  A    between atoms: C_3  and  C_4
REMARK    3  A    between atoms: N_10  and  CA_11
REMARK    4  A    between atoms: CA_11  and  CB_12
REMARK    5  A    between atoms: CA_11  and  C_20
REMARK    6  A    between atoms: CB_12  and  CG_13
REMARK    7  A    between atoms: CZ_16  and  OH_17
REMARK    8  A    between atoms: C_20  and  OXT_22
REMARK                            x       y       z     vdW  Elec       q    Type
REMARK                         _______ _______ _______ _____ _____    ______ ____
ROOT
ATOM      1  CA  TYR A   1       6.216   6.524  17.264  0.00  0.00    +0.000 C 
ENDROOT
BRANCH   1   4
ATOM      2  O   UNK A   0       8.453   7.620  18.708  0.00  0.00    +0.000 OA
ATOM      3  C   UNK A   0       7.872   8.319  17.884  0.00  0.00    +0.000 C 
ATOM      4  N   TYR A   1       6.767   7.885  17.193  0.00  0.00    +0.000 N 
ATOM      5  H   TYR A   1       6.341   8.502  16.504  0.00  0.00    +0.000 HD
BRANCH   3   6
ATOM      6  C   UNK A   0       8.348   9.712  17.494  0.00  0.00    +0.000 C 
BRANCH   6   7
ATOM      7  C   UNK A   0       9.305  10.404  18.438  0.00  0.00    +0.000 A 
ATOM      8  C   UNK A   0      10.412  11.084  17.905  0.00  0.00    +0.000 A 
ATOM      9  C   UNK A   0      11.275  11.812  18.728  0.00  0.00    +0.000 A 
ATOM     10  C   UNK A   0      11.046  11.872  20.102  0.00  0.00    +0.000 A 
ATOM     11  C   UNK A   0       9.949  11.213  20.645  0.00  0.00    +0.000 A 
ATOM     12  C   UNK A   0       9.078  10.489  19.820  0.00  0.00    +0.000 A 
ENDBRANCH   6   7
ENDBRANCH   3   6
ENDBRANCH   1   4
BRANCH   1  13
ATOM     13  C   TYR A   1       7.270   5.603  16.625  0.00  0.00    +0.000 C 
ATOM     14  O   TYR A   1       7.814   4.683  17.227  0.00  0.00    +0.000 OA
BRANCH  13  15
ATOM     15  OXT TYR A   1       7.551   5.854  15.327  0.00  0.00    +0.000 OA
ATOM     16  HXT TYR A   1       8.155   5.225  14.893  0.00  0.00    +0.000 HD
ENDBRANCH  13  15
ENDBRANCH   1  13
BRANCH   1  17
ATOM     17  CB  TYR A   1       4.809   6.358  16.644  0.00  0.00    +0.000 C 
BRANCH  17  18
ATOM     18  CG  TYR A   1       3.956   5.302  17.308  0.00  0.00    +0.000 A 
ATOM     19  CD1 TYR A   1       3.001   5.644  18.275  0.00  0.00    +0.000 A 
ATOM     20  CE1 TYR A   1       2.369   4.653  19.025  0.00  0.00    +0.000 A 
ATOM     21  CZ  TYR A   1       2.654   3.318  18.770  0.00  0.00    +0.000 A 
ATOM     22  CE2 TYR A   1       3.503   2.956  17.732  0.00  0.00    +0.000 A 
ATOM     23  CD2 TYR A   1       4.159   3.949  17.003  0.00  0.00    +0.000 A 
BRANCH  21  24
ATOM     24  OH  TYR A   1       2.134   2.331  19.550  0.00  0.00    +0.000 OA
ATOM     25  HH  TYR A   1       2.716   1.555  19.476  0.00  0.00    +0.000 HD
ENDBRANCH  21  24
ENDBRANCH  17  18
ENDBRANCH   1  17
TORSDOF 8
ENDMDL
MODEL 5
REMARK VINA RESULT:      -7.5      0.373      1.259
REMARK  Name = 
REMARK  8 active torsions:
REMARK  status: ('A' for Active; 'I' for Inactive)
REMARK    1  A    between atoms: C_2  and  C_3
REMARK    2  A    between atoms: C_3  and  C_4
REMARK    3  A    between atoms: N_10  and  CA_11
REMARK    4  A    between atoms: CA_11  and  CB_12
REMARK    5  A    between atoms: CA_11  and  C_20
REMARK    6  A    between atoms: CB_12  and  CG_13
REMARK    7  A    between atoms: CZ_16  and  OH_17
REMARK    8  A    between atoms: C_20  and  OXT_22
REMARK                            x       y       z     vdW  Elec       q    Type
REMARK                         _______ _______ _______ _____ _____    ______ ____
ROOT
ATOM      1  CA  TYR A   1       6.447   6.517  17.584  0.00  0.00    +0.000 C 
ENDROOT
BRANCH   1   4
ATOM      2  O   UNK A   0       8.682   7.773  18.894  0.00  0.00    +0.000 OA
ATOM      3  C   UNK A   0       8.070   8.392  18.029  0.00  0.00    +0.000 C 
ATOM      4  N   TYR A   1       6.964   7.880  17.395  0.00  0.00    +0.000 N 
ATOM      5  H   TYR A   1       6.512   8.430  16.668  0.00  0.00    +0.000 HD
BRANCH   3   6
ATOM      6  C   UNK A   0       8.506   9.760  17.522  0.00  0.00    +0.000 C 
BRANCH   6   7
ATOM      7  C   UNK A   0       9.404  10.577  18.423  0.00  0.00    +0.000 A 
ATOM      8  C   UNK A   0       9.066  10.711  19.779  0.00  0.00    +0.000 A 
ATOM      9  C   UNK A   0       9.909  11.380  20.669  0.00  0.00    +0.000 A 
ATOM     10  C   UNK A   0      11.108  11.929  20.218  0.00  0.00    +0.000 A 
ATOM     11  C   UNK A   0      11.464  11.797  18.880  0.00  0.00    +0.000 A 
ATOM     12  C   UNK A   0      10.624  11.119  17.988  0.00  0.00    +0.000 A 
ENDBRANCH   6   7
ENDBRANCH   3   6
ENDBRANCH   1   4
BRANCH   1  13
ATOM     13  C   TYR A   1       7.199   5.632  16.574  0.00  0.00    +0.000 C 
ATOM     14  O   TYR A   1       7.262   5.883  15.375  0.00  0.00    +0.000 OA
BRANCH  13  15
ATOM     15  OXT TYR A   1       7.822   4.553  17.098  0.00  0.00    +0.000 OA
ATOM     16  HXT TYR A   1       7.348   3.706  17.012  0.00  0.00    +0.000 HD
ENDBRANCH  13  15
ENDBRANCH   1  13
BRANCH   1  17
ATOM     17  CB  TYR A   1       4.910   6.384  17.480  0.00  0.00    +0.000 C 
BRANCH  17  18
ATOM     18  CG  TYR A   1       4.373   5.033  17.889  0.00  0.00    +0.000 A 
ATOM     19  CD1 TYR A   1       4.751   4.437  19.100  0.00  0.00    +0.000 A 
ATOM     20  CE1 TYR A   1       4.416   3.112  19.371  0.00  0.00    +0.000 A 
ATOM     21  CZ  TYR A   1       3.656   2.399  18.454  0.00  0.00    +0.000 A 
ATOM     22  CE2 TYR A   1       3.166   3.009  17.306  0.00  0.00    +0.000 A 
ATOM     23  CD2 TYR A   1       3.529   4.326  17.020  0.00  0.00    +0.000 A 
BRANCH  21  24
ATOM     24  OH  TYR A   1       3.398   1.075  18.639  0.00  0.00    +0.000 OA
ATOM     25  HH  TYR A   1       4.112   0.706  19.187  0.00  0.00    +0.000 HD
ENDBRANCH  21  24
ENDBRANCH  17  18
ENDBRANCH   1  17
TORSDOF 8
ENDMDL
MODEL 6
REMARK VINA RESULT:      -7.5      1.405      1.753
REMARK  Name = 
REMARK  8 active torsions:
REMARK  status: ('A' for Active; 'I' for Inactive)
REMARK    1  A    between atoms: C_2  and  C_3
REMARK    2  A    between atoms: C_3  and  C_4
REMARK    3  A    between atoms: N_10  and  CA_11
REMARK    4  A    between atoms: CA_11  and  CB_12
REMARK    5  A    between atoms: CA_11  and  C_20
REMARK    6  A    between atoms: CB_12  and  CG_13
REMARK    7  A    between atoms: CZ_16  and  OH_17
REMARK    8  A    between atoms: C_20  and  OXT_22
REMARK                            x       y       z     vdW  Elec       q    Type
REMARK                         _______ _______ _______ _____ _____    ______ ____
ROOT
ATOM      1  CA  TYR A   1       6.268   6.271  17.207  0.00  0.00    +0.000 C 
ENDROOT
BRANCH   1   4
ATOM      2  O   UNK A   0       8.425   7.482  18.679  0.00  0.00    +0.000 OA
ATOM      3  C   UNK A   0       7.802   8.157  17.866  0.00  0.00    +0.000 C 
ATOM      4  N   TYR A   1       6.730   7.665  17.163  0.00  0.00    +0.000 N 
ATOM      5  H   TYR A   1       6.266   8.266  16.484  0.00  0.00    +0.000 HD
BRANCH   3   6
ATOM      6  C   UNK A   0       8.188   9.586  17.504  0.00  0.00    +0.000 C 
BRANCH   6   7
ATOM      7  C   UNK A   0       9.139  10.302  18.436  0.00  0.00    +0.000 A 
ATOM      8  C   UNK A   0      10.193  11.050  17.888  0.00  0.00    +0.000 A 
ATOM      9  C   UNK A   0      11.044  11.800  18.703  0.00  0.00    +0.000 A 
ATOM     10  C   UNK A   0      10.855  11.815  20.084  0.00  0.00    +0.000 A 
ATOM     11  C   UNK A   0       9.810  11.088  20.643  0.00  0.00    +0.000 A 
ATOM     12  C   UNK A   0       8.951  10.342  19.826  0.00  0.00    +0.000 A 
ENDBRANCH   6   7
ENDBRANCH   3   6
ENDBRANCH   1   4
BRANCH   1  13
ATOM     13  C   TYR A   1       7.283   5.459  16.383  0.00  0.00    +0.000 C 
ATOM     14  O   TYR A   1       7.590   5.739  15.229  0.00  0.00    +0.000 OA
BRANCH  13  15
ATOM     15  OXT TYR A   1       7.850   4.413  17.025  0.00  0.00    +0.000 OA
ATOM     16  HXT TYR A   1       7.898   4.486  17.995  0.00  0.00    +0.000 HD
ENDBRANCH  13  15
ENDBRANCH   1  13
BRANCH   1  17
ATOM     17  CB  TYR A   1       4.806   6.054  16.752  0.00  0.00    +0.000 C 
BRANCH  17  18
ATOM     18  CG  TYR A   1       3.893   5.513  17.826  0.00  0.00    +0.000 A 
ATOM     19  CD1 TYR A   1       3.512   4.164  17.843  0.00  0.00    +0.000 A 
ATOM     20  CE1 TYR A   1       2.514   3.721  18.709  0.00  0.00    +0.000 A 
ATOM     21  CZ  TYR A   1       1.934   4.618  19.596  0.00  0.00    +0.000 A 
ATOM     22  CE2 TYR A   1       2.384   5.929  19.681  0.00  0.00    +0.000 A 
ATOM     23  CD2 TYR A   1       3.361   6.379  18.792  0.00  0.00    +0.000 A 
BRANCH  21  24
ATOM     24  OH  TYR A   1       0.887   4.245  20.383  0.00  0.00    +0.000 OA
ATOM     25  HH  TYR A   1       1.214   3.587  21.020  0.00  0.00    +0.000 HD
ENDBRANCH  21  24
ENDBRANCH  17  18
ENDBRANCH   1  17
TORSDOF 8
ENDMDL
MODEL 7
REMARK VINA RESULT:      -7.4      1.063      1.597
REMARK  Name = 
REMARK  8 active torsions:
REMARK  status: ('A' for Active; 'I' for Inactive)
REMARK    1  A    between atoms: C_2  and  C_3
REMARK    2  A    between atoms: C_3  and  C_4
REMARK    3  A    between atoms: N_10  and  CA_11
REMARK    4  A    between atoms: CA_11  and  CB_12
REMARK    5  A    between atoms: CA_11  and  C_20
REMARK    6  A    between atoms: CB_12  and  CG_13
REMARK    7  A    between atoms: CZ_16  and  OH_17
REMARK    8  A    between atoms: C_20  and  OXT_22
REMARK                            x       y       z     vdW  Elec       q    Type
REMARK                         _______ _______ _______ _____ _____    ______ ____
ROOT
ATOM      1  CA  TYR A   1       6.238   6.589  17.289  0.00  0.00    +0.000 C 
ENDROOT
BRANCH   1   4
ATOM      2  O   UNK A   0       8.470   7.707  18.723  0.00  0.00    +0.000 OA
ATOM      3  C   UNK A   0       7.919   8.377  17.855  0.00  0.00    +0.000 C 
ATOM      4  N   TYR A   1       6.818   7.933  17.164  0.00  0.00    +0.000 N 
ATOM      5  H   TYR A   1       6.418   8.524  16.438  0.00  0.00    +0.000 HD
BRANCH   3   6
ATOM      6  C   UNK A   0       8.431   9.741  17.408  0.00  0.00    +0.000 C 
BRANCH   6   7
ATOM      7  C   UNK A   0       9.288  10.511  18.387  0.00  0.00    +0.000 A 
ATOM      8  C   UNK A   0       8.949  10.490  19.750  0.00  0.00    +0.000 A 
ATOM      9  C   UNK A   0       9.758  11.112  20.703  0.00  0.00    +0.000 A 
ATOM     10  C   UNK A   0      10.923  11.769  20.310  0.00  0.00    +0.000 A 
ATOM     11  C   UNK A   0      11.280  11.791  18.966  0.00  0.00    +0.000 A 
ATOM     12  C   UNK A   0      10.473  11.161  18.009  0.00  0.00    +0.000 A 
ENDBRANCH   6   7
ENDBRANCH   3   6
ENDBRANCH   1   4
BRANCH   1  13
ATOM     13  C   TYR A   1       7.284   5.617  16.715  0.00  0.00    +0.000 C 
ATOM     14  O   TYR A   1       7.813   4.730  17.377  0.00  0.00    +0.000 OA
BRANCH  13  15
ATOM     15  OXT TYR A   1       7.575   5.783  15.405  0.00  0.00    +0.000 OA
ATOM     16  HXT TYR A   1       7.699   6.703  15.111  0.00  0.00    +0.000 HD
ENDBRANCH  13  15
ENDBRANCH   1  13
BRANCH   1  17
ATOM     17  CB  TYR A   1       4.840   6.421  16.650  0.00  0.00    +0.000 C 
BRANCH  17  18
ATOM     18  CG  TYR A   1       3.973   5.376  17.312  0.00  0.00    +0.000 A 
ATOM     19  CD1 TYR A   1       4.113   4.016  17.003  0.00  0.00    +0.000 A 
ATOM     20  CE1 TYR A   1       3.179   3.088  17.460  0.00  0.00    +0.000 A 
ATOM     21  CZ  TYR A   1       2.134   3.513  18.270  0.00  0.00    +0.000 A 
ATOM     22  CE2 TYR A   1       2.049   4.834  18.689  0.00  0.00    +0.000 A 
ATOM     23  CD2 TYR A   1       2.966   5.769  18.206  0.00  0.00    +0.000 A 
BRANCH  21  24
ATOM     24  OH  TYR A   1       1.148   2.653  18.648  0.00  0.00    +0.000 OA
ATOM     25  HH  TYR A   1       1.045   2.725  19.613  0.00  0.00    +0.000 HD
ENDBRANCH  21  24
ENDBRANCH  17  18
ENDBRANCH   1  17
TORSDOF 8
ENDMDL
MODEL 8
REMARK VINA RESULT:      -7.4      3.889      6.729
REMARK  Name = 
REMARK  8 active torsions:
REMARK  status: ('A' for Active; 'I' for Inactive)
REMARK    1  A    between atoms: C_2  and  C_3
REMARK    2  A    between atoms: C_3  and  C_4
REMARK    3  A    between atoms: N_10  and  CA_11
REMARK    4  A    between atoms: CA_11  and  CB_12
REMARK    5  A    between atoms: CA_11  and  C_20
REMARK    6  A    between atoms: CB_12  and  CG_13
REMARK    7  A    between atoms: CZ_16  and  OH_17
REMARK    8  A    between atoms: C_20  and  OXT_22
REMARK                            x       y       z     vdW  Elec       q    Type
REMARK                         _______ _______ _______ _____ _____    ______ ____
ROOT
ATOM      1  CA  TYR A   1       3.316   3.285  19.224  0.00  0.00    +0.000 C 
ENDROOT
BRANCH   1   4
ATOM      2  O   UNK A   0       0.948   4.488  20.337  0.00  0.00    +0.000 OA
ATOM      3  C   UNK A   0       1.982   5.146  20.275  0.00  0.00    +0.000 C 
ATOM      4  N   TYR A   1       3.136   4.660  19.712  0.00  0.00    +0.000 N 
ATOM      5  H   TYR A   1       3.970   5.244  19.710  0.00  0.00    +0.000 HD
BRANCH   3   6
ATOM      6  C   UNK A   0       2.114   6.543  20.868  0.00  0.00    +0.000 C 
BRANCH   6   7
ATOM      7  C   UNK A   0       1.907   7.713  19.934  0.00  0.00    +0.000 A 
ATOM      8  C   UNK A   0       2.408   7.634  18.624  0.00  0.00    +0.000 A 
ATOM      9  C   UNK A   0       2.166   8.650  17.698  0.00  0.00    +0.000 A 
ATOM     10  C   UNK A   0       1.417   9.767  18.065  0.00  0.00    +0.000 A 
ATOM     11  C   UNK A   0       0.905   9.858  19.354  0.00  0.00    +0.000 A 
ATOM     12  C   UNK A   0       1.140   8.835  20.283  0.00  0.00    +0.000 A 
ENDBRANCH   6   7
ENDBRANCH   3   6
ENDBRANCH   1   4
BRANCH   1  13
ATOM     13  C   TYR A   1       3.929   2.494  20.393  0.00  0.00    +0.000 C 
ATOM     14  O   TYR A   1       5.029   1.955  20.336  0.00  0.00    +0.000 OA
BRANCH  13  15
ATOM     15  OXT TYR A   1       3.183   2.447  21.518  0.00  0.00    +0.000 OA
ATOM     16  HXT TYR A   1       2.339   1.965  21.449  0.00  0.00    +0.000 HD
ENDBRANCH  13  15
ENDBRANCH   1  13
BRANCH   1  17
ATOM     17  CB  TYR A   1       4.128   3.160  17.914  0.00  0.00    +0.000 C 
BRANCH  17  18
ATOM     18  CG  TYR A   1       5.004   4.352  17.608  0.00  0.00    +0.000 A 
ATOM     19  CD1 TYR A   1       6.230   4.538  18.261  0.00  0.00    +0.000 A 
ATOM     20  CE1 TYR A   1       6.928   5.736  18.125  0.00  0.00    +0.000 A 
ATOM     21  CZ  TYR A   1       6.427   6.728  17.292  0.00  0.00    +0.000 A 
ATOM     22  CE2 TYR A   1       5.279   6.514  16.540  0.00  0.00    +0.000 A 
ATOM     23  CD2 TYR A   1       4.563   5.327  16.701  0.00  0.00    +0.000 A 
BRANCH  21  24
ATOM     24  OH  TYR A   1       7.028   7.947  17.215  0.00  0.00    +0.000 OA
ATOM     25  HH  TYR A   1       6.487   8.578  17.720  0.00  0.00    +0.000 HD
ENDBRANCH  21  24
ENDBRANCH  17  18
ENDBRANCH   1  17
TORSDOF 8
ENDMDL
MODEL 9
REMARK VINA RESULT:      -7.3      4.050      6.809
REMARK  Name = 
REMARK  8 active torsions:
REMARK  status: ('A' for Active; 'I' for Inactive)
REMARK    1  A    between atoms: C_2  and  C_3
REMARK    2  A    between atoms: C_3  and  C_4
REMARK    3  A    between atoms: N_10  and  CA_11
REMARK    4  A    between atoms: CA_11  and  CB_12
REMARK    5  A    between atoms: CA_11  and  C_20
REMARK    6  A    between atoms: CB_12  and  CG_13
REMARK    7  A    between atoms: CZ_16  and  OH_17
REMARK    8  A    between atoms: C_20  and  OXT_22
REMARK                            x       y       z     vdW  Elec       q    Type
REMARK                         _______ _______ _______ _____ _____    ______ ____
ROOT
ATOM      1  CA  TYR A   1       3.224   3.102  19.513  0.00  0.00    +0.000 C 
ENDROOT
BRANCH   1   4
ATOM      2  O   UNK A   0       0.751   4.476  20.046  0.00  0.00    +0.000 OA
ATOM      3  C   UNK A   0       1.813   5.063  20.228  0.00  0.00    +0.000 C 
ATOM      4  N   TYR A   1       3.031   4.492  19.948  0.00  0.00    +0.000 N 
ATOM      5  H   TYR A   1       3.880   5.019  20.142  0.00  0.00    +0.000 HD
BRANCH   3   6
ATOM      6  C   UNK A   0       1.899   6.456  20.839  0.00  0.00    +0.000 C 
BRANCH   6   7
ATOM      7  C   UNK A   0       1.884   7.629  19.886  0.00  0.00    +0.000 A 
ATOM      8  C   UNK A   0       2.481   7.488  18.623  0.00  0.00    +0.000 A 
ATOM      9  C   UNK A   0       2.415   8.513  17.676  0.00  0.00    +0.000 A 
ATOM     10  C   UNK A   0       1.750   9.700  17.976  0.00  0.00    +0.000 A 
ATOM     11  C   UNK A   0       1.144   9.854  19.218  0.00  0.00    +0.000 A 
ATOM     12  C   UNK A   0       1.202   8.824  20.166  0.00  0.00    +0.000 A 
ENDBRANCH   6   7
ENDBRANCH   3   6
ENDBRANCH   1   4
BRANCH   1  13
ATOM     13  C   TYR A   1       3.855   2.365  20.707  0.00  0.00    +0.000 C 
ATOM     14  O   TYR A   1       4.960   1.834  20.663  0.00  0.00    +0.000 OA
BRANCH  13  15
ATOM     15  OXT TYR A   1       3.118   2.355  21.840  0.00  0.00    +0.000 OA
ATOM     16  HXT TYR A   1       2.495   3.097  21.948  0.00  0.00    +0.000 HD
ENDBRANCH  13  15
ENDBRANCH   1  13
BRANCH   1  17
ATOM     17  CB  TYR A   1       4.030   2.936  18.203  0.00  0.00    +0.000 C 
BRANCH  17  18
ATOM     18  CG  TYR A   1       4.847   4.147  17.816  0.00  0.00    +0.000 A 
ATOM     19  CD1 TYR A   1       4.648   4.794  16.589  0.00  0.00    +0.000 A 
ATOM     20  CE1 TYR A   1       5.538   5.775  16.155  0.00  0.00    +0.000 A 
ATOM     21  CZ  TYR A   1       6.597   6.145  16.973  0.00  0.00    +0.000 A 
ATOM     22  CE2 TYR A   1       6.739   5.605  18.244  0.00  0.00    +0.000 A 
ATOM     23  CD2 TYR A   1       5.867   4.601  18.665  0.00  0.00    +0.000 A 
BRANCH  21  24
ATOM     24  OH  TYR A   1       7.542   7.024  16.538  0.00  0.00    +0.000 OA
ATOM     25  HH  TYR A   1       8.377   6.812  16.991  0.00  0.00    +0.000 HD
ENDBRANCH  21  24
ENDBRANCH  17  18
ENDBRANCH   1  17
TORSDOF 8
ENDMDL
