MODEL 1
REMARK VINA RESULT:      -6.5      0.000      0.000
REMARK  Name = 
REMARK  7 active torsions:
REMARK  status: ('A' for Active; 'I' for Inactive)
REMARK    1  A    between atoms: C_1  and  C_2
REMARK    2  A    between atoms: C_2  and  O_3
REMARK    3  A    between atoms: O_3  and  C_4
REMARK    4  A    between atoms: C_11  and  C_12
REMARK    5  A    between atoms: N_13  and  C_14
REMARK    6  A    between atoms: C_17  and  C_18
REMARK    7  A    between atoms: C_21  and  C_22
REMARK                            x       y       z     vdW  Elec       q    Type
REMARK                         _______ _______ _______ _____ _____    ______ ____
ROOT
ATOM      1  C   UNL     1       2.518   2.893  19.131  0.00  0.00    +0.000 A 
ATOM      2  C   UNL     1       2.636   2.145  17.987  0.00  0.00    +0.000 A 
ATOM      3  C   UNL     1       3.962   2.166  17.300  0.00  0.00    +0.000 A 
ATOM      4  C   UNL     1       4.397   3.304  16.722  0.00  0.00    +0.000 A 
ATOM      5  C   UNL     1       4.950   4.188  17.795  0.00  0.00    +0.000 A 
ATOM      6  O   UNL     1       6.151   4.314  18.038  0.00  0.00    +0.000 OA
ATOM      7  C   UNL     1       3.858   4.917  18.431  0.00  0.00    +0.000 A 
ATOM      8  C   UNL     1       3.673   6.288  18.358  0.00  0.00    +0.000 A 
ATOM      9  C   UNL     1       4.511   7.192  17.518  0.00  0.00    +0.000 C 
ATOM     10  N   UNL     1       2.478   6.626  19.000  0.00  0.00    +0.000 N 
ATOM     11  C   UNL     1       1.907   5.408  19.467  0.00  0.00    +0.000 A 
ATOM     12  C   UNL     1       0.734   5.368  20.409  0.00  0.00    +0.000 C 
ATOM     13  C   UNL     1       2.696   4.352  19.020  0.00  0.00    +0.000 A 
ENDROOT
BRANCH  10  14
ATOM     14  C   UNL     1       1.969   7.989  19.078  0.00  0.00    +0.000 A 
ATOM     15  C   UNL     1       1.549   8.589  20.281  0.00  0.00    +0.000 A 
ATOM     16  C   UNL     1       0.961   9.882  20.277  0.00  0.00    +0.000 A 
ATOM     17  C   UNL     1       0.764  10.598  19.088  0.00  0.00    +0.000 A 
ATOM     18  C   UNL     1       0.115  11.949  19.045  0.00  0.00    +0.000 C 
ATOM     19  C   UNL     1       1.191  10.002  17.903  0.00  0.00    +0.000 A 
ATOM     20  C   UNL     1       1.799   8.738  17.909  0.00  0.00    +0.000 A 
ENDBRANCH  10  14
BRANCH   1  21
ATOM     21  O   UNL     1       3.341   2.485  20.180  0.00  0.00    +0.000 OA
BRANCH  21  23
ATOM     22  C   UNL     1       1.528   2.316  21.606  0.00  0.00    +0.000 C 
ATOM     23  C   UNL     1       2.997   2.721  21.541  0.00  0.00    +0.000 C 
ENDBRANCH  21  23
ENDBRANCH   1  21
TORSDOF 3
ENDMDL
MODEL 2
REMARK VINA RESULT:      -6.5      1.024      1.142
REMARK  Name = 
REMARK  7 active torsions:
REMARK  status: ('A' for Active; 'I' for Inactive)
REMARK    1  A    between atoms: C_1  and  C_2
REMARK    2  A    between atoms: C_2  and  O_3
REMARK    3  A    between atoms: O_3  and  C_4
REMARK    4  A    between atoms: C_11  and  C_12
REMARK    5  A    between atoms: N_13  and  C_14
REMARK    6  A    between atoms: C_17  and  C_18
REMARK    7  A    between atoms: C_21  and  C_22
REMARK                            x       y       z     vdW  Elec       q    Type
REMARK                         _______ _______ _______ _____ _____    ______ ____
ROOT
ATOM      1  C   UNL     1       3.390   3.473  18.748  0.00  0.00    +0.000 A 
ATOM      2  C   UNL     1       3.493   2.852  17.529  0.00  0.00    +0.000 A 
ATOM      3  C   UNL     1       4.647   3.247  16.666  0.00  0.00    +0.000 A 
ATOM      4  C   UNL     1       4.701   4.491  16.150  0.00  0.00    +0.000 A 
ATOM      5  C   UNL     1       5.196   5.416  17.218  0.00  0.00    +0.000 A 
ATOM      6  O   UNL     1       6.357   5.821  17.298  0.00  0.00    +0.000 OA
ATOM      7  C   UNL     1       4.082   5.808  18.073  0.00  0.00    +0.000 A 
ATOM      8  C   UNL     1       3.568   7.091  18.166  0.00  0.00    +0.000 A 
ATOM      9  C   UNL     1       4.021   8.227  17.311  0.00  0.00    +0.000 C 
ATOM     10  N   UNL     1       2.448   7.080  19.003  0.00  0.00    +0.000 N 
ATOM     11  C   UNL     1       2.265   5.731  19.420  0.00  0.00    +0.000 A 
ATOM     12  C   UNL     1       1.304   5.340  20.511  0.00  0.00    +0.000 C 
ATOM     13  C   UNL     1       3.197   4.935  18.761  0.00  0.00    +0.000 A 
ENDROOT
BRANCH  10  14
ATOM     14  C   UNL     1       1.651   8.265  19.290  0.00  0.00    +0.000 A 
ATOM     15  C   UNL     1       1.306   8.666  20.595  0.00  0.00    +0.000 A 
ATOM     16  C   UNL     1       0.437   9.769  20.806  0.00  0.00    +0.000 A 
ATOM     17  C   UNL     1      -0.118  10.485  19.736  0.00  0.00    +0.000 A 
ATOM     18  C   UNL     1      -1.066  11.631  19.923  0.00  0.00    +0.000 C 
ATOM     19  C   UNL     1       0.235  10.088  18.448  0.00  0.00    +0.000 A 
ATOM     20  C   UNL     1       1.118   9.018  18.239  0.00  0.00    +0.000 A 
ENDBRANCH  10  14
BRANCH   1  21
ATOM     21  O   UNL     1       4.445   3.217  19.623  0.00  0.00    +0.000 OA
BRANCH  21  23
ATOM     22  C   UNL     1       3.087   2.357  21.285  0.00  0.00    +0.000 C 
ATOM     23  C   UNL     1       4.407   2.141  20.553  0.00  0.00    +0.000 C 
ENDBRANCH  21  23
ENDBRANCH   1  21
TORSDOF 3
ENDMDL
MODEL 3
REMARK VINA RESULT:      -6.5      8.394     11.581
REMARK  Name = 
REMARK  7 active torsions:
REMARK  status: ('A' for Active; 'I' for Inactive)
REMARK    1  A    between atoms: C_1  and  C_2
REMARK    2  A    between atoms: C_2  and  O_3
REMARK    3  A    between atoms: O_3  and  C_4
REMARK    4  A    between atoms: C_11  and  C_12
REMARK    5  A    between atoms: N_13  and  C_14
REMARK    6  A    between atoms: C_17  and  C_18
REMARK    7  A    between atoms: C_21  and  C_22
REMARK                            x       y       z     vdW  Elec       q    Type
REMARK                         _______ _______ _______ _____ _____    ______ ____
ROOT
ATOM      1  C   UNL     1      -4.211  14.391  22.373  0.00  0.00    +0.000 A 
ATOM      2  C   UNL     1      -5.182  15.343  22.551  0.00  0.00    +0.000 A 
ATOM      3  C   UNL     1      -6.531  14.860  22.977  0.00  0.00    +0.000 A 
ATOM      4  C   UNL     1      -7.272  14.117  22.132  0.00  0.00    +0.000 A 
ATOM      5  C   UNL     1      -6.763  12.710  22.183  0.00  0.00    +0.000 A 
ATOM      6  O   UNL     1      -7.296  11.804  22.826  0.00  0.00    +0.000 OA
ATOM      7  C   UNL     1      -5.610  12.581  21.300  0.00  0.00    +0.000 A 
ATOM      8  C   UNL     1      -5.578  11.818  20.145  0.00  0.00    +0.000 A 
ATOM      9  C   UNL     1      -6.768  11.110  19.588  0.00  0.00    +0.000 C 
ATOM     10  N   UNL     1      -4.351  12.005  19.501  0.00  0.00    +0.000 N 
ATOM     11  C   UNL     1      -3.615  12.934  20.291  0.00  0.00    +0.000 A 
ATOM     12  C   UNL     1      -2.156  13.221  20.061  0.00  0.00    +0.000 C 
ATOM     13  C   UNL     1      -4.430  13.372  21.331  0.00  0.00    +0.000 A 
ENDROOT
BRANCH  10  14
ATOM     14  C   UNL     1      -4.004  11.369  18.238  0.00  0.00    +0.000 A 
ATOM     15  C   UNL     1      -2.999  10.390  18.116  0.00  0.00    +0.000 A 
ATOM     16  C   UNL     1      -2.632   9.885  16.840  0.00  0.00    +0.000 A 
ATOM     17  C   UNL     1      -3.237  10.347  15.664  0.00  0.00    +0.000 A 
ATOM     18  C   UNL     1      -2.850   9.861  14.299  0.00  0.00    +0.000 C 
ATOM     19  C   UNL     1      -4.237  11.309  15.792  0.00  0.00    +0.000 A 
ATOM     20  C   UNL     1      -4.622  11.786  17.054  0.00  0.00    +0.000 A 
ENDBRANCH  10  14
BRANCH   1  21
ATOM     21  O   UNL     1      -3.863  13.691  23.528  0.00  0.00    +0.000 OA
BRANCH  21  23
ATOM     22  C   UNL     1      -1.613  14.171  23.761  0.00  0.00    +0.000 C 
ATOM     23  C   UNL     1      -2.954  14.222  24.485  0.00  0.00    +0.000 C 
ENDBRANCH  21  23
ENDBRANCH   1  21
TORSDOF 3
ENDMDL
MODEL 4
REMARK VINA RESULT:      -6.3      0.208      1.016
REMARK  Name = 
REMARK  7 active torsions:
REMARK  status: ('A' for Active; 'I' for Inactive)
REMARK    1  A    between atoms: C_1  and  C_2
REMARK    2  A    between atoms: C_2  and  O_3
REMARK    3  A    between atoms: O_3  and  C_4
REMARK    4  A    between atoms: C_11  and  C_12
REMARK    5  A    between atoms: N_13  and  C_14
REMARK    6  A    between atoms: C_17  and  C_18
REMARK    7  A    between atoms: C_21  and  C_22
REMARK                            x       y       z     vdW  Elec       q    Type
REMARK                         _______ _______ _______ _____ _____    ______ ____
ROOT
ATOM      1  C   UNL     1       2.494   2.954  19.212  0.00  0.00    +0.000 A 
ATOM      2  C   UNL     1       2.607   2.170  18.091  0.00  0.00    +0.000 A 
ATOM      3  C   UNL     1       3.928   2.179  17.392  0.00  0.00    +0.000 A 
ATOM      4  C   UNL     1       4.349   3.300  16.773  0.00  0.00    +0.000 A 
ATOM      5  C   UNL     1       4.904   4.223  17.813  0.00  0.00    +0.000 A 
ATOM      6  O   UNL     1       6.106   4.366  18.040  0.00  0.00    +0.000 OA
ATOM      7  C   UNL     1       3.812   4.965  18.434  0.00  0.00    +0.000 A 
ATOM      8  C   UNL     1       3.616   6.330  18.318  0.00  0.00    +0.000 A 
ATOM      9  C   UNL     1       4.439   7.213  17.441  0.00  0.00    +0.000 C 
ATOM     10  N   UNL     1       2.424   6.681  18.959  0.00  0.00    +0.000 N 
ATOM     11  C   UNL     1       1.866   5.474  19.471  0.00  0.00    +0.000 A 
ATOM     12  C   UNL     1       0.702   5.456  20.424  0.00  0.00    +0.000 C 
ATOM     13  C   UNL     1       2.659   4.410  19.052  0.00  0.00    +0.000 A 
ENDROOT
BRANCH  10  14
ATOM     14  C   UNL     1       1.905   8.041  18.997  0.00  0.00    +0.000 A 
ATOM     15  C   UNL     1       1.874   8.888  17.872  0.00  0.00    +0.000 A 
ATOM     16  C   UNL     1       1.457  10.240  17.995  0.00  0.00    +0.000 A 
ATOM     17  C   UNL     1       1.078  10.784  19.229  0.00  0.00    +0.000 A 
ATOM     18  C   UNL     1       0.665  12.215  19.400  0.00  0.00    +0.000 C 
ATOM     19  C   UNL     1       1.101   9.938  20.336  0.00  0.00    +0.000 A 
ATOM     20  C   UNL     1       1.484   8.594  20.211  0.00  0.00    +0.000 A 
ENDBRANCH  10  14
BRANCH   1  21
ATOM     21  O   UNL     1       3.329   2.587  20.266  0.00  0.00    +0.000 OA
BRANCH  21  23
ATOM     22  C   UNL     1       1.488   2.349  21.646  0.00  0.00    +0.000 C 
ATOM     23  C   UNL     1       2.952   2.776  21.625  0.00  0.00    +0.000 C 
ENDBRANCH  21  23
ENDBRANCH   1  21
TORSDOF 3
ENDMDL
MODEL 5
REMARK VINA RESULT:      -6.3      1.043      1.536
REMARK  Name = 
REMARK  7 active torsions:
REMARK  status: ('A' for Active; 'I' for Inactive)
REMARK    1  A    between atoms: C_1  and  C_2
REMARK    2  A    between atoms: C_2  and  O_3
REMARK    3  A    between atoms: O_3  and  C_4
REMARK    4  A    between atoms: C_11  and  C_12
REMARK    5  A    between atoms: N_13  and  C_14
REMARK    6  A    between atoms: C_17  and  C_18
REMARK    7  A    between atoms: C_21  and  C_22
REMARK                            x       y       z     vdW  Elec       q    Type
REMARK                         _______ _______ _______ _____ _____    ______ ____
ROOT
ATOM      1  C   UNL     1       3.428   3.475  18.696  0.00  0.00    +0.000 A 
ATOM      2  C   UNL     1       3.541   2.876  17.467  0.00  0.00    +0.000 A 
ATOM      3  C   UNL     1       4.690   3.303  16.611  0.00  0.00    +0.000 A 
ATOM      4  C   UNL     1       4.725   4.556  16.116  0.00  0.00    +0.000 A 
ATOM      5  C   UNL     1       5.206   5.470  17.200  0.00  0.00    +0.000 A 
ATOM      6  O   UNL     1       6.361   5.890  17.288  0.00  0.00    +0.000 OA
ATOM      7  C   UNL     1       4.086   5.831  18.060  0.00  0.00    +0.000 A 
ATOM      8  C   UNL     1       3.553   7.104  18.175  0.00  0.00    +0.000 A 
ATOM      9  C   UNL     1       3.989   8.261  17.340  0.00  0.00    +0.000 C 
ATOM     10  N   UNL     1       2.433   7.062  19.011  0.00  0.00    +0.000 N 
ATOM     11  C   UNL     1       2.270   5.704  19.405  0.00  0.00    +0.000 A 
ATOM     12  C   UNL     1       1.314   5.280  20.488  0.00  0.00    +0.000 C 
ATOM     13  C   UNL     1       3.214   4.933  18.734  0.00  0.00    +0.000 A 
ENDROOT
BRANCH  10  14
ATOM     14  C   UNL     1       1.618   8.230  19.317  0.00  0.00    +0.000 A 
ATOM     15  C   UNL     1       1.108   9.096  18.330  0.00  0.00    +0.000 A 
ATOM     16  C   UNL     1       0.411  10.278  18.695  0.00  0.00    +0.000 A 
ATOM     17  C   UNL     1       0.220  10.635  20.037  0.00  0.00    +0.000 A 
ATOM     18  C   UNL     1      -0.480  11.893  20.457  0.00  0.00    +0.000 C 
ATOM     19  C   UNL     1       0.719   9.770  21.008  0.00  0.00    +0.000 A 
ATOM     20  C   UNL     1       1.381   8.586  20.648  0.00  0.00    +0.000 A 
ENDBRANCH  10  14
BRANCH   1  21
ATOM     21  O   UNL     1       4.487   3.220  19.567  0.00  0.00    +0.000 OA
BRANCH  21  23
ATOM     22  C   UNL     1       3.136   2.340  21.225  0.00  0.00    +0.000 C 
ATOM     23  C   UNL     1       4.457   2.138  20.490  0.00  0.00    +0.000 C 
ENDBRANCH  21  23
ENDBRANCH   1  21
TORSDOF 3
ENDMDL
MODEL 6
REMARK VINA RESULT:      -6.2      4.726      7.695
REMARK  Name = 
REMARK  7 active torsions:
REMARK  status: ('A' for Active; 'I' for Inactive)
REMARK    1  A    between atoms: C_1  and  C_2
REMARK    2  A    between atoms: C_2  and  O_3
REMARK    3  A    between atoms: O_3  and  C_4
REMARK    4  A    between atoms: C_11  and  C_12
REMARK    5  A    between atoms: N_13  and  C_14
REMARK    6  A    between atoms: C_17  and  C_18
REMARK    7  A    between atoms: C_21  and  C_22
REMARK                            x       y       z     vdW  Elec       q    Type
REMARK                         _______ _______ _______ _____ _____    ______ ____
ROOT
ATOM      1  C   UNL     1       0.120  10.423  18.453  0.00  0.00    +0.000 A 
ATOM      2  C   UNL     1       1.408   9.967  18.325  0.00  0.00    +0.000 A 
ATOM      3  C   UNL     1       1.740   8.683  19.012  0.00  0.00    +0.000 A 
ATOM      4  C   UNL     1       1.749   8.629  20.359  0.00  0.00    +0.000 A 
ATOM      5  C   UNL     1       0.333   8.501  20.828  0.00  0.00    +0.000 A 
ATOM      6  O   UNL     1      -0.187   7.440  21.178  0.00  0.00    +0.000 OA
ATOM      7  C   UNL     1      -0.282   9.823  20.875  0.00  0.00    +0.000 A 
ATOM      8  C   UNL     1      -0.686  10.467  22.032  0.00  0.00    +0.000 A 
ATOM      9  C   UNL     1      -0.439   9.935  23.404  0.00  0.00    +0.000 C 
ATOM     10  N   UNL     1      -1.140  11.750  21.711  0.00  0.00    +0.000 N 
ATOM     11  C   UNL     1      -0.989  11.895  20.302  0.00  0.00    +0.000 A 
ATOM     12  C   UNL     1      -1.578  13.048  19.535  0.00  0.00    +0.000 C 
ATOM     13  C   UNL     1      -0.359  10.757  19.807  0.00  0.00    +0.000 A 
ENDROOT
BRANCH  10  14
ATOM     14  C   UNL     1      -1.609  12.706  22.705  0.00  0.00    +0.000 A 
ATOM     15  C   UNL     1      -2.889  12.648  23.288  0.00  0.00    +0.000 A 
ATOM     16  C   UNL     1      -3.328  13.670  24.172  0.00  0.00    +0.000 A 
ATOM     17  C   UNL     1      -2.520  14.772  24.482  0.00  0.00    +0.000 A 
ATOM     18  C   UNL     1      -2.966  15.885  25.383  0.00  0.00    +0.000 C 
ATOM     19  C   UNL     1      -1.251  14.818  23.910  0.00  0.00    +0.000 A 
ATOM     20  C   UNL     1      -0.804  13.793  23.061  0.00  0.00    +0.000 A 
ENDBRANCH  10  14
BRANCH   1  21
ATOM     21  O   UNL     1      -0.851   9.592  17.897  0.00  0.00    +0.000 OA
BRANCH  21  23
ATOM     22  C   UNL     1      -3.155   9.663  17.717  0.00  0.00    +0.000 C 
ATOM     23  C   UNL     1      -1.863  10.092  17.031  0.00  0.00    +0.000 C 
ENDBRANCH  21  23
ENDBRANCH   1  21
TORSDOF 3
ENDMDL
MODEL 7
REMARK VINA RESULT:      -6.2      3.811      7.991
REMARK  Name = 
REMARK  7 active torsions:
REMARK  status: ('A' for Active; 'I' for Inactive)
REMARK    1  A    between atoms: C_1  and  C_2
REMARK    2  A    between atoms: C_2  and  O_3
REMARK    3  A    between atoms: O_3  and  C_4
REMARK    4  A    between atoms: C_11  and  C_12
REMARK    5  A    between atoms: N_13  and  C_14
REMARK    6  A    between atoms: C_17  and  C_18
REMARK    7  A    between atoms: C_21  and  C_22
REMARK                            x       y       z     vdW  Elec       q    Type
REMARK                         _______ _______ _______ _____ _____    ______ ____
ROOT
ATOM      1  C   UNL     1      -0.081  12.183  21.726  0.00  0.00    +0.000 A 
ATOM      2  C   UNL     1       0.395  13.395  21.293  0.00  0.00    +0.000 A 
ATOM      3  C   UNL     1      -0.051  13.852  19.943  0.00  0.00    +0.000 A 
ATOM      4  C   UNL     1       0.357  13.187  18.843  0.00  0.00    +0.000 A 
ATOM      5  C   UNL     1      -0.495  11.964  18.699  0.00  0.00    +0.000 A 
ATOM      6  O   UNL     1      -1.448  11.872  17.924  0.00  0.00    +0.000 OA
ATOM      7  C   UNL     1       0.034  10.904  19.549  0.00  0.00    +0.000 A 
ATOM      8  C   UNL     1       0.594   9.724  19.088  0.00  0.00    +0.000 A 
ATOM      9  C   UNL     1       0.834   9.431  17.645  0.00  0.00    +0.000 C 
ATOM     10  N   UNL     1       1.080   8.989  20.173  0.00  0.00    +0.000 N 
ATOM     11  C   UNL     1       0.818   9.763  21.340  0.00  0.00    +0.000 A 
ATOM     12  C   UNL     1       0.982   9.217  22.732  0.00  0.00    +0.000 C 
ATOM     13  C   UNL     1       0.280  10.984  20.946  0.00  0.00    +0.000 A 
ENDROOT
BRANCH  10  14
ATOM     14  C   UNL     1       1.760   7.708  20.033  0.00  0.00    +0.000 A 
ATOM     15  C   UNL     1       2.744   7.459  19.056  0.00  0.00    +0.000 A 
ATOM     16  C   UNL     1       3.293   6.159  18.899  0.00  0.00    +0.000 A 
ATOM     17  C   UNL     1       2.872   5.081  19.689  0.00  0.00    +0.000 A 
ATOM     18  C   UNL     1       3.405   3.689  19.525  0.00  0.00    +0.000 C 
ATOM     19  C   UNL     1       1.905   5.337  20.659  0.00  0.00    +0.000 A 
ATOM     20  C   UNL     1       1.384   6.627  20.837  0.00  0.00    +0.000 A 
ENDBRANCH  10  14
BRANCH   1  21
ATOM     21  O   UNL     1      -1.464  12.128  21.895  0.00  0.00    +0.000 OA
BRANCH  21  23
ATOM     22  C   UNL     1      -3.336  12.570  23.179  0.00  0.00    +0.000 C 
ATOM     23  C   UNL     1      -2.055  11.743  23.131  0.00  0.00    +0.000 C 
ENDBRANCH  21  23
ENDBRANCH   1  21
TORSDOF 3
ENDMDL
MODEL 8
REMARK VINA RESULT:      -6.2      1.844      4.010
REMARK  Name = 
REMARK  7 active torsions:
REMARK  status: ('A' for Active; 'I' for Inactive)
REMARK    1  A    between atoms: C_1  and  C_2
REMARK    2  A    between atoms: C_2  and  O_3
REMARK    3  A    between atoms: O_3  and  C_4
REMARK    4  A    between atoms: C_11  and  C_12
REMARK    5  A    between atoms: N_13  and  C_14
REMARK    6  A    between atoms: C_17  and  C_18
REMARK    7  A    between atoms: C_21  and  C_22
REMARK                            x       y       z     vdW  Elec       q    Type
REMARK                         _______ _______ _______ _____ _____    ______ ____
ROOT
ATOM      1  C   UNL     1       5.095   6.485  17.253  0.00  0.00    +0.000 A 
ATOM      2  C   UNL     1       6.213   5.895  17.788  0.00  0.00    +0.000 A 
ATOM      3  C   UNL     1       6.061   4.498  18.295  0.00  0.00    +0.000 A 
ATOM      4  C   UNL     1       5.294   4.260  19.378  0.00  0.00    +0.000 A 
ATOM      5  C   UNL     1       3.863   4.245  18.939  0.00  0.00    +0.000 A 
ATOM      6  O   UNL     1       3.211   3.219  18.736  0.00  0.00    +0.000 OA
ATOM      7  C   UNL     1       3.363   5.614  18.873  0.00  0.00    +0.000 A 
ATOM      8  C   UNL     1       2.383   6.139  19.699  0.00  0.00    +0.000 A 
ATOM      9  C   UNL     1       1.786   5.399  20.849  0.00  0.00    +0.000 C 
ATOM     10  N   UNL     1       2.226   7.500  19.420  0.00  0.00    +0.000 N 
ATOM     11  C   UNL     1       3.161   7.816  18.393  0.00  0.00    +0.000 A 
ATOM     12  C   UNL     1       3.146   9.127  17.654  0.00  0.00    +0.000 C 
ATOM     13  C   UNL     1       3.934   6.688  18.139  0.00  0.00    +0.000 A 
ENDROOT
BRANCH  10  14
ATOM     14  C   UNL     1       1.294   8.362  20.134  0.00  0.00    +0.000 A 
ATOM     15  C   UNL     1       0.393   9.231  19.488  0.00  0.00    +0.000 A 
ATOM     16  C   UNL     1      -0.415  10.125  20.239  0.00  0.00    +0.000 A 
ATOM     17  C   UNL     1      -0.338  10.189  21.637  0.00  0.00    +0.000 A 
ATOM     18  C   UNL     1      -1.151  11.144  22.457  0.00  0.00    +0.000 C 
ATOM     19  C   UNL     1       0.547   9.320  22.270  0.00  0.00    +0.000 A 
ATOM     20  C   UNL     1       1.324   8.415  21.532  0.00  0.00    +0.000 A 
ENDBRANCH  10  14
BRANCH   1  21
ATOM     21  O   UNL     1       4.601   5.864  16.107  0.00  0.00    +0.000 OA
BRANCH  21  23
ATOM     22  C   UNL     1       5.422   4.246  14.674  0.00  0.00    +0.000 C 
ATOM     23  C   UNL     1       5.375   5.751  14.919  0.00  0.00    +0.000 C 
ENDBRANCH  21  23
ENDBRANCH   1  21
TORSDOF 3
ENDMDL
MODEL 9
REMARK VINA RESULT:      -6.2      4.809      7.834
REMARK  Name = 
REMARK  7 active torsions:
REMARK  status: ('A' for Active; 'I' for Inactive)
REMARK    1  A    between atoms: C_1  and  C_2
REMARK    2  A    between atoms: C_2  and  O_3
REMARK    3  A    between atoms: O_3  and  C_4
REMARK    4  A    between atoms: C_11  and  C_12
REMARK    5  A    between atoms: N_13  and  C_14
REMARK    6  A    between atoms: C_17  and  C_18
REMARK    7  A    between atoms: C_21  and  C_22
REMARK                            x       y       z     vdW  Elec       q    Type
REMARK                         _______ _______ _______ _____ _____    ______ ____
ROOT
ATOM      1  C   UNL     1       0.256  10.404  18.450  0.00  0.00    +0.000 A 
ATOM      2  C   UNL     1       1.476   9.776  18.473  0.00  0.00    +0.000 A 
ATOM      3  C   UNL     1       1.577   8.528  19.288  0.00  0.00    +0.000 A 
ATOM      4  C   UNL     1       1.474   8.596  20.631  0.00  0.00    +0.000 A 
ATOM      5  C   UNL     1       0.022   8.695  20.981  0.00  0.00    +0.000 A 
ATOM      6  O   UNL     1      -0.663   7.747  21.367  0.00  0.00    +0.000 OA
ATOM      7  C   UNL     1      -0.409  10.084  20.867  0.00  0.00    +0.000 A 
ATOM      8  C   UNL     1      -0.809  10.878  21.928  0.00  0.00    +0.000 A 
ATOM      9  C   UNL     1      -0.744  10.446  23.355  0.00  0.00    +0.000 C 
ATOM     10  N   UNL     1      -1.059  12.174  21.467  0.00  0.00    +0.000 N 
ATOM     11  C   UNL     1      -0.781  12.169  20.070  0.00  0.00    +0.000 A 
ATOM     12  C   UNL     1      -1.147  13.313  19.164  0.00  0.00    +0.000 C 
ATOM     13  C   UNL     1      -0.276  10.919  19.725  0.00  0.00    +0.000 A 
ENDROOT
BRANCH  10  14
ATOM     14  C   UNL     1      -1.468  13.269  22.336  0.00  0.00    +0.000 A 
ATOM     15  C   UNL     1      -0.575  14.240  22.828  0.00  0.00    +0.000 A 
ATOM     16  C   UNL     1      -1.012  15.220  23.758  0.00  0.00    +0.000 A 
ATOM     17  C   UNL     1      -2.332  15.250  24.230  0.00  0.00    +0.000 A 
ATOM     18  C   UNL     1      -2.817  16.248  25.237  0.00  0.00    +0.000 C 
ATOM     19  C   UNL     1      -3.212  14.292  23.732  0.00  0.00    +0.000 A 
ATOM     20  C   UNL     1      -2.789  13.343  22.789  0.00  0.00    +0.000 A 
ENDBRANCH  10  14
BRANCH   1  21
ATOM     21  O   UNL     1      -0.773   9.657  17.878  0.00  0.00    +0.000 OA
BRANCH  21  23
ATOM     22  C   UNL     1      -3.071   9.708  17.634  0.00  0.00    +0.000 C 
ATOM     23  C   UNL     1      -1.770  10.255  17.058  0.00  0.00    +0.000 C 
ENDBRANCH  21  23
ENDBRANCH   1  21
TORSDOF 3
ENDMDL
