MODEL 1
REMARK VINA RESULT:      -9.7      0.000      0.000
REMARK  Name = 
REMARK  7 active torsions:
REMARK  status: ('A' for Active; 'I' for Inactive)
REMARK    1  A    between atoms: C_1  and  N_2
REMARK    2  A    between atoms: C_4  and  C_5
REMARK    3  A    between atoms: C_7  and  C_8
REMARK    4  A    between atoms: C_14  and  C_15
REMARK    5  A    between atoms: C_15  and  C_16
REMARK    6  A    between atoms: C_18  and  C_19
REMARK    7  A    between atoms: C_23  and  C_24
REMARK                            x       y       z     vdW  Elec       q    Type
REMARK                         _______ _______ _______ _____ _____    ______ ____
ROOT
ATOM      1  C   UNL     1       3.581   5.395  18.355  0.00  0.00    +0.000 A 
ATOM      2  C   UNL     1       3.623   4.198  19.077  0.00  0.00    +0.000 A 
ATOM      3  C   UNL     1       2.936   4.118  20.272  0.00  0.00    +0.000 A 
ATOM      4  N   UNL     1       2.216   5.138  20.807  0.00  0.00    +0.000 NA
ATOM      5  C   UNL     1       2.173   6.294  20.124  0.00  0.00    +0.000 A 
ATOM      6  C   UNL     1       1.435   7.341  20.670  0.00  0.00    +0.000 A 
ATOM      7  C   UNL     1       1.322   8.597  20.050  0.00  0.00    +0.000 A 
ATOM      8  C   UNL     1       1.963   8.790  18.832  0.00  0.00    +0.000 A 
ATOM      9  C   UNL     1       2.682   7.749  18.249  0.00  0.00    +0.000 A 
ATOM     10  C   UNL     1       2.831   6.489  18.882  0.00  0.00    +0.000 A 
ENDROOT
BRANCH   1  14
ATOM     11  C   UNL     1       6.097   4.088  14.267  0.00  0.00    +0.000 C 
ATOM     12  N   UNL     1       5.427   4.854  15.289  0.00  0.00    +0.000 N 
ATOM     13  C   UNL     1       4.699   4.373  16.340  0.00  0.00    +0.000 A 
ATOM     14  C   UNL     1       4.336   5.467  17.104  0.00  0.00    +0.000 A 
ATOM     15  C   UNL     1       4.917   6.557  16.410  0.00  0.00    +0.000 A 
ATOM     16  N   UNL     1       5.544   6.192  15.291  0.00  0.00    +0.000 NA
ENDBRANCH   1  14
BRANCH   3  17
ATOM     17  C   UNL     1       2.973   2.835  21.049  0.00  0.00    +0.000 C 
ATOM     18  N   UNL     1       1.926   2.622  21.901  0.00  0.00    +0.000 N 
ATOM     19  O   UNL     1       3.881   2.022  20.934  0.00  0.00    +0.000 OA
ATOM     20  H   UNL     1       1.185   3.309  21.975  0.00  0.00    +0.000 HD
ATOM     21  H   UNL     1       1.899   1.775  22.451  0.00  0.00    +0.000 HD
ENDBRANCH   3  17
BRANCH   7  22
ATOM     22  C   UNL     1       0.458   9.692  20.635  0.00  0.00    +0.000 C 
BRANCH  22  23
ATOM     23  C   UNL     1      -0.168  10.556  19.563  0.00  0.00    +0.000 A 
ATOM     24  C   UNL     1       0.177  11.905  19.458  0.00  0.00    +0.000 A 
ATOM     25  C   UNL     1      -0.493  12.736  18.560  0.00  0.00    +0.000 A 
ATOM     26  N   UNL     1      -1.461  12.244  17.750  0.00  0.00    +0.000 NA
ATOM     27  C   UNL     1      -1.798  10.926  17.829  0.00  0.00    +0.000 A 
ATOM     28  C   UNL     1      -1.172  10.062  18.728  0.00  0.00    +0.000 A 
BRANCH  27  29
ATOM     29  C   UNL     1      -2.918  10.390  16.948  0.00  0.00    +0.000 C 
ATOM     30  F   UNL     1      -3.837  11.322  16.566  0.00  0.00    +0.000 F 
ATOM     31  F   UNL     1      -2.450   9.834  15.790  0.00  0.00    +0.000 F 
ATOM     32  F   UNL     1      -3.632   9.397  17.560  0.00  0.00    +0.000 F 
ENDBRANCH  27  29
BRANCH  25  33
ATOM     33  C   UNL     1      -0.235  14.222  18.547  0.00  0.00    +0.000 C 
ATOM     34  C   UNL     1      -0.623  15.103  19.712  0.00  0.00    +0.000 C 
ATOM     35  C   UNL     1       0.825  14.814  19.445  0.00  0.00    +0.000 C 
ENDBRANCH  25  33
ENDBRANCH  22  23
ENDBRANCH   7  22
TORSDOF 6
ENDMDL
MODEL 2
REMARK VINA RESULT:      -9.2      1.837      2.877
REMARK  Name = 
REMARK  7 active torsions:
REMARK  status: ('A' for Active; 'I' for Inactive)
REMARK    1  A    between atoms: C_1  and  N_2
REMARK    2  A    between atoms: C_4  and  C_5
REMARK    3  A    between atoms: C_7  and  C_8
REMARK    4  A    between atoms: C_14  and  C_15
REMARK    5  A    between atoms: C_15  and  C_16
REMARK    6  A    between atoms: C_18  and  C_19
REMARK    7  A    between atoms: C_23  and  C_24
REMARK                            x       y       z     vdW  Elec       q    Type
REMARK                         _______ _______ _______ _____ _____    ______ ____
ROOT
ATOM      1  C   UNL     1       3.529   5.421  18.495  0.00  0.00    +0.000 A 
ATOM      2  C   UNL     1       3.613   4.192  19.157  0.00  0.00    +0.000 A 
ATOM      3  C   UNL     1       2.942   4.034  20.353  0.00  0.00    +0.000 A 
ATOM      4  N   UNL     1       2.199   5.007  20.944  0.00  0.00    +0.000 NA
ATOM      5  C   UNL     1       2.116   6.193  20.319  0.00  0.00    +0.000 A 
ATOM      6  C   UNL     1       1.355   7.190  20.923  0.00  0.00    +0.000 A 
ATOM      7  C   UNL     1       1.200   8.471  20.366  0.00  0.00    +0.000 A 
ATOM      8  C   UNL     1       1.821   8.741  19.153  0.00  0.00    +0.000 A 
ATOM      9  C   UNL     1       2.563   7.750  18.513  0.00  0.00    +0.000 A 
ATOM     10  C   UNL     1       2.754   6.466  19.082  0.00  0.00    +0.000 A 
ENDROOT
BRANCH   1  14
ATOM     11  C   UNL     1       5.969   4.387  14.284  0.00  0.00    +0.000 C 
ATOM     12  N   UNL     1       5.325   5.083  15.370  0.00  0.00    +0.000 N 
ATOM     13  C   UNL     1       4.604   4.536  16.394  0.00  0.00    +0.000 A 
ATOM     14  C   UNL     1       4.268   5.575  17.241  0.00  0.00    +0.000 A 
ATOM     15  C   UNL     1       4.854   6.706  16.620  0.00  0.00    +0.000 A 
ATOM     16  N   UNL     1       5.461   6.416  15.469  0.00  0.00    +0.000 NA
ENDBRANCH   1  14
BRANCH   3  17
ATOM     17  C   UNL     1       3.024   2.717  21.067  0.00  0.00    +0.000 C 
ATOM     18  N   UNL     1       1.974   2.416  21.887  0.00  0.00    +0.000 N 
ATOM     19  O   UNL     1       3.969   1.952  20.928  0.00  0.00    +0.000 OA
ATOM     20  H   UNL     1       1.202   3.064  21.983  0.00  0.00    +0.000 HD
ATOM     21  H   UNL     1       1.976   1.542  22.394  0.00  0.00    +0.000 HD
ENDBRANCH   3  17
BRANCH   7  22
ATOM     22  C   UNL     1       0.312   9.511  21.012  0.00  0.00    +0.000 C 
BRANCH  22  23
ATOM     23  C   UNL     1      -0.263  10.476  20.000  0.00  0.00    +0.000 A 
ATOM     24  C   UNL     1      -1.220  10.041  19.079  0.00  0.00    +0.000 A 
ATOM     25  C   UNL     1      -1.653  10.889  18.060  0.00  0.00    +0.000 A 
ATOM     26  N   UNL     1      -1.187  12.158  17.967  0.00  0.00    +0.000 NA
ATOM     27  C   UNL     1      -0.265  12.602  18.868  0.00  0.00    +0.000 A 
ATOM     28  C   UNL     1       0.217  11.782  19.890  0.00  0.00    +0.000 A 
BRANCH  27  29
ATOM     29  C   UNL     1       0.290  14.013  18.730  0.00  0.00    +0.000 C 
ATOM     30  F   UNL     1      -0.557  14.901  18.136  0.00  0.00    +0.000 F 
ATOM     31  F   UNL     1       0.618  14.564  19.938  0.00  0.00    +0.000 F 
ATOM     32  F   UNL     1       1.441  14.050  17.994  0.00  0.00    +0.000 F 
ENDBRANCH  27  29
BRANCH  25  33
ATOM     33  C   UNL     1      -2.568  10.381  16.973  0.00  0.00    +0.000 C 
ATOM     34  C   UNL     1      -3.927  10.993  16.733  0.00  0.00    +0.000 C 
ATOM     35  C   UNL     1      -2.823  11.222  15.744  0.00  0.00    +0.000 C 
ENDBRANCH  25  33
ENDBRANCH  22  23
ENDBRANCH   7  22
TORSDOF 6
ENDMDL
MODEL 3
REMARK VINA RESULT:      -9.0      2.723      4.998
REMARK  Name = 
REMARK  7 active torsions:
REMARK  status: ('A' for Active; 'I' for Inactive)
REMARK    1  A    between atoms: C_1  and  N_2
REMARK    2  A    between atoms: C_4  and  C_5
REMARK    3  A    between atoms: C_7  and  C_8
REMARK    4  A    between atoms: C_14  and  C_15
REMARK    5  A    between atoms: C_15  and  C_16
REMARK    6  A    between atoms: C_18  and  C_19
REMARK    7  A    between atoms: C_23  and  C_24
REMARK                            x       y       z     vdW  Elec       q    Type
REMARK                         _______ _______ _______ _____ _____    ______ ____
ROOT
ATOM      1  C   UNL     1       4.118   4.656  18.425  0.00  0.00    +0.000 A 
ATOM      2  C   UNL     1       5.026   4.225  17.452  0.00  0.00    +0.000 A 
ATOM      3  C   UNL     1       5.378   5.095  16.440  0.00  0.00    +0.000 A 
ATOM      4  N   UNL     1       4.892   6.358  16.317  0.00  0.00    +0.000 NA
ATOM      5  C   UNL     1       4.016   6.780  17.243  0.00  0.00    +0.000 A 
ATOM      6  C   UNL     1       3.518   8.075  17.119  0.00  0.00    +0.000 A 
ATOM      7  C   UNL     1       2.594   8.624  18.024  0.00  0.00    +0.000 A 
ATOM      8  C   UNL     1       2.176   7.843  19.094  0.00  0.00    +0.000 A 
ATOM      9  C   UNL     1       2.683   6.555  19.258  0.00  0.00    +0.000 A 
ATOM     10  C   UNL     1       3.590   5.979  18.333  0.00  0.00    +0.000 A 
ENDROOT
BRANCH   1  14
ATOM     11  C   UNL     1       1.548   2.324  21.990  0.00  0.00    +0.000 C 
ATOM     12  N   UNL     1       2.566   2.686  21.035  0.00  0.00    +0.000 N 
ATOM     13  C   UNL     1       2.501   3.666  20.086  0.00  0.00    +0.000 A 
ATOM     14  C   UNL     1       3.740   3.711  19.476  0.00  0.00    +0.000 A 
ATOM     15  C   UNL     1       4.475   2.708  20.156  0.00  0.00    +0.000 A 
ATOM     16  N   UNL     1       3.754   2.061  21.073  0.00  0.00    +0.000 NA
ENDBRANCH   1  14
BRANCH   3  17
ATOM     17  C   UNL     1       6.353   4.640  15.395  0.00  0.00    +0.000 C 
ATOM     18  N   UNL     1       7.457   5.427  15.225  0.00  0.00    +0.000 N 
ATOM     19  O   UNL     1       6.181   3.626  14.731  0.00  0.00    +0.000 OA
ATOM     20  H   UNL     1       7.579   6.259  15.789  0.00  0.00    +0.000 HD
ATOM     21  H   UNL     1       8.148   5.169  14.534  0.00  0.00    +0.000 HD
ENDBRANCH   3  17
BRANCH   7  22
ATOM     22  C   UNL     1       2.123  10.056  17.900  0.00  0.00    +0.000 C 
BRANCH  22  23
ATOM     23  C   UNL     1       0.783  10.273  18.565  0.00  0.00    +0.000 A 
ATOM     24  C   UNL     1      -0.397   9.955  17.888  0.00  0.00    +0.000 A 
ATOM     25  C   UNL     1      -1.636  10.276  18.441  0.00  0.00    +0.000 A 
ATOM     26  N   UNL     1      -1.721  10.866  19.658  0.00  0.00    +0.000 NA
ATOM     27  C   UNL     1      -0.579  11.168  20.339  0.00  0.00    +0.000 A 
ATOM     28  C   UNL     1       0.684  10.888  19.814  0.00  0.00    +0.000 A 
BRANCH  27  29
ATOM     29  C   UNL     1      -0.680  11.873  21.685  0.00  0.00    +0.000 C 
ATOM     30  F   UNL     1       0.220  12.881  21.867  0.00  0.00    +0.000 F 
ATOM     31  F   UNL     1      -1.910  12.432  21.889  0.00  0.00    +0.000 F 
ATOM     32  F   UNL     1      -0.495  11.018  22.735  0.00  0.00    +0.000 F 
ENDBRANCH  27  29
BRANCH  25  33
ATOM     33  C   UNL     1      -2.907  10.077  17.653  0.00  0.00    +0.000 C 
ATOM     34  C   UNL     1      -3.410  11.122  16.685  0.00  0.00    +0.000 C 
ATOM     35  C   UNL     1      -2.843   9.835  16.163  0.00  0.00    +0.000 C 
ENDBRANCH  25  33
ENDBRANCH  22  23
ENDBRANCH   7  22
TORSDOF 6
ENDMDL
MODEL 4
REMARK VINA RESULT:      -9.0      2.006      2.911
REMARK  Name = 
REMARK  7 active torsions:
REMARK  status: ('A' for Active; 'I' for Inactive)
REMARK    1  A    between atoms: C_1  and  N_2
REMARK    2  A    between atoms: C_4  and  C_5
REMARK    3  A    between atoms: C_7  and  C_8
REMARK    4  A    between atoms: C_14  and  C_15
REMARK    5  A    between atoms: C_15  and  C_16
REMARK    6  A    between atoms: C_18  and  C_19
REMARK    7  A    between atoms: C_23  and  C_24
REMARK                            x       y       z     vdW  Elec       q    Type
REMARK                         _______ _______ _______ _____ _____    ______ ____
ROOT
ATOM      1  C   UNL     1       3.125   5.998  18.456  0.00  0.00    +0.000 A 
ATOM      2  C   UNL     1       2.874   4.864  19.235  0.00  0.00    +0.000 A 
ATOM      3  C   UNL     1       2.077   4.991  20.355  0.00  0.00    +0.000 A 
ATOM      4  N   UNL     1       1.518   6.160  20.764  0.00  0.00    +0.000 NA
ATOM      5  C   UNL     1       1.757   7.256  20.025  0.00  0.00    +0.000 A 
ATOM      6  C   UNL     1       1.183   8.455  20.442  0.00  0.00    +0.000 A 
ATOM      7  C   UNL     1       1.367   9.665  19.754  0.00  0.00    +0.000 A 
ATOM      8  C   UNL     1       2.142   9.656  18.600  0.00  0.00    +0.000 A 
ATOM      9  C   UNL     1       2.701   8.464  18.145  0.00  0.00    +0.000 A 
ATOM     10  C   UNL     1       2.551   7.243  18.850  0.00  0.00    +0.000 A 
ENDROOT
BRANCH   1  14
ATOM     11  C   UNL     1       5.932   3.981  14.877  0.00  0.00    +0.000 C 
ATOM     12  N   UNL     1       5.211   4.919  15.701  0.00  0.00    +0.000 N 
ATOM     13  C   UNL     1       4.370   4.635  16.739  0.00  0.00    +0.000 A 
ATOM     14  C   UNL     1       3.992   5.846  17.286  0.00  0.00    +0.000 A 
ATOM     15  C   UNL     1       4.682   6.794  16.491  0.00  0.00    +0.000 A 
ATOM     16  N   UNL     1       5.390   6.236  15.507  0.00  0.00    +0.000 NA
ENDBRANCH   1  14
BRANCH   3  17
ATOM     17  C   UNL     1       1.800   3.778  21.194  0.00  0.00    +0.000 C 
ATOM     18  N   UNL     1       0.751   3.000  20.791  0.00  0.00    +0.000 N 
ATOM     19  O   UNL     1       2.469   3.493  22.179  0.00  0.00    +0.000 OA
ATOM     20  H   UNL     1       0.216   3.256  19.970  0.00  0.00    +0.000 HD
ATOM     21  H   UNL     1       0.518   2.171  21.319  0.00  0.00    +0.000 HD
ENDBRANCH   3  17
BRANCH   7  22
ATOM     22  C   UNL     1       0.676  10.937  20.194  0.00  0.00    +0.000 C 
BRANCH  22  23
ATOM     23  C   UNL     1      -0.676  11.105  19.536  0.00  0.00    +0.000 A 
ATOM     24  C   UNL     1      -0.881  10.660  18.228  0.00  0.00    +0.000 A 
ATOM     25  C   UNL     1      -2.081  10.932  17.572  0.00  0.00    +0.000 A 
ATOM     26  N   UNL     1      -3.081  11.596  18.200  0.00  0.00    +0.000 NA
ATOM     27  C   UNL     1      -2.902  12.023  19.482  0.00  0.00    +0.000 A 
ATOM     28  C   UNL     1      -1.710  11.796  20.171  0.00  0.00    +0.000 A 
BRANCH  27  29
ATOM     29  C   UNL     1      -4.012  12.809  20.166  0.00  0.00    +0.000 C 
ATOM     30  F   UNL     1      -5.143  12.961  19.422  0.00  0.00    +0.000 F 
ATOM     31  F   UNL     1      -4.413  12.231  21.338  0.00  0.00    +0.000 F 
ATOM     32  F   UNL     1      -3.621  14.074  20.506  0.00  0.00    +0.000 F 
ENDBRANCH  27  29
BRANCH  25  33
ATOM     33  C   UNL     1      -2.255  10.591  16.112  0.00  0.00    +0.000 C 
ATOM     34  C   UNL     1      -3.116   9.433  15.667  0.00  0.00    +0.000 C 
ATOM     35  C   UNL     1      -3.578  10.840  15.429  0.00  0.00    +0.000 C 
ENDBRANCH  25  33
ENDBRANCH  22  23
ENDBRANCH   7  22
TORSDOF 6
ENDMDL
MODEL 5
REMARK VINA RESULT:      -8.9      1.729      2.022
REMARK  Name = 
REMARK  7 active torsions:
REMARK  status: ('A' for Active; 'I' for Inactive)
REMARK    1  A    between atoms: C_1  and  N_2
REMARK    2  A    between atoms: C_4  and  C_5
REMARK    3  A    between atoms: C_7  and  C_8
REMARK    4  A    between atoms: C_14  and  C_15
REMARK    5  A    between atoms: C_15  and  C_16
REMARK    6  A    between atoms: C_18  and  C_19
REMARK    7  A    between atoms: C_23  and  C_24
REMARK                            x       y       z     vdW  Elec       q    Type
REMARK                         _______ _______ _______ _____ _____    ______ ____
ROOT
ATOM      1  C   UNL     1       3.073   6.002  18.568  0.00  0.00    +0.000 A 
ATOM      2  C   UNL     1       2.849   4.839  19.314  0.00  0.00    +0.000 A 
ATOM      3  C   UNL     1       2.065   4.918  20.447  0.00  0.00    +0.000 A 
ATOM      4  N   UNL     1       1.492   6.064  20.899  0.00  0.00    +0.000 NA
ATOM      5  C   UNL     1       1.705   7.187  20.193  0.00  0.00    +0.000 A 
ATOM      6  C   UNL     1       1.117   8.363  20.655  0.00  0.00    +0.000 A 
ATOM      7  C   UNL     1       1.274   9.597  20.003  0.00  0.00    +0.000 A 
ATOM      8  C   UNL     1       2.034   9.637  18.841  0.00  0.00    +0.000 A 
ATOM      9  C   UNL     1       2.607   8.469  18.341  0.00  0.00    +0.000 A 
ATOM     10  C   UNL     1       2.484   7.225  19.009  0.00  0.00    +0.000 A 
ENDROOT
BRANCH   1  14
ATOM     11  C   UNL     1       5.886   4.146  14.908  0.00  0.00    +0.000 C 
ATOM     12  N   UNL     1       5.150   5.045  15.762  0.00  0.00    +0.000 N 
ATOM     13  C   UNL     1       4.332   4.713  16.804  0.00  0.00    +0.000 A 
ATOM     14  C   UNL     1       3.927   5.901  17.384  0.00  0.00    +0.000 A 
ATOM     15  C   UNL     1       4.580   6.885  16.601  0.00  0.00    +0.000 A 
ATOM     16  N   UNL     1       5.289   6.370  15.596  0.00  0.00    +0.000 NA
ENDBRANCH   1  14
BRANCH   3  17
ATOM     17  C   UNL     1       1.817   3.675  21.250  0.00  0.00    +0.000 C 
ATOM     18  N   UNL     1       0.750   2.915  20.860  0.00  0.00    +0.000 N 
ATOM     19  O   UNL     1       2.523   3.352  22.196  0.00  0.00    +0.000 OA
ATOM     20  H   UNL     1       0.184   3.203  20.072  0.00  0.00    +0.000 HD
ATOM     21  H   UNL     1       0.536   2.067  21.366  0.00  0.00    +0.000 HD
ENDBRANCH   3  17
BRANCH   7  22
ATOM     22  C   UNL     1       0.568  10.843  20.491  0.00  0.00    +0.000 C 
BRANCH  22  23
ATOM     23  C   UNL     1      -0.678  11.142  19.688  0.00  0.00    +0.000 A 
ATOM     24  C   UNL     1      -1.666  11.980  20.210  0.00  0.00    +0.000 A 
ATOM     25  C   UNL     1      -2.873  12.152  19.533  0.00  0.00    +0.000 A 
ATOM     26  N   UNL     1      -3.095  11.543  18.343  0.00  0.00    +0.000 NA
ATOM     27  C   UNL     1      -2.134  10.735  17.813  0.00  0.00    +0.000 A 
ATOM     28  C   UNL     1      -0.920  10.513  18.465  0.00  0.00    +0.000 A 
BRANCH  27  29
ATOM     29  C   UNL     1      -2.407  10.017  16.499  0.00  0.00    +0.000 C 
ATOM     30  F   UNL     1      -3.601   9.360  16.447  0.00  0.00    +0.000 F 
ATOM     31  F   UNL     1      -2.407  10.870  15.430  0.00  0.00    +0.000 F 
ATOM     32  F   UNL     1      -1.456   9.080  16.210  0.00  0.00    +0.000 F 
ENDBRANCH  27  29
BRANCH  25  33
ATOM     33  C   UNL     1      -4.003  12.930  20.161  0.00  0.00    +0.000 C 
ATOM     34  C   UNL     1      -5.262  12.248  20.642  0.00  0.00    +0.000 C 
ATOM     35  C   UNL     1      -4.285  12.797  21.638  0.00  0.00    +0.000 C 
ENDBRANCH  25  33
ENDBRANCH  22  23
ENDBRANCH   7  22
TORSDOF 6
ENDMDL
MODEL 6
REMARK VINA RESULT:      -8.9      2.709      3.232
REMARK  Name = 
REMARK  7 active torsions:
REMARK  status: ('A' for Active; 'I' for Inactive)
REMARK    1  A    between atoms: C_1  and  N_2
REMARK    2  A    between atoms: C_4  and  C_5
REMARK    3  A    between atoms: C_7  and  C_8
REMARK    4  A    between atoms: C_14  and  C_15
REMARK    5  A    between atoms: C_15  and  C_16
REMARK    6  A    between atoms: C_18  and  C_19
REMARK    7  A    between atoms: C_23  and  C_24
REMARK                            x       y       z     vdW  Elec       q    Type
REMARK                         _______ _______ _______ _____ _____    ______ ____
ROOT
ATOM      1  C   UNL     1       4.250   5.216  18.446  0.00  0.00    +0.000 A 
ATOM      2  C   UNL     1       3.869   4.215  19.347  0.00  0.00    +0.000 A 
ATOM      3  C   UNL     1       2.717   4.391  20.086  0.00  0.00    +0.000 A 
ATOM      4  N   UNL     1       1.918   5.487  20.004  0.00  0.00    +0.000 NA
ATOM      5  C   UNL     1       2.278   6.456  19.146  0.00  0.00    +0.000 A 
ATOM      6  C   UNL     1       1.459   7.580  19.060  0.00  0.00    +0.000 A 
ATOM      7  C   UNL     1       1.736   8.658  18.203  0.00  0.00    +0.000 A 
ATOM      8  C   UNL     1       2.866   8.586  17.397  0.00  0.00    +0.000 A 
ATOM      9  C   UNL     1       3.684   7.459  17.442  0.00  0.00    +0.000 A 
ATOM     10  C   UNL     1       3.434   6.381  18.328  0.00  0.00    +0.000 A 
ENDROOT
BRANCH   1  14
ATOM     11  C   UNL     1       7.455   4.644  14.683  0.00  0.00    +0.000 C 
ATOM     12  N   UNL     1       6.884   4.793  15.999  0.00  0.00    +0.000 N 
ATOM     13  C   UNL     1       5.584   5.072  16.312  0.00  0.00    +0.000 A 
ATOM     14  C   UNL     1       5.487   5.021  17.690  0.00  0.00    +0.000 A 
ATOM     15  C   UNL     1       6.804   4.691  18.097  0.00  0.00    +0.000 A 
ATOM     16  N   UNL     1       7.658   4.590  17.078  0.00  0.00    +0.000 NA
ENDBRANCH   1  14
BRANCH   3  17
ATOM     17  C   UNL     1       2.301   3.321  21.051  0.00  0.00    +0.000 C 
ATOM     18  N   UNL     1       1.524   2.321  20.536  0.00  0.00    +0.000 N 
ATOM     19  O   UNL     1       2.633   3.332  22.230  0.00  0.00    +0.000 OA
ATOM     20  H   UNL     1       1.266   2.333  19.557  0.00  0.00    +0.000 HD
ATOM     21  H   UNL     1       1.214   1.574  21.142  0.00  0.00    +0.000 HD
ENDBRANCH   3  17
BRANCH   7  22
ATOM     22  C   UNL     1       0.792   9.834  18.083  0.00  0.00    +0.000 C 
BRANCH  22  23
ATOM     23  C   UNL     1       0.603  10.547  19.402  0.00  0.00    +0.000 A 
ATOM     24  C   UNL     1       1.059  11.858  19.564  0.00  0.00    +0.000 A 
ATOM     25  C   UNL     1       1.007  12.472  20.815  0.00  0.00    +0.000 A 
ATOM     26  N   UNL     1       0.480  11.828  21.884  0.00  0.00    +0.000 NA
ATOM     27  C   UNL     1       0.016  10.554  21.738  0.00  0.00    +0.000 A 
ATOM     28  C   UNL     1       0.069   9.890  20.512  0.00  0.00    +0.000 A 
BRANCH  27  29
ATOM     29  C   UNL     1      -0.532   9.818  22.953  0.00  0.00    +0.000 C 
ATOM     30  F   UNL     1      -1.550  10.459  23.594  0.00  0.00    +0.000 F 
ATOM     31  F   UNL     1      -1.015   8.579  22.638  0.00  0.00    +0.000 F 
ATOM     32  F   UNL     1       0.424   9.600  23.905  0.00  0.00    +0.000 F 
ENDBRANCH  27  29
BRANCH  25  33
ATOM     33  C   UNL     1       1.635  13.826  21.034  0.00  0.00    +0.000 C 
ATOM     34  C   UNL     1       3.133  13.999  21.120  0.00  0.00    +0.000 C 
ATOM     35  C   UNL     1       2.394  14.499  19.915  0.00  0.00    +0.000 C 
ENDBRANCH  25  33
ENDBRANCH  22  23
ENDBRANCH   7  22
TORSDOF 6
ENDMDL
MODEL 7
REMARK VINA RESULT:      -8.7      4.054      9.215
REMARK  Name = 
REMARK  7 active torsions:
REMARK  status: ('A' for Active; 'I' for Inactive)
REMARK    1  A    between atoms: C_1  and  N_2
REMARK    2  A    between atoms: C_4  and  C_5
REMARK    3  A    between atoms: C_7  and  C_8
REMARK    4  A    between atoms: C_14  and  C_15
REMARK    5  A    between atoms: C_15  and  C_16
REMARK    6  A    between atoms: C_18  and  C_19
REMARK    7  A    between atoms: C_23  and  C_24
REMARK                            x       y       z     vdW  Elec       q    Type
REMARK                         _______ _______ _______ _____ _____    ______ ____
ROOT
ATOM      1  C   UNL     1      -1.352  11.169  19.842  0.00  0.00    +0.000 A 
ATOM      2  C   UNL     1      -2.477  11.471  19.067  0.00  0.00    +0.000 A 
ATOM      3  C   UNL     1      -2.532  11.009  17.768  0.00  0.00    +0.000 A 
ATOM      4  N   UNL     1      -1.553  10.275  17.178  0.00  0.00    +0.000 NA
ATOM      5  C   UNL     1      -0.466   9.983  17.912  0.00  0.00    +0.000 A 
ATOM      6  C   UNL     1       0.539   9.230  17.309  0.00  0.00    +0.000 A 
ATOM      7  C   UNL     1       1.722   8.869  17.975  0.00  0.00    +0.000 A 
ATOM      8  C   UNL     1       1.883   9.269  19.296  0.00  0.00    +0.000 A 
ATOM      9  C   UNL     1       0.878   9.996  19.931  0.00  0.00    +0.000 A 
ATOM     10  C   UNL     1      -0.304  10.396  19.259  0.00  0.00    +0.000 A 
ENDROOT
BRANCH   1  14
ATOM     11  C   UNL     1      -1.183  14.291  23.712  0.00  0.00    +0.000 C 
ATOM     12  N   UNL     1      -1.251  13.100  22.902  0.00  0.00    +0.000 N 
ATOM     13  C   UNL     1      -1.383  13.028  21.545  0.00  0.00    +0.000 A 
ATOM     14  C   UNL     1      -1.303  11.689  21.209  0.00  0.00    +0.000 A 
ATOM     15  C   UNL     1      -1.112  11.050  22.459  0.00  0.00    +0.000 A 
ATOM     16  N   UNL     1      -1.118  11.898  23.488  0.00  0.00    +0.000 NA
ENDBRANCH   1  14
BRANCH   3  17
ATOM     17  C   UNL     1      -3.737  11.326  16.932  0.00  0.00    +0.000 C 
ATOM     18  N   UNL     1      -3.535  11.360  15.581  0.00  0.00    +0.000 N 
ATOM     19  O   UNL     1      -4.839  11.540  17.421  0.00  0.00    +0.000 OA
ATOM     20  H   UNL     1      -2.614  11.175  15.201  0.00  0.00    +0.000 HD
ATOM     21  H   UNL     1      -4.311  11.570  14.969  0.00  0.00    +0.000 HD
ENDBRANCH   3  17
BRANCH   7  22
ATOM     22  C   UNL     1       2.764   7.993  17.315  0.00  0.00    +0.000 C 
BRANCH  22  23
ATOM     23  C   UNL     1       3.118   6.793  18.164  0.00  0.00    +0.000 A 
ATOM     24  C   UNL     1       4.457   6.476  18.408  0.00  0.00    +0.000 A 
ATOM     25  C   UNL     1       4.791   5.298  19.076  0.00  0.00    +0.000 A 
ATOM     26  N   UNL     1       3.828   4.463  19.534  0.00  0.00    +0.000 NA
ATOM     27  C   UNL     1       2.516   4.767  19.317  0.00  0.00    +0.000 A 
ATOM     28  C   UNL     1       2.134   5.921  18.633  0.00  0.00    +0.000 A 
BRANCH  27  29
ATOM     29  C   UNL     1       1.440   3.800  19.794  0.00  0.00    +0.000 C 
ATOM     30  F   UNL     1       1.895   2.789  20.587  0.00  0.00    +0.000 F 
ATOM     31  F   UNL     1       0.461   4.425  20.514  0.00  0.00    +0.000 F 
ATOM     32  F   UNL     1       0.791   3.192  18.756  0.00  0.00    +0.000 F 
ENDBRANCH  27  29
BRANCH  25  33
ATOM     33  C   UNL     1       6.231   4.871  19.209  0.00  0.00    +0.000 C 
ATOM     34  C   UNL     1       7.124   4.710  18.001  0.00  0.00    +0.000 C 
ATOM     35  C   UNL     1       7.342   5.859  18.940  0.00  0.00    +0.000 C 
ENDBRANCH  25  33
ENDBRANCH  22  23
ENDBRANCH   7  22
TORSDOF 6
ENDMDL
MODEL 8
REMARK VINA RESULT:      -8.6      3.209      3.781
REMARK  Name = 
REMARK  7 active torsions:
REMARK  status: ('A' for Active; 'I' for Inactive)
REMARK    1  A    between atoms: C_1  and  N_2
REMARK    2  A    between atoms: C_4  and  C_5
REMARK    3  A    between atoms: C_7  and  C_8
REMARK    4  A    between atoms: C_14  and  C_15
REMARK    5  A    between atoms: C_15  and  C_16
REMARK    6  A    between atoms: C_18  and  C_19
REMARK    7  A    between atoms: C_23  and  C_24
REMARK                            x       y       z     vdW  Elec       q    Type
REMARK                         _______ _______ _______ _____ _____    ______ ____
ROOT
ATOM      1  C   UNL     1       4.203   5.791  18.249  0.00  0.00    +0.000 A 
ATOM      2  C   UNL     1       4.071   4.718  19.137  0.00  0.00    +0.000 A 
ATOM      3  C   UNL     1       3.029   4.730  20.043  0.00  0.00    +0.000 A 
ATOM      4  N   UNL     1       2.113   5.729  20.138  0.00  0.00    +0.000 NA
ATOM      5  C   UNL     1       2.234   6.767  19.293  0.00  0.00    +0.000 A 
ATOM      6  C   UNL     1       1.295   7.791  19.388  0.00  0.00    +0.000 A 
ATOM      7  C   UNL     1       1.324   8.928  18.563  0.00  0.00    +0.000 A 
ATOM      8  C   UNL     1       2.323   9.019  17.601  0.00  0.00    +0.000 A 
ATOM      9  C   UNL     1       3.255   7.992  17.465  0.00  0.00    +0.000 A 
ATOM     10  C   UNL     1       3.257   6.858  18.315  0.00  0.00    +0.000 A 
ENDROOT
BRANCH   1  14
ATOM     11  C   UNL     1       7.050   4.785  14.295  0.00  0.00    +0.000 C 
ATOM     12  N   UNL     1       6.556   5.323  15.538  0.00  0.00    +0.000 N 
ATOM     13  C   UNL     1       5.310   5.161  16.073  0.00  0.00    +0.000 A 
ATOM     14  C   UNL     1       5.328   5.770  17.314  0.00  0.00    +0.000 A 
ATOM     15  C   UNL     1       6.654   6.260  17.417  0.00  0.00    +0.000 A 
ATOM     16  N   UNL     1       7.386   6.024  16.328  0.00  0.00    +0.000 NA
ENDBRANCH   1  14
BRANCH   3  17
ATOM     17  C   UNL     1       2.879   3.582  20.996  0.00  0.00    +0.000 C 
ATOM     18  N   UNL     1       3.639   2.478  20.726  0.00  0.00    +0.000 N 
ATOM     19  O   UNL     1       2.126   3.621  21.960  0.00  0.00    +0.000 OA
ATOM     20  H   UNL     1       4.257   2.472  19.924  0.00  0.00    +0.000 HD
ATOM     21  H   UNL     1       3.578   1.674  21.334  0.00  0.00    +0.000 HD
ENDBRANCH   3  17
BRANCH   7  22
ATOM     22  C   UNL     1       0.251   9.991  18.645  0.00  0.00    +0.000 C 
BRANCH  22  23
ATOM     23  C   UNL     1       0.566  11.037  19.691  0.00  0.00    +0.000 A 
ATOM     24  C   UNL     1      -0.262  11.188  20.806  0.00  0.00    +0.000 A 
ATOM     25  C   UNL     1      -0.052  12.236  21.702  0.00  0.00    +0.000 A 
ATOM     26  N   UNL     1       0.977  13.100  21.531  0.00  0.00    +0.000 NA
ATOM     27  C   UNL     1       1.804  12.956  20.457  0.00  0.00    +0.000 A 
ATOM     28  C   UNL     1       1.619  11.937  19.521  0.00  0.00    +0.000 A 
BRANCH  27  29
ATOM     29  C   UNL     1       2.931  13.957  20.245  0.00  0.00    +0.000 C 
ATOM     30  F   UNL     1       3.922  13.903  21.179  0.00  0.00    +0.000 F 
ATOM     31  F   UNL     1       3.550  13.797  19.037  0.00  0.00    +0.000 F 
ATOM     32  F   UNL     1       2.487  15.250  20.252  0.00  0.00    +0.000 F 
ENDBRANCH  27  29
BRANCH  25  33
ATOM     33  C   UNL     1      -1.030  12.500  22.820  0.00  0.00    +0.000 C 
ATOM     34  C   UNL     1      -2.515  12.606  22.564  0.00  0.00    +0.000 C 
ATOM     35  C   UNL     1      -1.966  11.408  23.280  0.00  0.00    +0.000 C 
ENDBRANCH  25  33
ENDBRANCH  22  23
ENDBRANCH   7  22
TORSDOF 6
ENDMDL
MODEL 9
REMARK VINA RESULT:      -8.6      3.172      3.757
REMARK  Name = 
REMARK  7 active torsions:
REMARK  status: ('A' for Active; 'I' for Inactive)
REMARK    1  A    between atoms: C_1  and  N_2
REMARK    2  A    between atoms: C_4  and  C_5
REMARK    3  A    between atoms: C_7  and  C_8
REMARK    4  A    between atoms: C_14  and  C_15
REMARK    5  A    between atoms: C_15  and  C_16
REMARK    6  A    between atoms: C_18  and  C_19
REMARK    7  A    between atoms: C_23  and  C_24
REMARK                            x       y       z     vdW  Elec       q    Type
REMARK                         _______ _______ _______ _____ _____    ______ ____
ROOT
ATOM      1  C   UNL     1       4.203   5.216  18.403  0.00  0.00    +0.000 A 
ATOM      2  C   UNL     1       3.874   4.190  19.296  0.00  0.00    +0.000 A 
ATOM      3  C   UNL     1       2.751   4.331  20.084  0.00  0.00    +0.000 A 
ATOM      4  N   UNL     1       1.933   5.415  20.059  0.00  0.00    +0.000 NA
ATOM      5  C   UNL     1       2.242   6.408  19.209  0.00  0.00    +0.000 A 
ATOM      6  C   UNL     1       1.404   7.521  19.181  0.00  0.00    +0.000 A 
ATOM      7  C   UNL     1       1.630   8.621  18.338  0.00  0.00    +0.000 A 
ATOM      8  C   UNL     1       2.727   8.585  17.486  0.00  0.00    +0.000 A 
ATOM      9  C   UNL     1       3.563   7.471  17.473  0.00  0.00    +0.000 A 
ATOM     10  C   UNL     1       3.365   6.370  18.344  0.00  0.00    +0.000 A 
ENDROOT
BRANCH   1  14
ATOM     11  C   UNL     1       7.255   4.720  14.505  0.00  0.00    +0.000 C 
ATOM     12  N   UNL     1       6.739   4.862  15.844  0.00  0.00    +0.000 N 
ATOM     13  C   UNL     1       5.445   5.098  16.212  0.00  0.00    +0.000 A 
ATOM     14  C   UNL     1       5.411   5.057  17.593  0.00  0.00    +0.000 A 
ATOM     15  C   UNL     1       6.756   4.778  17.944  0.00  0.00    +0.000 A 
ATOM     16  N   UNL     1       7.567   4.698  16.888  0.00  0.00    +0.000 NA
ENDBRANCH   1  14
BRANCH   3  17
ATOM     17  C   UNL     1       2.390   3.233  21.041  0.00  0.00    +0.000 C 
ATOM     18  N   UNL     1       1.055   3.060  21.276  0.00  0.00    +0.000 N 
ATOM     19  O   UNL     1       3.232   2.529  21.582  0.00  0.00    +0.000 OA
ATOM     20  H   UNL     1       0.377   3.654  20.814  0.00  0.00    +0.000 HD
ATOM     21  H   UNL     1       0.754   2.336  21.914  0.00  0.00    +0.000 HD
ENDBRANCH   3  17
BRANCH   7  22
ATOM     22  C   UNL     1       0.664   9.784  18.282  0.00  0.00    +0.000 C 
BRANCH  22  23
ATOM     23  C   UNL     1       0.858  10.740  19.437  0.00  0.00    +0.000 A 
ATOM     24  C   UNL     1       0.020  10.674  20.554  0.00  0.00    +0.000 A 
ATOM     25  C   UNL     1       0.109  11.636  21.559  0.00  0.00    +0.000 A 
ATOM     26  N   UNL     1       1.030  12.627  21.493  0.00  0.00    +0.000 NA
ATOM     27  C   UNL     1       1.866  12.696  20.418  0.00  0.00    +0.000 A 
ATOM     28  C   UNL     1       1.798  11.771  19.375  0.00  0.00    +0.000 A 
BRANCH  27  29
ATOM     29  C   UNL     1       2.867  13.839  20.326  0.00  0.00    +0.000 C 
ATOM     30  F   UNL     1       2.335  15.079  20.520  0.00  0.00    +0.000 F 
ATOM     31  F   UNL     1       3.876  13.722  21.242  0.00  0.00    +0.000 F 
ATOM     32  F   UNL     1       3.490  13.890  19.111  0.00  0.00    +0.000 F 
ENDBRANCH  27  29
BRANCH  25  33
ATOM     33  C   UNL     1      -0.890  11.662  22.690  0.00  0.00    +0.000 C 
ATOM     34  C   UNL     1      -1.433  12.961  23.236  0.00  0.00    +0.000 C 
ATOM     35  C   UNL     1      -2.321  12.064  22.426  0.00  0.00    +0.000 C 
ENDBRANCH  25  33
ENDBRANCH  22  23
ENDBRANCH   7  22
TORSDOF 6
ENDMDL
