MODEL 1
REMARK VINA RESULT:      -6.3      0.000      0.000
REMARK  Name = 
REMARK  5 active torsions:
REMARK  status: ('A' for Active; 'I' for Inactive)
REMARK    1  A    between atoms: C_1  and  C_2
REMARK    2  A    between atoms: C_2  and  C_3
REMARK    3  A    between atoms: C_6  and  C_7
REMARK    4  A    between atoms: C_7  and  C_8
REMARK    5  A    between atoms: C_7  and  N_9
REMARK                            x       y       z     vdW  Elec       q    Type
REMARK                         _______ _______ _______ _____ _____    ______ ____
ROOT
ATOM      1  C   UNL     1       3.637   4.786  19.129  0.00  0.00    +0.000 C 
ATOM      2  C   UNL     1       2.902   6.027  19.665  0.00  0.00    +0.000 C 
ENDROOT
BRANCH   1   3
ATOM      3  N   UNL     1       2.964   4.158  17.957  0.00  0.00    +0.000 NA
ATOM      4  C   UNL     1       3.560   2.840  17.605  0.00  0.00    +0.000 C 
ATOM      5  C   UNL     1       3.204   1.688  18.574  0.00  0.00    +0.000 C 
ATOM      6  N   UNL     1       1.758   1.531  18.767  0.00  0.00    +0.000 NA
ATOM      7  C   UNL     1       1.121   2.812  19.091  0.00  0.00    +0.000 C 
ATOM      8  C   UNL     1       1.511   3.949  18.118  0.00  0.00    +0.000 C 
ATOM      9  H   UNL     1       1.581   0.857  19.511  0.00  0.00    +0.000 HD
ENDBRANCH   1   3
BRANCH   1  13
ATOM     10  C   UNL     1       6.792   6.119  18.114  0.00  0.00    +0.000 A 
ATOM     11  N   UNL     1       7.187   5.538  19.253  0.00  0.00    +0.000 NA
ATOM     12  O   UNL     1       6.023   4.922  19.717  0.00  0.00    +0.000 OA
ATOM     13  C   UNL     1       5.053   5.182  18.790  0.00  0.00    +0.000 A 
ATOM     14  N   UNL     1       5.485   5.882  17.762  0.00  0.00    +0.000 NA
BRANCH  10  16
ATOM     15  C   UNL     1       8.184   8.154  18.280  0.00  0.00    +0.000 C 
ATOM     16  C   UNL     1       7.638   7.069  17.359  0.00  0.00    +0.000 C 
ENDBRANCH  10  16
ENDBRANCH   1  13
TORSDOF 3
ENDMDL
MODEL 2
REMARK VINA RESULT:      -6.2      1.250      1.363
REMARK  Name = 
REMARK  5 active torsions:
REMARK  status: ('A' for Active; 'I' for Inactive)
REMARK    1  A    between atoms: C_1  and  C_2
REMARK    2  A    between atoms: C_2  and  C_3
REMARK    3  A    between atoms: C_6  and  C_7
REMARK    4  A    between atoms: C_7  and  C_8
REMARK    5  A    between atoms: C_7  and  N_9
REMARK                            x       y       z     vdW  Elec       q    Type
REMARK                         _______ _______ _______ _____ _____    ______ ____
ROOT
ATOM      1  C   UNL     1       3.631   5.140  19.509  0.00  0.00    +0.000 C 
ATOM      2  C   UNL     1       2.757   6.336  19.092  0.00  0.00    +0.000 C 
ENDROOT
BRANCH   1   3
ATOM      3  N   UNL     1       3.087   3.825  19.068  0.00  0.00    +0.000 NA
ATOM      4  C   UNL     1       3.424   2.729  20.018  0.00  0.00    +0.000 C 
ATOM      5  C   UNL     1       2.623   2.749  21.341  0.00  0.00    +0.000 C 
ATOM      6  N   UNL     1       1.171   2.778  21.129  0.00  0.00    +0.000 NA
ATOM      7  C   UNL     1       0.792   3.828  20.176  0.00  0.00    +0.000 C 
ATOM      8  C   UNL     1       1.623   3.796  18.873  0.00  0.00    +0.000 C 
ATOM      9  H   UNL     1       0.695   2.927  22.018  0.00  0.00    +0.000 HD
ENDBRANCH   1   3
BRANCH   1  13
ATOM     10  C   UNL     1       6.750   6.069  18.038  0.00  0.00    +0.000 A 
ATOM     11  N   UNL     1       7.228   5.449  19.123  0.00  0.00    +0.000 NA
ATOM     12  O   UNL     1       6.075   4.983  19.757  0.00  0.00    +0.000 OA
ATOM     13  C   UNL     1       5.023   5.357  18.969  0.00  0.00    +0.000 A 
ATOM     14  N   UNL     1       5.388   5.994  17.876  0.00  0.00    +0.000 NA
BRANCH  10  16
ATOM     15  C   UNL     1       8.000   8.194  17.855  0.00  0.00    +0.000 C 
ATOM     16  C   UNL     1       7.592   6.905  17.153  0.00  0.00    +0.000 C 
ENDBRANCH  10  16
ENDBRANCH   1  13
TORSDOF 3
ENDMDL
MODEL 3
REMARK VINA RESULT:      -6.1      2.379      5.593
REMARK  Name = 
REMARK  5 active torsions:
REMARK  status: ('A' for Active; 'I' for Inactive)
REMARK    1  A    between atoms: C_1  and  C_2
REMARK    2  A    between atoms: C_2  and  C_3
REMARK    3  A    between atoms: C_6  and  C_7
REMARK    4  A    between atoms: C_7  and  C_8
REMARK    5  A    between atoms: C_7  and  N_9
REMARK                            x       y       z     vdW  Elec       q    Type
REMARK                         _______ _______ _______ _____ _____    ______ ____
ROOT
ATOM      1  C   UNL     1       4.178   4.941  17.111  0.00  0.00    +0.000 C 
ATOM      2  C   UNL     1       4.275   6.353  17.714  0.00  0.00    +0.000 C 
ENDROOT
BRANCH   1   3
ATOM      3  N   UNL     1       5.467   4.194  17.138  0.00  0.00    +0.000 NA
ATOM      4  C   UNL     1       5.880   3.736  15.783  0.00  0.00    +0.000 C 
ATOM      5  C   UNL     1       6.413   4.853  14.856  0.00  0.00    +0.000 C 
ATOM      6  N   UNL     1       7.504   5.626  15.461  0.00  0.00    +0.000 NA
ATOM      7  C   UNL     1       7.152   6.078  16.812  0.00  0.00    +0.000 C 
ATOM      8  C   UNL     1       6.604   4.945  17.709  0.00  0.00    +0.000 C 
ATOM      9  H   UNL     1       7.725   6.428  14.873  0.00  0.00    +0.000 HD
ENDBRANCH   1   3
BRANCH   1  13
ATOM     10  C   UNL     1       1.661   3.499  19.196  0.00  0.00    +0.000 A 
ATOM     11  N   UNL     1       1.159   3.134  18.010  0.00  0.00    +0.000 NA
ATOM     12  O   UNL     1       2.112   3.603  17.104  0.00  0.00    +0.000 OA
ATOM     13  C   UNL     1       3.100   4.184  17.847  0.00  0.00    +0.000 A 
ATOM     14  N   UNL     1       2.891   4.110  19.145  0.00  0.00    +0.000 NA
BRANCH  10  16
ATOM     15  C   UNL     1       1.766   2.820  21.570  0.00  0.00    +0.000 C 
ATOM     16  C   UNL     1       0.897   3.396  20.459  0.00  0.00    +0.000 C 
ENDBRANCH  10  16
ENDBRANCH   1  13
TORSDOF 3
ENDMDL
MODEL 4
REMARK VINA RESULT:      -6.1      3.316      4.152
REMARK  Name = 
REMARK  5 active torsions:
REMARK  status: ('A' for Active; 'I' for Inactive)
REMARK    1  A    between atoms: C_1  and  C_2
REMARK    2  A    between atoms: C_2  and  C_3
REMARK    3  A    between atoms: C_6  and  C_7
REMARK    4  A    between atoms: C_7  and  C_8
REMARK    5  A    between atoms: C_7  and  N_9
REMARK                            x       y       z     vdW  Elec       q    Type
REMARK                         _______ _______ _______ _____ _____    ______ ____
ROOT
ATOM      1  C   UNL     1       5.798   4.890  17.183  0.00  0.00    +0.000 C 
ATOM      2  C   UNL     1       6.186   6.292  17.683  0.00  0.00    +0.000 C 
ENDROOT
BRANCH   1   3
ATOM      3  N   UNL     1       4.327   4.654  17.162  0.00  0.00    +0.000 NA
ATOM      4  C   UNL     1       3.972   3.273  17.589  0.00  0.00    +0.000 C 
ATOM      5  C   UNL     1       4.110   3.009  19.107  0.00  0.00    +0.000 C 
ATOM      6  N   UNL     1       3.368   3.976  19.926  0.00  0.00    +0.000 NA
ATOM      7  C   UNL     1       3.666   5.355  19.521  0.00  0.00    +0.000 C 
ATOM      8  C   UNL     1       3.540   5.584  17.998  0.00  0.00    +0.000 C 
ATOM      9  H   UNL     1       3.599   3.845  20.909  0.00  0.00    +0.000 HD
ENDBRANCH   1   3
BRANCH   1  13
ATOM     10  C   UNL     1       6.768   4.261  13.804  0.00  0.00    +0.000 A 
ATOM     11  N   UNL     1       7.561   5.315  14.037  0.00  0.00    +0.000 NA
ATOM     12  O   UNL     1       7.304   5.614  15.376  0.00  0.00    +0.000 OA
ATOM     13  C   UNL     1       6.396   4.691  15.812  0.00  0.00    +0.000 A 
ATOM     14  N   UNL     1       6.064   3.809  14.893  0.00  0.00    +0.000 NA
BRANCH  10  16
ATOM     15  C   UNL     1       5.059   3.443  12.216  0.00  0.00    +0.000 C 
ATOM     16  C   UNL     1       6.541   3.710  12.449  0.00  0.00    +0.000 C 
ENDBRANCH  10  16
ENDBRANCH   1  13
TORSDOF 3
ENDMDL
MODEL 5
REMARK VINA RESULT:      -6.1      3.125      4.102
REMARK  Name = 
REMARK  5 active torsions:
REMARK  status: ('A' for Active; 'I' for Inactive)
REMARK    1  A    between atoms: C_1  and  C_2
REMARK    2  A    between atoms: C_2  and  C_3
REMARK    3  A    between atoms: C_6  and  C_7
REMARK    4  A    between atoms: C_7  and  C_8
REMARK    5  A    between atoms: C_7  and  N_9
REMARK                            x       y       z     vdW  Elec       q    Type
REMARK                         _______ _______ _______ _____ _____    ______ ____
ROOT
ATOM      1  C   UNL     1       6.373   4.721  17.827  0.00  0.00    +0.000 C 
ATOM      2  C   UNL     1       7.628   5.254  18.541  0.00  0.00    +0.000 C 
ENDROOT
BRANCH   1   3
ATOM      3  N   UNL     1       5.161   5.556  18.054  0.00  0.00    +0.000 NA
ATOM      4  C   UNL     1       4.065   5.229  17.102  0.00  0.00    +0.000 C 
ATOM      5  C   UNL     1       3.339   3.893  17.383  0.00  0.00    +0.000 C 
ATOM      6  N   UNL     1       2.832   3.796  18.757  0.00  0.00    +0.000 NA
ATOM      7  C   UNL     1       3.873   4.137  19.734  0.00  0.00    +0.000 C 
ATOM      8  C   UNL     1       4.595   5.466  19.416  0.00  0.00    +0.000 C 
ATOM      9  H   UNL     1       2.487   2.853  18.932  0.00  0.00    +0.000 HD
ENDBRANCH   1   3
BRANCH   1  13
ATOM     10  C   UNL     1       6.651   4.237  14.299  0.00  0.00    +0.000 A 
ATOM     11  N   UNL     1       7.362   5.367  14.393  0.00  0.00    +0.000 NA
ATOM     12  O   UNL     1       7.370   5.623  15.765  0.00  0.00    +0.000 OA
ATOM     13  C   UNL     1       6.678   4.602  16.354  0.00  0.00    +0.000 A 
ATOM     14  N   UNL     1       6.249   3.699  15.498  0.00  0.00    +0.000 NA
BRANCH  10  16
ATOM     15  C   UNL     1       7.139   4.084  11.881  0.00  0.00    +0.000 C 
ATOM     16  C   UNL     1       6.195   3.678  13.007  0.00  0.00    +0.000 C 
ENDBRANCH  10  16
ENDBRANCH   1  13
TORSDOF 3
ENDMDL
MODEL 6
REMARK VINA RESULT:      -6.0      1.314      2.002
REMARK  Name = 
REMARK  5 active torsions:
REMARK  status: ('A' for Active; 'I' for Inactive)
REMARK    1  A    between atoms: C_1  and  C_2
REMARK    2  A    between atoms: C_2  and  C_3
REMARK    3  A    between atoms: C_6  and  C_7
REMARK    4  A    between atoms: C_7  and  C_8
REMARK    5  A    between atoms: C_7  and  N_9
REMARK                            x       y       z     vdW  Elec       q    Type
REMARK                         _______ _______ _______ _____ _____    ______ ____
ROOT
ATOM      1  C   UNL     1       3.867   4.254  18.542  0.00  0.00    +0.000 C 
ATOM      2  C   UNL     1       3.741   3.678  17.120  0.00  0.00    +0.000 C 
ENDROOT
BRANCH   1   3
ATOM      3  N   UNL     1       3.508   3.279  19.610  0.00  0.00    +0.000 NA
ATOM      4  C   UNL     1       2.885   3.941  20.790  0.00  0.00    +0.000 C 
ATOM      5  C   UNL     1       1.429   4.417  20.572  0.00  0.00    +0.000 C 
ATOM      6  N   UNL     1       0.544   3.348  20.092  0.00  0.00    +0.000 NA
ATOM      7  C   UNL     1       1.130   2.648  18.944  0.00  0.00    +0.000 C 
ATOM      8  C   UNL     1       2.591   2.202  19.182  0.00  0.00    +0.000 C 
ATOM      9  H   UNL     1      -0.361   3.739  19.836  0.00  0.00    +0.000 HD
ENDBRANCH   1   3
BRANCH   1  13
ATOM     10  C   UNL     1       7.048   5.864  18.752  0.00  0.00    +0.000 A 
ATOM     11  N   UNL     1       7.108   5.171  19.896  0.00  0.00    +0.000 NA
ATOM     12  O   UNL     1       5.917   4.443  19.890  0.00  0.00    +0.000 OA
ATOM     13  C   UNL     1       5.275   4.762  18.726  0.00  0.00    +0.000 A 
ATOM     14  N   UNL     1       5.950   5.602  17.970  0.00  0.00    +0.000 NA
BRANCH  10  16
ATOM     15  C   UNL     1       7.388   7.913  17.413  0.00  0.00    +0.000 C 
ATOM     16  C   UNL     1       8.003   6.942  18.413  0.00  0.00    +0.000 C 
ENDBRANCH  10  16
ENDBRANCH   1  13
TORSDOF 3
ENDMDL
MODEL 7
REMARK VINA RESULT:      -6.0      3.967      5.670
REMARK  Name = 
REMARK  5 active torsions:
REMARK  status: ('A' for Active; 'I' for Inactive)
REMARK    1  A    between atoms: C_1  and  C_2
REMARK    2  A    between atoms: C_2  and  C_3
REMARK    3  A    between atoms: C_6  and  C_7
REMARK    4  A    between atoms: C_7  and  C_8
REMARK    5  A    between atoms: C_7  and  N_9
REMARK                            x       y       z     vdW  Elec       q    Type
REMARK                         _______ _______ _______ _____ _____    ______ ____
ROOT
ATOM      1  C   UNL     1       6.457   5.320  16.032  0.00  0.00    +0.000 C 
ATOM      2  C   UNL     1       5.091   6.028  16.052  0.00  0.00    +0.000 C 
ENDROOT
BRANCH   1   3
ATOM      3  N   UNL     1       6.599   4.278  17.089  0.00  0.00    +0.000 NA
ATOM      4  C   UNL     1       7.869   4.422  17.853  0.00  0.00    +0.000 C 
ATOM      5  C   UNL     1       7.894   5.604  18.851  0.00  0.00    +0.000 C 
ATOM      6  N   UNL     1       6.764   5.587  19.787  0.00  0.00    +0.000 NA
ATOM      7  C   UNL     1       5.489   5.419  19.079  0.00  0.00    +0.000 C 
ATOM      8  C   UNL     1       5.500   4.244  18.075  0.00  0.00    +0.000 C 
ATOM      9  H   UNL     1       6.751   6.450  20.327  0.00  0.00    +0.000 HD
ENDBRANCH   1   3
BRANCH   1  13
ATOM     10  C   UNL     1       6.481   3.783  12.808  0.00  0.00    +0.000 A 
ATOM     11  N   UNL     1       7.353   4.767  12.558  0.00  0.00    +0.000 NA
ATOM     12  O   UNL     1       7.469   5.411  13.791  0.00  0.00    +0.000 OA
ATOM     13  C   UNL     1       6.666   4.728  14.661  0.00  0.00    +0.000 A 
ATOM     14  N   UNL     1       6.066   3.690  14.115  0.00  0.00    +0.000 NA
BRANCH  10  16
ATOM     15  C   UNL     1       4.409   3.279  11.560  0.00  0.00    +0.000 C 
ATOM     16  C   UNL     1       5.884   2.946  11.744  0.00  0.00    +0.000 C 
ENDBRANCH  10  16
ENDBRANCH   1  13
TORSDOF 3
ENDMDL
MODEL 8
REMARK VINA RESULT:      -6.0      2.159      2.441
REMARK  Name = 
REMARK  5 active torsions:
REMARK  status: ('A' for Active; 'I' for Inactive)
REMARK    1  A    between atoms: C_1  and  C_2
REMARK    2  A    between atoms: C_2  and  C_3
REMARK    3  A    between atoms: C_6  and  C_7
REMARK    4  A    between atoms: C_7  and  C_8
REMARK    5  A    between atoms: C_7  and  N_9
REMARK                            x       y       z     vdW  Elec       q    Type
REMARK                         _______ _______ _______ _____ _____    ______ ____
ROOT
ATOM      1  C   UNL     1       3.714   4.901  18.987  0.00  0.00    +0.000 C 
ATOM      2  C   UNL     1       3.075   6.178  18.415  0.00  0.00    +0.000 C 
ENDROOT
BRANCH   1   3
ATOM      3  N   UNL     1       2.791   3.731  19.003  0.00  0.00    +0.000 NA
ATOM      4  C   UNL     1       3.484   2.472  19.389  0.00  0.00    +0.000 C 
ATOM      5  C   UNL     1       3.838   2.360  20.890  0.00  0.00    +0.000 C 
ATOM      6  N   UNL     1       2.679   2.564  21.768  0.00  0.00    +0.000 NA
ATOM      7  C   UNL     1       1.947   3.784  21.407  0.00  0.00    +0.000 C 
ATOM      8  C   UNL     1       1.624   3.878  19.898  0.00  0.00    +0.000 C 
ATOM      9  H   UNL     1       2.986   2.617  22.737  0.00  0.00    +0.000 HD
ENDBRANCH   1   3
BRANCH   1  13
ATOM     10  C   UNL     1       6.461   4.449  16.750  0.00  0.00    +0.000 A 
ATOM     11  N   UNL     1       7.146   4.426  17.900  0.00  0.00    +0.000 NA
ATOM     12  O   UNL     1       6.145   4.538  18.867  0.00  0.00    +0.000 OA
ATOM     13  C   UNL     1       4.959   4.594  18.192  0.00  0.00    +0.000 A 
ATOM     14  N   UNL     1       5.095   4.502  16.885  0.00  0.00    +0.000 NA
BRANCH  10  16
ATOM     15  C   UNL     1       6.079   4.539  14.309  0.00  0.00    +0.000 C 
ATOM     16  C   UNL     1       7.115   4.563  15.427  0.00  0.00    +0.000 C 
ENDBRANCH  10  16
ENDBRANCH   1  13
TORSDOF 3
ENDMDL
MODEL 9
REMARK VINA RESULT:      -6.0      1.622      2.764
REMARK  Name = 
REMARK  5 active torsions:
REMARK  status: ('A' for Active; 'I' for Inactive)
REMARK    1  A    between atoms: C_1  and  C_2
REMARK    2  A    between atoms: C_2  and  C_3
REMARK    3  A    between atoms: C_6  and  C_7
REMARK    4  A    between atoms: C_7  and  C_8
REMARK    5  A    between atoms: C_7  and  N_9
REMARK                            x       y       z     vdW  Elec       q    Type
REMARK                         _______ _______ _______ _____ _____    ______ ____
ROOT
ATOM      1  C   UNL     1       5.429   5.056  16.922  0.00  0.00    +0.000 C 
ATOM      2  C   UNL     1       6.025   4.021  15.952  0.00  0.00    +0.000 C 
ENDROOT
BRANCH   1   3
ATOM      3  N   UNL     1       4.832   4.448  18.145  0.00  0.00    +0.000 NA
ATOM      4  C   UNL     1       3.969   5.407  18.887  0.00  0.00    +0.000 C 
ATOM      5  C   UNL     1       2.602   5.697  18.222  0.00  0.00    +0.000 C 
ATOM      6  N   UNL     1       1.837   4.479  17.934  0.00  0.00    +0.000 NA
ATOM      7  C   UNL     1       2.657   3.490  17.225  0.00  0.00    +0.000 C 
ATOM      8  C   UNL     1       4.024   3.235  17.900  0.00  0.00    +0.000 C 
ATOM      9  H   UNL     1       1.015   4.711  17.379  0.00  0.00    +0.000 HD
ENDBRANCH   1   3
BRANCH   1  13
ATOM     10  C   UNL     1       7.654   7.746  17.676  0.00  0.00    +0.000 A 
ATOM     11  N   UNL     1       8.112   6.862  18.572  0.00  0.00    +0.000 NA
ATOM     12  O   UNL     1       7.338   5.728  18.323  0.00  0.00    +0.000 OA
ATOM     13  C   UNL     1       6.508   6.045  17.284  0.00  0.00    +0.000 A 
ATOM     14  N   UNL     1       6.692   7.265  16.822  0.00  0.00    +0.000 NA
BRANCH  10  16
ATOM     15  C   UNL     1       8.902   9.492  18.902  0.00  0.00    +0.000 C 
ATOM     16  C   UNL     1       8.034   9.176  17.690  0.00  0.00    +0.000 C 
ENDBRANCH  10  16
ENDBRANCH   1  13
TORSDOF 3
ENDMDL
