MODEL 1
REMARK VINA RESULT:      -7.9      0.000      0.000
REMARK  Name = 
REMARK  10 active torsions:
REMARK  status: ('A' for Active; 'I' for Inactive)
REMARK    1  A    between atoms: C_1  and  C_2
REMARK    2  A    between atoms: C_5  and  C_6
REMARK    3  A    between atoms: C_8  and  S_9
REMARK    4  A    between atoms: S_9  and  N_10
REMARK    5  A    between atoms: N_10  and  C_11
REMARK    6  A    between atoms: C_11  and  C_12
REMARK    7  A    between atoms: C_18  and  C_19
REMARK    8  A    between atoms: C_18  and  C_20
REMARK    9  A    between atoms: C_23  and  C_24
REMARK   10  A    between atoms: C_27  and  C_28
REMARK                            x       y       z     vdW  Elec       q    Type
REMARK                         _______ _______ _______ _____ _____    ______ ____
ROOT
ATOM      1  C   UNL     1      -1.288  11.256  19.973  0.00  0.00    +0.000 A 
ATOM      2  C   UNL     1      -1.939  12.238  20.758  0.00  0.00    +0.000 A 
ATOM      3  C   UNL     1      -1.472  12.564  22.025  0.00  0.00    +0.000 A 
ATOM      4  N   UNL     1      -0.413  11.925  22.548  0.00  0.00    +0.000 NA
ATOM      5  N   UNL     1       0.239  10.966  21.816  0.00  0.00    +0.000 NA
ATOM      6  C   UNL     1      -0.152  10.646  20.552  0.00  0.00    +0.000 A 
ENDROOT
BRANCH   1  11
ATOM      7  C   UNL     1      -3.633  10.149  14.735  0.00  0.00    +0.000 C 
ATOM      8  C   UNL     1      -2.994  10.398  16.069  0.00  0.00    +0.000 A 
ATOM      9  C   UNL     1      -3.096   9.473  17.110  0.00  0.00    +0.000 A 
ATOM     10  C   UNL     1      -2.533   9.745  18.364  0.00  0.00    +0.000 A 
ATOM     11  C   UNL     1      -1.826  10.940  18.617  0.00  0.00    +0.000 A 
ATOM     12  C   UNL     1      -1.689  11.828  17.535  0.00  0.00    +0.000 A 
ATOM     13  C   UNL     1      -2.294  11.583  16.296  0.00  0.00    +0.000 A 
ENDBRANCH   1  11
BRANCH   6  14
ATOM     14  C   UNL     1       0.753   9.657  19.917  0.00  0.00    +0.000 A 
ATOM     15  C   UNL     1       1.167   8.508  20.620  0.00  0.00    +0.000 A 
ATOM     16  C   UNL     1       1.997   7.544  20.034  0.00  0.00    +0.000 A 
ATOM     17  C   UNL     1       2.434   7.702  18.720  0.00  0.00    +0.000 A 
ATOM     18  C   UNL     1       3.294   6.669  18.056  0.00  0.00    +0.000 C 
ATOM     19  C   UNL     1       2.052   8.846  18.012  0.00  0.00    +0.000 A 
ATOM     20  C   UNL     1       1.255   9.823  18.615  0.00  0.00    +0.000 A 
ENDBRANCH   6  14
BRANCH   3  21
ATOM     21  S   UNL     1      -2.231  13.887  22.971  0.00  0.00    +0.000 S 
BRANCH  21  22
ATOM     22  N   UNL     1      -3.629  13.181  23.528  0.00  0.00    +0.000 NA
ATOM     23  H   UNL     1      -3.691  13.215  24.546  0.00  0.00    +0.000 HD
BRANCH  22  24
ATOM     24  C   UNL     1      -4.929  13.445  22.913  0.00  0.00    +0.000 C 
BRANCH  24  25
ATOM     25  C   UNL     1      -4.899  13.281  21.368  0.00  0.00    +0.000 C 
ATOM     26  C   UNL     1      -5.430  14.538  20.635  0.00  0.00    +0.000 C 
ATOM     27  C   UNL     1      -6.875  14.417  20.136  0.00  0.00    +0.000 C 
ATOM     28  C   UNL     1      -7.305  12.959  19.926  0.00  0.00    +0.000 C 
ATOM     29  C   UNL     1      -7.218  12.198  21.279  0.00  0.00    +0.000 C 
ATOM     30  C   UNL     1      -5.705  12.026  20.924  0.00  0.00    +0.000 C 
ATOM     31  C   UNL     1      -6.221  11.934  19.398  0.00  0.00    +0.000 C 
ATOM     32  C   UNL     1      -5.336  12.391  18.235  0.00  0.00    +0.000 C 
ATOM     33  C   UNL     1      -6.820  10.572  18.967  0.00  0.00    +0.000 C 
ENDBRANCH  24  25
ENDBRANCH  22  24
ENDBRANCH  21  22
ENDBRANCH   3  21
TORSDOF 6
ENDMDL
MODEL 2
REMARK VINA RESULT:      -7.7      0.304      1.237
REMARK  Name = 
REMARK  10 active torsions:
REMARK  status: ('A' for Active; 'I' for Inactive)
REMARK    1  A    between atoms: C_1  and  C_2
REMARK    2  A    between atoms: C_5  and  C_6
REMARK    3  A    between atoms: C_8  and  S_9
REMARK    4  A    between atoms: S_9  and  N_10
REMARK    5  A    between atoms: N_10  and  C_11
REMARK    6  A    between atoms: C_11  and  C_12
REMARK    7  A    between atoms: C_18  and  C_19
REMARK    8  A    between atoms: C_18  and  C_20
REMARK    9  A    between atoms: C_23  and  C_24
REMARK   10  A    between atoms: C_27  and  C_28
REMARK                            x       y       z     vdW  Elec       q    Type
REMARK                         _______ _______ _______ _____ _____    ______ ____
ROOT
ATOM      1  C   UNL     1      -1.201  11.263  20.125  0.00  0.00    +0.000 A 
ATOM      2  C   UNL     1      -1.800  12.221  20.979  0.00  0.00    +0.000 A 
ATOM      3  C   UNL     1      -1.274  12.484  22.238  0.00  0.00    +0.000 A 
ATOM      4  N   UNL     1      -0.206  11.806  22.687  0.00  0.00    +0.000 NA
ATOM      5  N   UNL     1       0.396  10.868  21.887  0.00  0.00    +0.000 NA
ATOM      6  C   UNL     1      -0.054  10.610  20.629  0.00  0.00    +0.000 A 
ENDROOT
BRANCH   1  11
ATOM      7  C   UNL     1      -3.313  10.173  14.786  0.00  0.00    +0.000 C 
ATOM      8  C   UNL     1      -2.810  10.486  16.164  0.00  0.00    +0.000 A 
ATOM      9  C   UNL     1      -2.184  11.699  16.452  0.00  0.00    +0.000 A 
ATOM     10  C   UNL     1      -1.679  11.954  17.735  0.00  0.00    +0.000 A 
ATOM     11  C   UNL     1      -1.802  11.016  18.782  0.00  0.00    +0.000 A 
ATOM     12  C   UNL     1      -2.487   9.825  18.478  0.00  0.00    +0.000 A 
ATOM     13  C   UNL     1      -2.948   9.546  17.186  0.00  0.00    +0.000 A 
ENDBRANCH   1  11
BRANCH   6  14
ATOM     14  C   UNL     1       0.806   9.636  19.913  0.00  0.00    +0.000 A 
ATOM     15  C   UNL     1       1.243   9.895  18.599  0.00  0.00    +0.000 A 
ATOM     16  C   UNL     1       2.080   9.006  17.911  0.00  0.00    +0.000 A 
ATOM     17  C   UNL     1       2.507   7.830  18.525  0.00  0.00    +0.000 A 
ATOM     18  C   UNL     1       3.430   6.878  17.825  0.00  0.00    +0.000 C 
ATOM     19  C   UNL     1       2.067   7.543  19.821  0.00  0.00    +0.000 A 
ATOM     20  C   UNL     1       1.202   8.416  20.488  0.00  0.00    +0.000 A 
ENDBRANCH   6  14
BRANCH   3  21
ATOM     21  S   UNL     1      -1.968  13.777  23.270  0.00  0.00    +0.000 S 
BRANCH  21  22
ATOM     22  N   UNL     1      -3.451  13.154  23.688  0.00  0.00    +0.000 NA
ATOM     23  H   UNL     1      -3.563  13.084  24.700  0.00  0.00    +0.000 HD
BRANCH  22  24
ATOM     24  C   UNL     1      -4.689  13.605  23.052  0.00  0.00    +0.000 C 
BRANCH  24  25
ATOM     25  C   UNL     1      -4.712  13.317  21.525  0.00  0.00    +0.000 C 
ATOM     26  C   UNL     1      -5.001  14.591  20.694  0.00  0.00    +0.000 C 
ATOM     27  C   UNL     1      -6.448  14.712  20.203  0.00  0.00    +0.000 C 
ATOM     28  C   UNL     1      -7.153  13.352  20.108  0.00  0.00    +0.000 C 
ATOM     29  C   UNL     1      -7.196  12.698  21.518  0.00  0.00    +0.000 C 
ATOM     30  C   UNL     1      -5.750  12.211  21.181  0.00  0.00    +0.000 C 
ATOM     31  C   UNL     1      -6.293  12.100  19.666  0.00  0.00    +0.000 C 
ATOM     32  C   UNL     1      -5.353  12.284  18.472  0.00  0.00    +0.000 C 
ATOM     33  C   UNL     1      -7.149  10.849  19.344  0.00  0.00    +0.000 C 
ENDBRANCH  24  25
ENDBRANCH  22  24
ENDBRANCH  21  22
ENDBRANCH   3  21
TORSDOF 6
ENDMDL
MODEL 3
REMARK VINA RESULT:      -7.5      2.662      4.652
REMARK  Name = 
REMARK  10 active torsions:
REMARK  status: ('A' for Active; 'I' for Inactive)
REMARK    1  A    between atoms: C_1  and  C_2
REMARK    2  A    between atoms: C_5  and  C_6
REMARK    3  A    between atoms: C_8  and  S_9
REMARK    4  A    between atoms: S_9  and  N_10
REMARK    5  A    between atoms: N_10  and  C_11
REMARK    6  A    between atoms: C_11  and  C_12
REMARK    7  A    between atoms: C_18  and  C_19
REMARK    8  A    between atoms: C_18  and  C_20
REMARK    9  A    between atoms: C_23  and  C_24
REMARK   10  A    between atoms: C_27  and  C_28
REMARK                            x       y       z     vdW  Elec       q    Type
REMARK                         _______ _______ _______ _____ _____    ______ ____
ROOT
ATOM      1  C   UNL     1      -1.114  11.294  20.031  0.00  0.00    +0.000 A 
ATOM      2  C   UNL     1      -1.706  12.298  20.835  0.00  0.00    +0.000 A 
ATOM      3  C   UNL     1      -1.182  12.616  22.081  0.00  0.00    +0.000 A 
ATOM      4  N   UNL     1      -0.124  11.948  22.568  0.00  0.00    +0.000 NA
ATOM      5  N   UNL     1       0.470  10.965  21.818  0.00  0.00    +0.000 NA
ATOM      6  C   UNL     1       0.023  10.652  20.571  0.00  0.00    +0.000 A 
ENDROOT
BRANCH   1  11
ATOM      7  C   UNL     1      -3.691  10.223  14.895  0.00  0.00    +0.000 C 
ATOM      8  C   UNL     1      -2.993  10.464  16.201  0.00  0.00    +0.000 A 
ATOM      9  C   UNL     1      -3.027   9.521  17.229  0.00  0.00    +0.000 A 
ATOM     10  C   UNL     1      -2.408   9.785  18.459  0.00  0.00    +0.000 A 
ATOM     11  C   UNL     1      -1.712  10.989  18.698  0.00  0.00    +0.000 A 
ATOM     12  C   UNL     1      -1.645  11.897  17.625  0.00  0.00    +0.000 A 
ATOM     13  C   UNL     1      -2.305  11.659  16.413  0.00  0.00    +0.000 A 
ENDBRANCH   1  11
BRANCH   6  14
ATOM     14  C   UNL     1       0.874   9.634  19.908  0.00  0.00    +0.000 A 
ATOM     15  C   UNL     1       1.254   8.462  20.591  0.00  0.00    +0.000 A 
ATOM     16  C   UNL     1       2.031   7.470  19.979  0.00  0.00    +0.000 A 
ATOM     17  C   UNL     1       2.448   7.624  18.657  0.00  0.00    +0.000 A 
ATOM     18  C   UNL     1       3.251   6.563  17.967  0.00  0.00    +0.000 C 
ATOM     19  C   UNL     1       2.100   8.789  17.968  0.00  0.00    +0.000 A 
ATOM     20  C   UNL     1       1.356   9.792  18.598  0.00  0.00    +0.000 A 
ENDBRANCH   6  14
BRANCH   3  21
ATOM     21  S   UNL     1      -1.865  13.966  23.047  0.00  0.00    +0.000 S 
BRANCH  21  22
ATOM     22  N   UNL     1      -0.795  15.203  22.752  0.00  0.00    +0.000 NA
ATOM     23  H   UNL     1      -0.787  15.887  23.508  0.00  0.00    +0.000 HD
BRANCH  22  24
ATOM     24  C   UNL     1       0.558  14.956  22.251  0.00  0.00    +0.000 C 
BRANCH  24  25
ATOM     25  C   UNL     1       0.868  15.759  20.957  0.00  0.00    +0.000 C 
ATOM     26  C   UNL     1      -0.328  15.769  19.973  0.00  0.00    +0.000 C 
ATOM     27  C   UNL     1      -0.200  14.777  18.811  0.00  0.00    +0.000 C 
ATOM     28  C   UNL     1       1.260  14.410  18.508  0.00  0.00    +0.000 C 
ATOM     29  C   UNL     1       1.890  13.739  19.761  0.00  0.00    +0.000 C 
ATOM     30  C   UNL     1       2.136  15.204  20.248  0.00  0.00    +0.000 C 
ATOM     31  C   UNL     1       2.359  15.535  18.684  0.00  0.00    +0.000 C 
ATOM     32  C   UNL     1       2.040  16.919  18.115  0.00  0.00    +0.000 C 
ATOM     33  C   UNL     1       3.739  15.143  18.100  0.00  0.00    +0.000 C 
ENDBRANCH  24  25
ENDBRANCH  22  24
ENDBRANCH  21  22
ENDBRANCH   3  21
TORSDOF 6
ENDMDL
MODEL 4
REMARK VINA RESULT:      -7.4      3.697      8.920
REMARK  Name = 
REMARK  10 active torsions:
REMARK  status: ('A' for Active; 'I' for Inactive)
REMARK    1  A    between atoms: C_1  and  C_2
REMARK    2  A    between atoms: C_5  and  C_6
REMARK    3  A    between atoms: C_8  and  S_9
REMARK    4  A    between atoms: S_9  and  N_10
REMARK    5  A    between atoms: N_10  and  C_11
REMARK    6  A    between atoms: C_11  and  C_12
REMARK    7  A    between atoms: C_18  and  C_19
REMARK    8  A    between atoms: C_18  and  C_20
REMARK    9  A    between atoms: C_23  and  C_24
REMARK   10  A    between atoms: C_27  and  C_28
REMARK                            x       y       z     vdW  Elec       q    Type
REMARK                         _______ _______ _______ _____ _____    ______ ____
ROOT
ATOM      1  C   UNL     1       0.056  11.858  21.443  0.00  0.00    +0.000 A 
ATOM      2  C   UNL     1       0.687  10.640  21.092  0.00  0.00    +0.000 A 
ATOM      3  C   UNL     1       0.453   9.479  21.819  0.00  0.00    +0.000 A 
ATOM      4  N   UNL     1      -0.348   9.497  22.895  0.00  0.00    +0.000 NA
ATOM      5  N   UNL     1      -0.972  10.661  23.266  0.00  0.00    +0.000 NA
ATOM      6  C   UNL     1      -0.812  11.812  22.557  0.00  0.00    +0.000 A 
ENDROOT
BRANCH   1  11
ATOM      7  C   UNL     1       1.006  16.785  18.447  0.00  0.00    +0.000 C 
ATOM      8  C   UNL     1       0.779  15.494  19.175  0.00  0.00    +0.000 A 
ATOM      9  C   UNL     1      -0.289  14.654  18.853  0.00  0.00    +0.000 A 
ATOM     10  C   UNL     1      -0.512  13.474  19.576  0.00  0.00    +0.000 A 
ATOM     11  C   UNL     1       0.337  13.078  20.631  0.00  0.00    +0.000 A 
ATOM     12  C   UNL     1       1.438  13.914  20.897  0.00  0.00    +0.000 A 
ATOM     13  C   UNL     1       1.635  15.118  20.211  0.00  0.00    +0.000 A 
ENDBRANCH   1  11
BRANCH   6  14
ATOM     14  C   UNL     1      -1.655  12.916  23.079  0.00  0.00    +0.000 A 
ATOM     15  C   UNL     1      -3.061  12.829  23.032  0.00  0.00    +0.000 A 
ATOM     16  C   UNL     1      -3.880  13.843  23.545  0.00  0.00    +0.000 A 
ATOM     17  C   UNL     1      -3.311  14.976  24.126  0.00  0.00    +0.000 A 
ATOM     18  C   UNL     1      -4.164  16.059  24.713  0.00  0.00    +0.000 C 
ATOM     19  C   UNL     1      -1.919  15.092  24.163  0.00  0.00    +0.000 A 
ATOM     20  C   UNL     1      -1.107  14.094  23.615  0.00  0.00    +0.000 A 
ENDBRANCH   6  14
BRANCH   3  21
ATOM     21  S   UNL     1       1.165   7.914  21.303  0.00  0.00    +0.000 S 
BRANCH  21  22
ATOM     22  N   UNL     1       1.860   8.294  19.841  0.00  0.00    +0.000 NA
ATOM     23  H   UNL     1       2.516   9.070  19.923  0.00  0.00    +0.000 HD
BRANCH  22  24
ATOM     24  C   UNL     1       2.371   7.265  18.936  0.00  0.00    +0.000 C 
BRANCH  24  25
ATOM     25  C   UNL     1       2.619   5.910  19.656  0.00  0.00    +0.000 C 
ATOM     26  C   UNL     1       4.075   5.412  19.482  0.00  0.00    +0.000 C 
ATOM     27  C   UNL     1       4.251   4.326  18.414  0.00  0.00    +0.000 C 
ATOM     28  C   UNL     1       2.956   3.544  18.153  0.00  0.00    +0.000 C 
ATOM     29  C   UNL     1       1.861   4.522  17.642  0.00  0.00    +0.000 C 
ATOM     30  C   UNL     1       1.623   4.824  19.157  0.00  0.00    +0.000 C 
ATOM     31  C   UNL     1       1.994   3.269  19.379  0.00  0.00    +0.000 C 
ATOM     32  C   UNL     1       2.641   2.788  20.680  0.00  0.00    +0.000 C 
ATOM     33  C   UNL     1       0.869   2.253  19.062  0.00  0.00    +0.000 C 
ENDBRANCH  24  25
ENDBRANCH  22  24
ENDBRANCH  21  22
ENDBRANCH   3  21
TORSDOF 6
ENDMDL
MODEL 5
REMARK VINA RESULT:      -7.2      2.820      8.254
REMARK  Name = 
REMARK  10 active torsions:
REMARK  status: ('A' for Active; 'I' for Inactive)
REMARK    1  A    between atoms: C_1  and  C_2
REMARK    2  A    between atoms: C_5  and  C_6
REMARK    3  A    between atoms: C_8  and  S_9
REMARK    4  A    between atoms: S_9  and  N_10
REMARK    5  A    between atoms: N_10  and  C_11
REMARK    6  A    between atoms: C_11  and  C_12
REMARK    7  A    between atoms: C_18  and  C_19
REMARK    8  A    between atoms: C_18  and  C_20
REMARK    9  A    between atoms: C_23  and  C_24
REMARK   10  A    between atoms: C_27  and  C_28
REMARK                            x       y       z     vdW  Elec       q    Type
REMARK                         _______ _______ _______ _____ _____    ______ ____
ROOT
ATOM      1  C   UNL     1      -1.105  11.186  19.281  0.00  0.00    +0.000 A 
ATOM      2  C   UNL     1      -0.231  10.474  18.425  0.00  0.00    +0.000 A 
ATOM      3  C   UNL     1       1.106  10.293  18.759  0.00  0.00    +0.000 A 
ATOM      4  N   UNL     1       1.606  10.825  19.885  0.00  0.00    +0.000 NA
ATOM      5  N   UNL     1       0.788  11.525  20.735  0.00  0.00    +0.000 NA
ATOM      6  C   UNL     1      -0.538  11.687  20.475  0.00  0.00    +0.000 A 
ENDROOT
BRANCH   1  11
ATOM      7  C   UNL     1      -6.768  11.665  17.918  0.00  0.00    +0.000 C 
ATOM      8  C   UNL     1      -5.303  11.564  18.222  0.00  0.00    +0.000 A 
ATOM      9  C   UNL     1      -4.494  10.613  17.598  0.00  0.00    +0.000 A 
ATOM     10  C   UNL     1      -3.137  10.502  17.930  0.00  0.00    +0.000 A 
ATOM     11  C   UNL     1      -2.533  11.353  18.880  0.00  0.00    +0.000 A 
ATOM     12  C   UNL     1      -3.358  12.339  19.452  0.00  0.00    +0.000 A 
ATOM     13  C   UNL     1      -4.725  12.420  19.160  0.00  0.00    +0.000 A 
ENDBRANCH   1  11
BRANCH   6  14
ATOM     14  C   UNL     1      -1.245  12.389  21.574  0.00  0.00    +0.000 A 
ATOM     15  C   UNL     1      -1.199  13.794  21.674  0.00  0.00    +0.000 A 
ATOM     16  C   UNL     1      -1.882  14.485  22.684  0.00  0.00    +0.000 A 
ATOM     17  C   UNL     1      -2.638  13.784  23.623  0.00  0.00    +0.000 A 
ATOM     18  C   UNL     1      -3.406  14.499  24.693  0.00  0.00    +0.000 C 
ATOM     19  C   UNL     1      -2.679  12.388  23.554  0.00  0.00    +0.000 A 
ATOM     20  C   UNL     1      -1.964  11.703  22.567  0.00  0.00    +0.000 A 
ENDBRANCH   6  14
BRANCH   3  21
ATOM     21  S   UNL     1       2.182   9.294  17.728  0.00  0.00    +0.000 S 
BRANCH  21  22
ATOM     22  N   UNL     1       1.868   7.751  18.260  0.00  0.00    +0.000 NA
ATOM     23  H   UNL     1       1.994   7.061  17.520  0.00  0.00    +0.000 HD
BRANCH  22  24
ATOM     24  C   UNL     1       2.379   7.252  19.537  0.00  0.00    +0.000 C 
BRANCH  24  25
ATOM     25  C   UNL     1       3.001   5.834  19.415  0.00  0.00    +0.000 C 
ATOM     26  C   UNL     1       2.702   5.179  18.044  0.00  0.00    +0.000 C 
ATOM     27  C   UNL     1       1.564   4.151  18.067  0.00  0.00    +0.000 C 
ATOM     28  C   UNL     1       1.346   3.547  19.461  0.00  0.00    +0.000 C 
ATOM     29  C   UNL     1       0.967   4.679  20.458  0.00  0.00    +0.000 C 
ATOM     30  C   UNL     1       2.510   4.908  20.565  0.00  0.00    +0.000 C 
ATOM     31  C   UNL     1       2.617   3.309  20.374  0.00  0.00    +0.000 C 
ATOM     32  C   UNL     1       3.842   2.671  19.714  0.00  0.00    +0.000 C 
ATOM     33  C   UNL     1       2.320   2.457  21.633  0.00  0.00    +0.000 C 
ENDBRANCH  24  25
ENDBRANCH  22  24
ENDBRANCH  21  22
ENDBRANCH   3  21
TORSDOF 6
ENDMDL
MODEL 6
REMARK VINA RESULT:      -7.2      3.630      8.991
REMARK  Name = 
REMARK  10 active torsions:
REMARK  status: ('A' for Active; 'I' for Inactive)
REMARK    1  A    between atoms: C_1  and  C_2
REMARK    2  A    between atoms: C_5  and  C_6
REMARK    3  A    between atoms: C_8  and  S_9
REMARK    4  A    between atoms: S_9  and  N_10
REMARK    5  A    between atoms: N_10  and  C_11
REMARK    6  A    between atoms: C_11  and  C_12
REMARK    7  A    between atoms: C_18  and  C_19
REMARK    8  A    between atoms: C_18  and  C_20
REMARK    9  A    between atoms: C_23  and  C_24
REMARK   10  A    between atoms: C_27  and  C_28
REMARK                            x       y       z     vdW  Elec       q    Type
REMARK                         _______ _______ _______ _____ _____    ______ ____
ROOT
ATOM      1  C   UNL     1       0.026  11.743  21.446  0.00  0.00    +0.000 A 
ATOM      2  C   UNL     1       0.694  10.552  21.073  0.00  0.00    +0.000 A 
ATOM      3  C   UNL     1       0.426   9.351  21.718  0.00  0.00    +0.000 A 
ATOM      4  N   UNL     1      -0.446   9.303  22.738  0.00  0.00    +0.000 NA
ATOM      5  N   UNL     1      -1.107  10.440  23.128  0.00  0.00    +0.000 NA
ATOM      6  C   UNL     1      -0.914  11.629  22.495  0.00  0.00    +0.000 A 
ENDROOT
BRANCH   1  11
ATOM      7  C   UNL     1       1.460  16.556  18.455  0.00  0.00    +0.000 C 
ATOM      8  C   UNL     1       1.070  15.351  19.259  0.00  0.00    +0.000 A 
ATOM      9  C   UNL     1       1.728  15.021  20.444  0.00  0.00    +0.000 A 
ATOM     10  C   UNL     1       1.380  13.865  21.157  0.00  0.00    +0.000 A 
ATOM     11  C   UNL     1       0.346  13.009  20.723  0.00  0.00    +0.000 A 
ATOM     12  C   UNL     1      -0.339  13.395  19.556  0.00  0.00    +0.000 A 
ATOM     13  C   UNL     1       0.039  14.522  18.815  0.00  0.00    +0.000 A 
ENDBRANCH   1  11
BRANCH   6  14
ATOM     14  C   UNL     1      -1.804  12.695  23.017  0.00  0.00    +0.000 A 
ATOM     15  C   UNL     1      -1.269  13.797  23.714  0.00  0.00    +0.000 A 
ATOM     16  C   UNL     1      -2.082  14.833  24.192  0.00  0.00    +0.000 A 
ATOM     17  C   UNL     1      -3.460  14.796  23.980  0.00  0.00    +0.000 A 
ATOM     18  C   UNL     1      -4.350  15.907  24.450  0.00  0.00    +0.000 C 
ATOM     19  C   UNL     1      -4.013  13.700  23.310  0.00  0.00    +0.000 A 
ATOM     20  C   UNL     1      -3.200  12.652  22.869  0.00  0.00    +0.000 A 
ENDBRANCH   6  14
BRANCH   3  21
ATOM     21  S   UNL     1       1.191   7.824  21.169  0.00  0.00    +0.000 S 
BRANCH  21  22
ATOM     22  N   UNL     1       1.949   8.281  19.762  0.00  0.00    +0.000 NA
ATOM     23  H   UNL     1       2.775   8.851  19.944  0.00  0.00    +0.000 HD
BRANCH  22  24
ATOM     24  C   UNL     1       2.191   7.339  18.669  0.00  0.00    +0.000 C 
BRANCH  24  25
ATOM     25  C   UNL     1       2.943   6.063  19.140  0.00  0.00    +0.000 C 
ATOM     26  C   UNL     1       4.221   5.796  18.308  0.00  0.00    +0.000 C 
ATOM     27  C   UNL     1       4.061   4.718  17.229  0.00  0.00    +0.000 C 
ATOM     28  C   UNL     1       2.926   3.733  17.545  0.00  0.00    +0.000 C 
ATOM     29  C   UNL     1       1.582   4.510  17.625  0.00  0.00    +0.000 C 
ATOM     30  C   UNL     1       2.010   4.818  19.097  0.00  0.00    +0.000 C 
ATOM     31  C   UNL     1       2.677   3.349  19.059  0.00  0.00    +0.000 C 
ATOM     32  C   UNL     1       3.907   3.017  19.907  0.00  0.00    +0.000 C 
ATOM     33  C   UNL     1       1.702   2.159  19.239  0.00  0.00    +0.000 C 
ENDBRANCH  24  25
ENDBRANCH  22  24
ENDBRANCH  21  22
ENDBRANCH   3  21
TORSDOF 6
ENDMDL
MODEL 7
REMARK VINA RESULT:      -7.2      3.798      8.762
REMARK  Name = 
REMARK  10 active torsions:
REMARK  status: ('A' for Active; 'I' for Inactive)
REMARK    1  A    between atoms: C_1  and  C_2
REMARK    2  A    between atoms: C_5  and  C_6
REMARK    3  A    between atoms: C_8  and  S_9
REMARK    4  A    between atoms: S_9  and  N_10
REMARK    5  A    between atoms: N_10  and  C_11
REMARK    6  A    between atoms: C_11  and  C_12
REMARK    7  A    between atoms: C_18  and  C_19
REMARK    8  A    between atoms: C_18  and  C_20
REMARK    9  A    between atoms: C_23  and  C_24
REMARK   10  A    between atoms: C_27  and  C_28
REMARK                            x       y       z     vdW  Elec       q    Type
REMARK                         _______ _______ _______ _____ _____    ______ ____
ROOT
ATOM      1  C   UNL     1       0.318  11.752  19.977  0.00  0.00    +0.000 A 
ATOM      2  C   UNL     1       0.502  10.520  19.303  0.00  0.00    +0.000 A 
ATOM      3  C   UNL     1       1.501  10.370  18.349  0.00  0.00    +0.000 A 
ATOM      4  N   UNL     1       2.290  11.404  18.018  0.00  0.00    +0.000 NA
ATOM      5  N   UNL     1       2.137  12.613  18.648  0.00  0.00    +0.000 NA
ATOM      6  C   UNL     1       1.204  12.795  19.623  0.00  0.00    +0.000 A 
ENDROOT
BRANCH   1  11
ATOM      7  C   UNL     1      -3.819  12.433  24.049  0.00  0.00    +0.000 C 
ATOM      8  C   UNL     1      -2.771  12.209  22.998  0.00  0.00    +0.000 A 
ATOM      9  C   UNL     1      -1.617  11.471  23.266  0.00  0.00    +0.000 A 
ATOM     10  C   UNL     1      -0.629  11.312  22.285  0.00  0.00    +0.000 A 
ATOM     11  C   UNL     1      -0.767  11.865  20.994  0.00  0.00    +0.000 A 
ATOM     12  C   UNL     1      -1.966  12.555  20.734  0.00  0.00    +0.000 A 
ATOM     13  C   UNL     1      -2.933  12.758  21.726  0.00  0.00    +0.000 A 
ENDBRANCH   1  11
BRANCH   6  14
ATOM     14  C   UNL     1       1.282  14.146  20.231  0.00  0.00    +0.000 A 
ATOM     15  C   UNL     1       1.918  14.336  21.474  0.00  0.00    +0.000 A 
ATOM     16  C   UNL     1       2.032  15.605  22.057  0.00  0.00    +0.000 A 
ATOM     17  C   UNL     1       1.514  16.724  21.406  0.00  0.00    +0.000 A 
ATOM     18  C   UNL     1       1.653  18.098  21.989  0.00  0.00    +0.000 C 
ATOM     19  C   UNL     1       0.861  16.553  20.182  0.00  0.00    +0.000 A 
ATOM     20  C   UNL     1       0.717  15.279  19.624  0.00  0.00    +0.000 A 
ENDBRANCH   6  14
BRANCH   3  21
ATOM     21  S   UNL     1       1.804   8.777  17.580  0.00  0.00    +0.000 S 
BRANCH  21  22
ATOM     22  N   UNL     1       2.778   8.015  18.691  0.00  0.00    +0.000 NA
ATOM     23  H   UNL     1       3.436   8.662  19.126  0.00  0.00    +0.000 HD
BRANCH  22  24
ATOM     24  C   UNL     1       2.244   7.070  19.671  0.00  0.00    +0.000 C 
BRANCH  24  25
ATOM     25  C   UNL     1       2.916   5.672  19.576  0.00  0.00    +0.000 C 
ATOM     26  C   UNL     1       2.730   5.027  18.179  0.00  0.00    +0.000 C 
ATOM     27  C   UNL     1       1.625   3.967  18.113  0.00  0.00    +0.000 C 
ATOM     28  C   UNL     1       1.330   3.337  19.482  0.00  0.00    +0.000 C 
ATOM     29  C   UNL     1       0.850   4.444  20.462  0.00  0.00    +0.000 C 
ATOM     30  C   UNL     1       2.375   4.716  20.678  0.00  0.00    +0.000 C 
ATOM     31  C   UNL     1       2.542   3.124  20.477  0.00  0.00    +0.000 C 
ATOM     32  C   UNL     1       3.828   2.531  19.895  0.00  0.00    +0.000 C 
ATOM     33  C   UNL     1       2.185   2.246  21.702  0.00  0.00    +0.000 C 
ENDBRANCH  24  25
ENDBRANCH  22  24
ENDBRANCH  21  22
ENDBRANCH   3  21
TORSDOF 6
ENDMDL
MODEL 8
REMARK VINA RESULT:      -7.2      3.573      9.078
REMARK  Name = 
REMARK  10 active torsions:
REMARK  status: ('A' for Active; 'I' for Inactive)
REMARK    1  A    between atoms: C_1  and  C_2
REMARK    2  A    between atoms: C_5  and  C_6
REMARK    3  A    between atoms: C_8  and  S_9
REMARK    4  A    between atoms: S_9  and  N_10
REMARK    5  A    between atoms: N_10  and  C_11
REMARK    6  A    between atoms: C_11  and  C_12
REMARK    7  A    between atoms: C_18  and  C_19
REMARK    8  A    between atoms: C_18  and  C_20
REMARK    9  A    between atoms: C_23  and  C_24
REMARK   10  A    between atoms: C_27  and  C_28
REMARK                            x       y       z     vdW  Elec       q    Type
REMARK                         _______ _______ _______ _____ _____    ______ ____
ROOT
ATOM      1  C   UNL     1       0.502  11.938  19.676  0.00  0.00    +0.000 A 
ATOM      2  C   UNL     1       1.395  11.157  18.902  0.00  0.00    +0.000 A 
ATOM      3  C   UNL     1       1.335   9.770  18.926  0.00  0.00    +0.000 A 
ATOM      4  N   UNL     1       0.453   9.138  19.716  0.00  0.00    +0.000 NA
ATOM      5  N   UNL     1      -0.424   9.862  20.482  0.00  0.00    +0.000 NA
ATOM      6  C   UNL     1      -0.436  11.223  20.455  0.00  0.00    +0.000 A 
ENDROOT
BRANCH   1  11
ATOM      7  C   UNL     1       0.693  17.779  19.631  0.00  0.00    +0.000 C 
ATOM      8  C   UNL     1       0.672  16.279  19.599  0.00  0.00    +0.000 A 
ATOM      9  C   UNL     1      -0.118  15.582  18.684  0.00  0.00    +0.000 A 
ATOM     10  C   UNL     1      -0.160  14.181  18.701  0.00  0.00    +0.000 A 
ATOM     11  C   UNL     1       0.603  13.425  19.616  0.00  0.00    +0.000 A 
ATOM     12  C   UNL     1       1.433  14.152  20.489  0.00  0.00    +0.000 A 
ATOM     13  C   UNL     1       1.440  15.553  20.509  0.00  0.00    +0.000 A 
ENDBRANCH   1  11
BRANCH   6  14
ATOM     14  C   UNL     1      -1.528  11.792  21.283  0.00  0.00    +0.000 A 
ATOM     15  C   UNL     1      -1.516  11.645  22.685  0.00  0.00    +0.000 A 
ATOM     16  C   UNL     1      -2.518  12.198  23.493  0.00  0.00    +0.000 A 
ATOM     17  C   UNL     1      -3.562  12.921  22.917  0.00  0.00    +0.000 A 
ATOM     18  C   UNL     1      -4.628  13.552  23.760  0.00  0.00    +0.000 C 
ATOM     19  C   UNL     1      -3.604  13.060  21.527  0.00  0.00    +0.000 A 
ATOM     20  C   UNL     1      -2.621  12.474  20.723  0.00  0.00    +0.000 A 
ENDBRANCH   6  14
BRANCH   3  21
ATOM     21  S   UNL     1       2.392   8.787  17.859  0.00  0.00    +0.000 S 
BRANCH  21  22
ATOM     22  N   UNL     1       2.401   7.308  18.617  0.00  0.00    +0.000 NA
ATOM     23  H   UNL     1       1.829   7.310  19.461  0.00  0.00    +0.000 HD
BRANCH  22  24
ATOM     24  C   UNL     1       2.240   6.056  17.876  0.00  0.00    +0.000 C 
BRANCH  24  25
ATOM     25  C   UNL     1       3.073   4.894  18.485  0.00  0.00    +0.000 C 
ATOM     26  C   UNL     1       3.242   3.714  17.496  0.00  0.00    +0.000 C 
ATOM     27  C   UNL     1       2.301   2.532  17.755  0.00  0.00    +0.000 C 
ATOM     28  C   UNL     1       1.816   2.472  19.210  0.00  0.00    +0.000 C 
ATOM     29  C   UNL     1       1.028   3.772  19.541  0.00  0.00    +0.000 C 
ATOM     30  C   UNL     1       2.438   4.389  19.812  0.00  0.00    +0.000 C 
ATOM     31  C   UNL     1       2.824   2.916  20.346  0.00  0.00    +0.000 C 
ATOM     32  C   UNL     1       4.258   2.390  20.252  0.00  0.00    +0.000 C 
ATOM     33  C   UNL     1       2.334   2.565  21.774  0.00  0.00    +0.000 C 
ENDBRANCH  24  25
ENDBRANCH  22  24
ENDBRANCH  21  22
ENDBRANCH   3  21
TORSDOF 6
ENDMDL
MODEL 9
REMARK VINA RESULT:      -7.2      3.863      9.043
REMARK  Name = 
REMARK  10 active torsions:
REMARK  status: ('A' for Active; 'I' for Inactive)
REMARK    1  A    between atoms: C_1  and  C_2
REMARK    2  A    between atoms: C_5  and  C_6
REMARK    3  A    between atoms: C_8  and  S_9
REMARK    4  A    between atoms: S_9  and  N_10
REMARK    5  A    between atoms: N_10  and  C_11
REMARK    6  A    between atoms: C_11  and  C_12
REMARK    7  A    between atoms: C_18  and  C_19
REMARK    8  A    between atoms: C_18  and  C_20
REMARK    9  A    between atoms: C_23  and  C_24
REMARK   10  A    between atoms: C_27  and  C_28
REMARK                            x       y       z     vdW  Elec       q    Type
REMARK                         _______ _______ _______ _____ _____    ______ ____
ROOT
ATOM      1  C   UNL     1       0.549  12.412  19.747  0.00  0.00    +0.000 A 
ATOM      2  C   UNL     1       1.136  11.525  18.812  0.00  0.00    +0.000 A 
ATOM      3  C   UNL     1       1.049  10.149  18.980  0.00  0.00    +0.000 A 
ATOM      4  N   UNL     1       0.438   9.631  20.058  0.00  0.00    +0.000 NA
ATOM      5  N   UNL     1      -0.137  10.461  20.986  0.00  0.00    +0.000 NA
ATOM      6  C   UNL     1      -0.120  11.814  20.838  0.00  0.00    +0.000 A 
ENDROOT
BRANCH   1  11
ATOM      7  C   UNL     1       1.100  18.118  18.605  0.00  0.00    +0.000 C 
ATOM      8  C   UNL     1       0.956  16.664  18.949  0.00  0.00    +0.000 A 
ATOM      9  C   UNL     1       2.004  15.945  19.524  0.00  0.00    +0.000 A 
ATOM     10  C   UNL     1       1.866  14.576  19.795  0.00  0.00    +0.000 A 
ATOM     11  C   UNL     1       0.667  13.883  19.522  0.00  0.00    +0.000 A 
ATOM     12  C   UNL     1      -0.391  14.645  18.995  0.00  0.00    +0.000 A 
ATOM     13  C   UNL     1      -0.241  16.000  18.676  0.00  0.00    +0.000 A 
ENDBRANCH   1  11
BRANCH   6  14
ATOM     14  C   UNL     1      -0.884  12.506  21.905  0.00  0.00    +0.000 A 
ATOM     15  C   UNL     1      -0.373  13.669  22.514  0.00  0.00    +0.000 A 
ATOM     16  C   UNL     1      -1.087  14.360  23.502  0.00  0.00    +0.000 A 
ATOM     17  C   UNL     1      -2.341  13.903  23.907  0.00  0.00    +0.000 A 
ATOM     18  C   UNL     1      -3.142  14.641  24.937  0.00  0.00    +0.000 C 
ATOM     19  C   UNL     1      -2.857  12.738  23.331  0.00  0.00    +0.000 A 
ATOM     20  C   UNL     1      -2.122  12.033  22.372  0.00  0.00    +0.000 A 
ENDBRANCH   6  14
BRANCH   3  21
ATOM     21  S   UNL     1       1.694   9.029  17.736  0.00  0.00    +0.000 S 
BRANCH  21  22
ATOM     22  N   UNL     1       2.499   7.896  18.648  0.00  0.00    +0.000 NA
ATOM     23  H   UNL     1       1.883   7.445  19.324  0.00  0.00    +0.000 HD
BRANCH  22  24
ATOM     24  C   UNL     1       3.419   6.928  18.048  0.00  0.00    +0.000 C 
BRANCH  24  25
ATOM     25  C   UNL     1       3.547   5.629  18.891  0.00  0.00    +0.000 C 
ATOM     26  C   UNL     1       4.581   4.643  18.293  0.00  0.00    +0.000 C 
ATOM     27  C   UNL     1       3.966   3.489  17.493  0.00  0.00    +0.000 C 
ATOM     28  C   UNL     1       2.518   3.191  17.907  0.00  0.00    +0.000 C 
ATOM     29  C   UNL     1       1.642   4.449  17.651  0.00  0.00    +0.000 C 
ATOM     30  C   UNL     1       2.168   4.926  19.044  0.00  0.00    +0.000 C 
ATOM     31  C   UNL     1       2.134   3.360  19.433  0.00  0.00    +0.000 C 
ATOM     32  C   UNL     1       3.103   2.780  20.466  0.00  0.00    +0.000 C 
ATOM     33  C   UNL     1       0.741   2.780  19.784  0.00  0.00    +0.000 C 
ENDBRANCH  24  25
ENDBRANCH  22  24
ENDBRANCH  21  22
ENDBRANCH   3  21
TORSDOF 6
ENDMDL
