MODEL 1
REMARK VINA RESULT:      -7.0      0.000      0.000
REMARK  Name = 
REMARK  5 active torsions:
REMARK  status: ('A' for Active; 'I' for Inactive)
REMARK    1  A    between atoms: C_1  and  C_2
REMARK    2  A    between atoms: C_2  and  O_3
REMARK    3  A    between atoms: O_3  and  C_4
REMARK    4  A    between atoms: C_9  and  C_10
REMARK    5  A    between atoms: C_18  and  O_19
REMARK                            x       y       z     vdW  Elec       q    Type
REMARK                         _______ _______ _______ _____ _____    ______ ____
ROOT
ATOM      1  C   UNL     1       7.010   5.790  17.495  0.00  0.00    +0.000 A 
ATOM      2  C   UNL     1       6.983   5.421  16.145  0.00  0.00    +0.000 A 
ATOM      3  C   UNL     1       6.081   4.463  15.693  0.00  0.00    +0.000 A 
ATOM      4 BR   UNL     1       6.062   4.005  13.855  0.00  0.00    +0.000 Br
ATOM      5  C   UNL     1       5.191   3.852  16.568  0.00  0.00    +0.000 A 
ATOM      6  C   UNL     1       5.198   4.201  17.926  0.00  0.00    +0.000 A 
ATOM      7  C   UNL     1       6.113   5.168  18.383  0.00  0.00    +0.000 A 
ENDROOT
BRANCH   6   8
ATOM      8  C   UNL     1       4.199   3.566  18.794  0.00  0.00    +0.000 C 
ATOM      9  C   UNL     1       3.280   4.261  19.472  0.00  0.00    +0.000 C 
ATOM     10  N   UNL     1       3.108   5.617  19.500  0.00  0.00    +0.000 N 
ATOM     11  C   UNL     1       2.052   5.928  20.338  0.00  0.00    +0.000 C 
ATOM     12  S   UNL     1       1.507   7.446  20.674  0.00  0.00    +0.000 S 
ATOM     13  N   UNL     1       1.544   4.759  20.840  0.00  0.00    +0.000 N 
ATOM     14  C   UNL     1       2.234   3.675  20.367  0.00  0.00    +0.000 C 
ATOM     15  O   UNL     1       2.053   2.499  20.616  0.00  0.00    +0.000 OA
ATOM     16  H   UNL     1       3.666   6.296  19.000  0.00  0.00    +0.000 HD
ATOM     17  H   UNL     1       0.771   4.694  21.483  0.00  0.00    +0.000 HD
ENDBRANCH   6   8
BRANCH   7  18
ATOM     18  O   UNL     1       6.150   5.535  19.706  0.00  0.00    +0.000 OA
ATOM     19  H   UNL     1       6.471   6.449  19.784  0.00  0.00    +0.000 HD
ENDBRANCH   7  18
BRANCH   1  20
ATOM     20  O   UNL     1       7.865   6.739  18.011  0.00  0.00    +0.000 OA
BRANCH  20  22
ATOM     21  C   UNL     1       8.471   9.061  18.352  0.00  0.00    +0.000 C 
ATOM     22  C   UNL     1       7.707   8.065  17.500  0.00  0.00    +0.000 C 
ENDBRANCH  20  22
ENDBRANCH   1  20
TORSDOF 4
ENDMDL
MODEL 2
REMARK VINA RESULT:      -6.9      4.380      6.844
REMARK  Name = 
REMARK  5 active torsions:
REMARK  status: ('A' for Active; 'I' for Inactive)
REMARK    1  A    between atoms: C_1  and  C_2
REMARK    2  A    between atoms: C_2  and  O_3
REMARK    3  A    between atoms: O_3  and  C_4
REMARK    4  A    between atoms: C_9  and  C_10
REMARK    5  A    between atoms: C_18  and  O_19
REMARK                            x       y       z     vdW  Elec       q    Type
REMARK                         _______ _______ _______ _____ _____    ______ ____
ROOT
ATOM      1  C   UNL     1       3.612   4.333  18.002  0.00  0.00    +0.000 A 
ATOM      2  C   UNL     1       2.912   5.520  18.246  0.00  0.00    +0.000 A 
ATOM      3  C   UNL     1       3.336   6.719  17.682  0.00  0.00    +0.000 A 
ATOM      4 BR   UNL     1       2.352   8.301  18.021  0.00  0.00    +0.000 Br
ATOM      5  C   UNL     1       4.460   6.765  16.865  0.00  0.00    +0.000 A 
ATOM      6  C   UNL     1       5.181   5.591  16.605  0.00  0.00    +0.000 A 
ATOM      7  C   UNL     1       4.754   4.379  17.181  0.00  0.00    +0.000 A 
ENDROOT
BRANCH   6   8
ATOM      8  C   UNL     1       6.326   5.687  15.692  0.00  0.00    +0.000 C 
ATOM      9  C   UNL     1       6.378   5.043  14.522  0.00  0.00    +0.000 C 
ATOM     10  N   UNL     1       5.438   4.208  13.984  0.00  0.00    +0.000 N 
ATOM     11  C   UNL     1       5.887   3.737  12.763  0.00  0.00    +0.000 C 
ATOM     12  S   UNL     1       5.078   2.695  11.778  0.00  0.00    +0.000 S 
ATOM     13  N   UNL     1       7.120   4.284  12.519  0.00  0.00    +0.000 N 
ATOM     14  C   UNL     1       7.510   5.103  13.546  0.00  0.00    +0.000 C 
ATOM     15  O   UNL     1       8.543   5.734  13.656  0.00  0.00    +0.000 OA
ATOM     16  H   UNL     1       4.555   3.957  14.409  0.00  0.00    +0.000 HD
ATOM     17  H   UNL     1       7.680   4.107  11.701  0.00  0.00    +0.000 HD
ENDBRANCH   6   8
BRANCH   7  18
ATOM     18  O   UNL     1       5.435   3.209  16.949  0.00  0.00    +0.000 OA
ATOM     19  H   UNL     1       5.812   3.221  16.054  0.00  0.00    +0.000 HD
ENDBRANCH   7  18
BRANCH   1  20
ATOM     20  O   UNL     1       3.245   3.109  18.516  0.00  0.00    +0.000 OA
BRANCH  20  22
ATOM     21  C   UNL     1       0.930   2.452  18.814  0.00  0.00    +0.000 C 
ATOM     22  C   UNL     1       2.128   2.477  17.884  0.00  0.00    +0.000 C 
ENDBRANCH  20  22
ENDBRANCH   1  20
TORSDOF 4
ENDMDL
MODEL 3
REMARK VINA RESULT:      -6.8      3.740      6.017
REMARK  Name = 
REMARK  5 active torsions:
REMARK  status: ('A' for Active; 'I' for Inactive)
REMARK    1  A    between atoms: C_1  and  C_2
REMARK    2  A    between atoms: C_2  and  O_3
REMARK    3  A    between atoms: O_3  and  C_4
REMARK    4  A    between atoms: C_9  and  C_10
REMARK    5  A    between atoms: C_18  and  O_19
REMARK                            x       y       z     vdW  Elec       q    Type
REMARK                         _______ _______ _______ _____ _____    ______ ____
ROOT
ATOM      1  C   UNL     1       2.089   6.661  19.827  0.00  0.00    +0.000 A 
ATOM      2  C   UNL     1       1.799   5.583  20.672  0.00  0.00    +0.000 A 
ATOM      3  C   UNL     1       2.305   4.317  20.397  0.00  0.00    +0.000 A 
ATOM      4 BR   UNL     1       1.906   2.887  21.574  0.00  0.00    +0.000 Br
ATOM      5  C   UNL     1       3.106   4.093  19.283  0.00  0.00    +0.000 A 
ATOM      6  C   UNL     1       3.411   5.156  18.420  0.00  0.00    +0.000 A 
ATOM      7  C   UNL     1       2.894   6.436  18.695  0.00  0.00    +0.000 A 
ENDROOT
BRANCH   6   8
ATOM      8  C   UNL     1       4.306   4.875  17.292  0.00  0.00    +0.000 C 
ATOM      9  C   UNL     1       5.439   5.551  17.079  0.00  0.00    +0.000 C 
ATOM     10  N   UNL     1       5.951   6.581  17.819  0.00  0.00    +0.000 N 
ATOM     11  C   UNL     1       7.137   7.009  17.250  0.00  0.00    +0.000 C 
ATOM     12  S   UNL     1       8.082   8.238  17.808  0.00  0.00    +0.000 S 
ATOM     13  N   UNL     1       7.386   6.239  16.144  0.00  0.00    +0.000 N 
ATOM     14  C   UNL     1       6.396   5.312  15.954  0.00  0.00    +0.000 C 
ATOM     15  O   UNL     1       6.300   4.482  15.070  0.00  0.00    +0.000 OA
ATOM     16  H   UNL     1       5.531   6.983  18.646  0.00  0.00    +0.000 HD
ATOM     17  H   UNL     1       8.183   6.340  15.537  0.00  0.00    +0.000 HD
ENDBRANCH   6   8
BRANCH   7  18
ATOM     18  O   UNL     1       3.171   7.500  17.873  0.00  0.00    +0.000 OA
ATOM     19  H   UNL     1       3.833   8.075  18.291  0.00  0.00    +0.000 HD
ENDBRANCH   7  18
BRANCH   1  20
ATOM     20  O   UNL     1       1.634   7.944  20.042  0.00  0.00    +0.000 OA
BRANCH  20  22
ATOM     21  C   UNL     1      -0.104   8.971  21.385  0.00  0.00    +0.000 C 
ATOM     22  C   UNL     1       1.229   8.246  21.380  0.00  0.00    +0.000 C 
ENDBRANCH  20  22
ENDBRANCH   1  20
TORSDOF 4
ENDMDL
MODEL 4
REMARK VINA RESULT:      -6.7      4.240      6.602
REMARK  Name = 
REMARK  5 active torsions:
REMARK  status: ('A' for Active; 'I' for Inactive)
REMARK    1  A    between atoms: C_1  and  C_2
REMARK    2  A    between atoms: C_2  and  O_3
REMARK    3  A    between atoms: O_3  and  C_4
REMARK    4  A    between atoms: C_9  and  C_10
REMARK    5  A    between atoms: C_18  and  O_19
REMARK                            x       y       z     vdW  Elec       q    Type
REMARK                         _______ _______ _______ _____ _____    ______ ____
ROOT
ATOM      1  C   UNL     1       5.155   4.513  18.693  0.00  0.00    +0.000 A 
ATOM      2  C   UNL     1       4.102   5.435  18.724  0.00  0.00    +0.000 A 
ATOM      3  C   UNL     1       4.029   6.454  17.781  0.00  0.00    +0.000 A 
ATOM      4 BR   UNL     1       2.578   7.670  17.843  0.00  0.00    +0.000 Br
ATOM      5  C   UNL     1       4.996   6.582  16.790  0.00  0.00    +0.000 A 
ATOM      6  C   UNL     1       6.063   5.673  16.738  0.00  0.00    +0.000 A 
ATOM      7  C   UNL     1       6.139   4.645  17.696  0.00  0.00    +0.000 A 
ENDROOT
BRANCH   6   8
ATOM      8  C   UNL     1       7.024   5.821  15.638  0.00  0.00    +0.000 C 
ATOM      9  C   UNL     1       6.907   5.166  14.479  0.00  0.00    +0.000 C 
ATOM     10  N   UNL     1       5.935   4.275  14.115  0.00  0.00    +0.000 N 
ATOM     11  C   UNL     1       6.190   3.815  12.836  0.00  0.00    +0.000 C 
ATOM     12  S   UNL     1       5.280   2.718  12.009  0.00  0.00    +0.000 S 
ATOM     13  N   UNL     1       7.329   4.425  12.379  0.00  0.00    +0.000 N 
ATOM     14  C   UNL     1       7.846   5.276  13.320  0.00  0.00    +0.000 C 
ATOM     15  O   UNL     1       8.846   5.963  13.246  0.00  0.00    +0.000 OA
ATOM     16  H   UNL     1       5.155   3.982  14.688  0.00  0.00    +0.000 HD
ATOM     17  H   UNL     1       7.747   4.268  11.477  0.00  0.00    +0.000 HD
ENDBRANCH   6   8
BRANCH   7  18
ATOM     18  O   UNL     1       7.169   3.737  17.676  0.00  0.00    +0.000 OA
ATOM     19  H   UNL     1       7.822   3.966  18.358  0.00  0.00    +0.000 HD
ENDBRANCH   7  18
BRANCH   1  20
ATOM     20  O   UNL     1       5.286   3.472  19.586  0.00  0.00    +0.000 OA
BRANCH  20  22
ATOM     21  C   UNL     1       3.724   1.963  18.509  0.00  0.00    +0.000 C 
ATOM     22  C   UNL     1       4.116   2.675  19.790  0.00  0.00    +0.000 C 
ENDBRANCH  20  22
ENDBRANCH   1  20
TORSDOF 4
ENDMDL
MODEL 5
REMARK VINA RESULT:      -6.4      2.300      3.322
REMARK  Name = 
REMARK  5 active torsions:
REMARK  status: ('A' for Active; 'I' for Inactive)
REMARK    1  A    between atoms: C_1  and  C_2
REMARK    2  A    between atoms: C_2  and  O_3
REMARK    3  A    between atoms: O_3  and  C_4
REMARK    4  A    between atoms: C_9  and  C_10
REMARK    5  A    between atoms: C_18  and  O_19
REMARK                            x       y       z     vdW  Elec       q    Type
REMARK                         _______ _______ _______ _____ _____    ______ ____
ROOT
ATOM      1  C   UNL     1       6.240   4.449  16.088  0.00  0.00    +0.000 A 
ATOM      2  C   UNL     1       6.999   5.605  16.306  0.00  0.00    +0.000 A 
ATOM      3  C   UNL     1       6.835   6.347  17.471  0.00  0.00    +0.000 A 
ATOM      4 BR   UNL     1       7.893   7.896  17.737  0.00  0.00    +0.000 Br
ATOM      5  C   UNL     1       5.919   5.960  18.442  0.00  0.00    +0.000 A 
ATOM      6  C   UNL     1       5.145   4.807  18.248  0.00  0.00    +0.000 A 
ATOM      7  C   UNL     1       5.307   4.059  17.067  0.00  0.00    +0.000 A 
ENDROOT
BRANCH   6   8
ATOM      8  C   UNL     1       4.234   4.414  19.330  0.00  0.00    +0.000 C 
ATOM      9  C   UNL     1       3.303   5.233  19.828  0.00  0.00    +0.000 C 
ATOM     10  N   UNL     1       3.039   6.523  19.461  0.00  0.00    +0.000 N 
ATOM     11  C   UNL     1       2.006   7.019  20.235  0.00  0.00    +0.000 C 
ATOM     12  S   UNL     1       1.374   8.537  20.137  0.00  0.00    +0.000 S 
ATOM     13  N   UNL     1       1.603   6.032  21.096  0.00  0.00    +0.000 N 
ATOM     14  C   UNL     1       2.342   4.892  20.924  0.00  0.00    +0.000 C 
ATOM     15  O   UNL     1       2.255   3.839  21.524  0.00  0.00    +0.000 OA
ATOM     16  H   UNL     1       3.526   7.047  18.745  0.00  0.00    +0.000 HD
ATOM     17  H   UNL     1       0.868   6.125  21.778  0.00  0.00    +0.000 HD
ENDBRANCH   6   8
BRANCH   7  18
ATOM     18  O   UNL     1       4.567   2.924  16.843  0.00  0.00    +0.000 OA
ATOM     19  H   UNL     1       5.077   2.302  16.299  0.00  0.00    +0.000 HD
ENDBRANCH   7  18
BRANCH   1  20
ATOM     20  O   UNL     1       6.356   3.658  14.966  0.00  0.00    +0.000 OA
BRANCH  20  22
ATOM     21  C   UNL     1       6.090   3.375  12.573  0.00  0.00    +0.000 C 
ATOM     22  C   UNL     1       6.328   4.347  13.713  0.00  0.00    +0.000 C 
ENDBRANCH  20  22
ENDBRANCH   1  20
TORSDOF 4
ENDMDL
MODEL 6
REMARK VINA RESULT:      -6.4      2.989      5.095
REMARK  Name = 
REMARK  5 active torsions:
REMARK  status: ('A' for Active; 'I' for Inactive)
REMARK    1  A    between atoms: C_1  and  C_2
REMARK    2  A    between atoms: C_2  and  O_3
REMARK    3  A    between atoms: O_3  and  C_4
REMARK    4  A    between atoms: C_9  and  C_10
REMARK    5  A    between atoms: C_18  and  O_19
REMARK                            x       y       z     vdW  Elec       q    Type
REMARK                         _______ _______ _______ _____ _____    ______ ____
ROOT
ATOM      1  C   UNL     1       3.643   3.789  19.099  0.00  0.00    +0.000 A 
ATOM      2  C   UNL     1       5.028   3.790  18.898  0.00  0.00    +0.000 A 
ATOM      3  C   UNL     1       5.661   4.903  18.355  0.00  0.00    +0.000 A 
ATOM      4 BR   UNL     1       7.540   4.873  18.115  0.00  0.00    +0.000 Br
ATOM      5  C   UNL     1       4.937   6.035  18.000  0.00  0.00    +0.000 A 
ATOM      6  C   UNL     1       3.548   6.060  18.190  0.00  0.00    +0.000 A 
ATOM      7  C   UNL     1       2.906   4.932  18.735  0.00  0.00    +0.000 A 
ENDROOT
BRANCH   6   8
ATOM      8  C   UNL     1       2.840   7.301  17.851  0.00  0.00    +0.000 C 
ATOM      9  C   UNL     1       2.202   8.044  18.760  0.00  0.00    +0.000 C 
ATOM     10  N   UNL     1       2.079   7.804  20.100  0.00  0.00    +0.000 N 
ATOM     11  C   UNL     1       1.328   8.811  20.680  0.00  0.00    +0.000 C 
ATOM     12  S   UNL     1       0.923   8.913  22.273  0.00  0.00    +0.000 S 
ATOM     13  N   UNL     1       0.978   9.704  19.701  0.00  0.00    +0.000 N 
ATOM     14  C   UNL     1       1.469   9.318  18.481  0.00  0.00    +0.000 C 
ATOM     15  O   UNL     1       1.338   9.872  17.407  0.00  0.00    +0.000 OA
ATOM     16  H   UNL     1       2.462   7.012  20.598  0.00  0.00    +0.000 HD
ATOM     17  H   UNL     1       0.424  10.532  19.844  0.00  0.00    +0.000 HD
ENDBRANCH   6   8
BRANCH   7  18
ATOM     18  O   UNL     1       1.548   4.920  18.935  0.00  0.00    +0.000 OA
ATOM     19  H   UNL     1       1.090   4.920  18.078  0.00  0.00    +0.000 HD
ENDBRANCH   7  18
BRANCH   1  20
ATOM     20  O   UNL     1       2.950   2.729  19.643  0.00  0.00    +0.000 OA
BRANCH  20  22
ATOM     21  C   UNL     1       1.546   2.676  21.618  0.00  0.00    +0.000 C 
ATOM     22  C   UNL     1       2.960   2.644  21.070  0.00  0.00    +0.000 C 
ENDBRANCH  20  22
ENDBRANCH   1  20
TORSDOF 4
ENDMDL
MODEL 7
REMARK VINA RESULT:      -6.2      3.632      6.306
REMARK  Name = 
REMARK  5 active torsions:
REMARK  status: ('A' for Active; 'I' for Inactive)
REMARK    1  A    between atoms: C_1  and  C_2
REMARK    2  A    between atoms: C_2  and  O_3
REMARK    3  A    between atoms: O_3  and  C_4
REMARK    4  A    between atoms: C_9  and  C_10
REMARK    5  A    between atoms: C_18  and  O_19
REMARK                            x       y       z     vdW  Elec       q    Type
REMARK                         _______ _______ _______ _____ _____    ______ ____
ROOT
ATOM      1  C   UNL     1       2.231   4.361  20.233  0.00  0.00    +0.000 A 
ATOM      2  C   UNL     1       1.740   5.643  19.958  0.00  0.00    +0.000 A 
ATOM      3  C   UNL     1       2.571   6.615  19.411  0.00  0.00    +0.000 A 
ATOM      4 BR   UNL     1       1.865   8.332  19.036  0.00  0.00    +0.000 Br
ATOM      5  C   UNL     1       3.903   6.338  19.126  0.00  0.00    +0.000 A 
ATOM      6  C   UNL     1       4.421   5.062  19.393  0.00  0.00    +0.000 A 
ATOM      7  C   UNL     1       3.581   4.081  19.951  0.00  0.00    +0.000 A 
ENDROOT
BRANCH   6   8
ATOM      8  C   UNL     1       5.818   4.807  19.021  0.00  0.00    +0.000 C 
ATOM      9  C   UNL     1       6.210   4.624  17.757  0.00  0.00    +0.000 C 
ATOM     10  N   UNL     1       5.434   4.624  16.631  0.00  0.00    +0.000 N 
ATOM     11  C   UNL     1       6.229   4.382  15.525  0.00  0.00    +0.000 C 
ATOM     12  S   UNL     1       5.705   4.285  13.966  0.00  0.00    +0.000 S 
ATOM     13  N   UNL     1       7.523   4.236  15.950  0.00  0.00    +0.000 N 
ATOM     14  C   UNL     1       7.615   4.366  17.311  0.00  0.00    +0.000 C 
ATOM     15  O   UNL     1       8.605   4.285  18.011  0.00  0.00    +0.000 OA
ATOM     16  H   UNL     1       4.433   4.766  16.601  0.00  0.00    +0.000 HD
ATOM     17  H   UNL     1       8.310   4.045  15.352  0.00  0.00    +0.000 HD
ENDBRANCH   6   8
BRANCH   7  18
ATOM     18  O   UNL     1       4.053   2.821  20.226  0.00  0.00    +0.000 OA
ATOM     19  H   UNL     1       4.465   2.810  21.106  0.00  0.00    +0.000 HD
ENDBRANCH   7  18
BRANCH   1  20
ATOM     20  O   UNL     1       1.464   3.346  20.763  0.00  0.00    +0.000 OA
BRANCH  20  22
ATOM     21  C   UNL     1       0.945   2.258  18.660  0.00  0.00    +0.000 C 
ATOM     22  C   UNL     1       0.399   2.873  19.934  0.00  0.00    +0.000 C 
ENDBRANCH  20  22
ENDBRANCH   1  20
TORSDOF 4
ENDMDL
MODEL 8
REMARK VINA RESULT:      -6.2      3.481      6.292
REMARK  Name = 
REMARK  5 active torsions:
REMARK  status: ('A' for Active; 'I' for Inactive)
REMARK    1  A    between atoms: C_1  and  C_2
REMARK    2  A    between atoms: C_2  and  O_3
REMARK    3  A    between atoms: O_3  and  C_4
REMARK    4  A    between atoms: C_9  and  C_10
REMARK    5  A    between atoms: C_18  and  O_19
REMARK                            x       y       z     vdW  Elec       q    Type
REMARK                         _______ _______ _______ _____ _____    ______ ____
ROOT
ATOM      1  C   UNL     1       1.775   3.966  19.497  0.00  0.00    +0.000 A 
ATOM      2  C   UNL     1       1.514   5.284  19.890  0.00  0.00    +0.000 A 
ATOM      3  C   UNL     1       2.217   6.341  19.322  0.00  0.00    +0.000 A 
ATOM      4 BR   UNL     1       1.822   8.112  19.867  0.00  0.00    +0.000 Br
ATOM      5  C   UNL     1       3.190   6.116  18.356  0.00  0.00    +0.000 A 
ATOM      6  C   UNL     1       3.472   4.805  17.945  0.00  0.00    +0.000 A 
ATOM      7  C   UNL     1       2.765   3.735  18.523  0.00  0.00    +0.000 A 
ENDROOT
BRANCH   6   8
ATOM      8  C   UNL     1       4.469   4.629  16.882  0.00  0.00    +0.000 C 
ATOM      9  C   UNL     1       5.570   5.380  16.788  0.00  0.00    +0.000 C 
ATOM     10  N   UNL     1       5.957   6.405  17.606  0.00  0.00    +0.000 N 
ATOM     11  C   UNL     1       7.154   6.928  17.152  0.00  0.00    +0.000 C 
ATOM     12  S   UNL     1       7.974   8.185  17.831  0.00  0.00    +0.000 S 
ATOM     13  N   UNL     1       7.537   6.224  16.041  0.00  0.00    +0.000 N 
ATOM     14  C   UNL     1       6.626   5.248  15.735  0.00  0.00    +0.000 C 
ATOM     15  O   UNL     1       6.651   4.454  14.815  0.00  0.00    +0.000 OA
ATOM     16  H   UNL     1       5.449   6.745  18.412  0.00  0.00    +0.000 HD
ATOM     17  H   UNL     1       8.371   6.398  15.504  0.00  0.00    +0.000 HD
ENDBRANCH   6   8
BRANCH   7  18
ATOM     18  O   UNL     1       3.015   2.438  18.146  0.00  0.00    +0.000 OA
ATOM     19  H   UNL     1       3.376   2.422  17.244  0.00  0.00    +0.000 HD
ENDBRANCH   7  18
BRANCH   1  20
ATOM     20  O   UNL     1       1.112   2.870  20.006  0.00  0.00    +0.000 OA
BRANCH  20  22
ATOM     21  C   UNL     1       2.750   2.440  21.741  0.00  0.00    +0.000 C 
ATOM     22  C   UNL     1       1.283   2.634  21.406  0.00  0.00    +0.000 C 
ENDBRANCH  20  22
ENDBRANCH   1  20
TORSDOF 4
ENDMDL
MODEL 9
REMARK VINA RESULT:      -6.1      3.937      5.925
REMARK  Name = 
REMARK  5 active torsions:
REMARK  status: ('A' for Active; 'I' for Inactive)
REMARK    1  A    between atoms: C_1  and  C_2
REMARK    2  A    between atoms: C_2  and  O_3
REMARK    3  A    between atoms: O_3  and  C_4
REMARK    4  A    between atoms: C_9  and  C_10
REMARK    5  A    between atoms: C_18  and  O_19
REMARK                            x       y       z     vdW  Elec       q    Type
REMARK                         _______ _______ _______ _____ _____    ______ ____
ROOT
ATOM      1  C   UNL     1       2.353   6.407  19.491  0.00  0.00    +0.000 A 
ATOM      2  C   UNL     1       1.711   5.387  20.202  0.00  0.00    +0.000 A 
ATOM      3  C   UNL     1       2.368   4.191  20.469  0.00  0.00    +0.000 A 
ATOM      4 BR   UNL     1       1.471   2.842  21.451  0.00  0.00    +0.000 Br
ATOM      5  C   UNL     1       3.672   3.980  20.037  0.00  0.00    +0.000 A 
ATOM      6  C   UNL     1       4.339   4.984  19.320  0.00  0.00    +0.000 A 
ATOM      7  C   UNL     1       3.672   6.193  19.046  0.00  0.00    +0.000 A 
ENDROOT
BRANCH   6   8
ATOM      8  C   UNL     1       5.733   4.731  18.937  0.00  0.00    +0.000 C 
ATOM      9  C   UNL     1       6.120   4.578  17.667  0.00  0.00    +0.000 C 
ATOM     10  N   UNL     1       5.341   4.613  16.544  0.00  0.00    +0.000 N 
ATOM     11  C   UNL     1       6.131   4.395  15.430  0.00  0.00    +0.000 C 
ATOM     12  S   UNL     1       5.602   4.342  13.871  0.00  0.00    +0.000 S 
ATOM     13  N   UNL     1       7.426   4.230  15.847  0.00  0.00    +0.000 N 
ATOM     14  C   UNL     1       7.522   4.324  17.211  0.00  0.00    +0.000 C 
ATOM     15  O   UNL     1       8.514   4.218  17.905  0.00  0.00    +0.000 OA
ATOM     16  H   UNL     1       4.340   4.761  16.521  0.00  0.00    +0.000 HD
ATOM     17  H   UNL     1       8.210   4.051  15.242  0.00  0.00    +0.000 HD
ENDBRANCH   6   8
BRANCH   7  18
ATOM     18  O   UNL     1       4.292   7.199  18.347  0.00  0.00    +0.000 OA
ATOM     19  H   UNL     1       4.128   7.088  17.396  0.00  0.00    +0.000 HD
ENDBRANCH   7  18
BRANCH   1  20
ATOM     20  O   UNL     1       1.771   7.621  19.200  0.00  0.00    +0.000 OA
BRANCH  20  22
ATOM     21  C   UNL     1       0.605   9.626  19.905  0.00  0.00    +0.000 C 
ATOM     22  C   UNL     1       1.470   8.453  20.324  0.00  0.00    +0.000 C 
ENDBRANCH  20  22
ENDBRANCH   1  20
TORSDOF 4
ENDMDL
