MODEL 1
REMARK VINA RESULT:      -7.2      0.000      0.000
REMARK  Name = 
REMARK  13 active torsions:
REMARK  status: ('A' for Active; 'I' for Inactive)
REMARK    1  A    between atoms: C_2  and  C_3
REMARK    2  A    between atoms: C_2  and  N_21
REMARK    3  A    between atoms: C_4  and  C_5
REMARK    4  A    between atoms: C_6  and  C_7
REMARK    5  A    between atoms: C_11  and  O_12
REMARK    6  A    between atoms: O_12  and  C_13
REMARK    7  A    between atoms: C_13  and  C_14
REMARK    8  A    between atoms: C_14  and  O_15
REMARK    9  A    between atoms: C_14  and  C_16
REMARK   10  A    between atoms: C_16  and  N_17
REMARK   11  A    between atoms: N_17  and  C_18
REMARK   12  A    between atoms: C_18  and  C_19
REMARK   13  A    between atoms: C_18  and  C_20
REMARK                            x       y       z     vdW  Elec       q    Type
REMARK                         _______ _______ _______ _____ _____    ______ ____
ROOT
ATOM      1  C   UNL     1       3.602   5.350  18.913  0.00  0.00    +0.000 A 
ATOM      2  C   UNL     1       3.408   4.117  19.622  0.00  0.00    +0.000 A 
ATOM      3  C   UNL     1       4.156   2.847  19.278  0.00  0.00    +0.000 C 
ATOM      4  C   UNL     1       2.467   4.053  20.672  0.00  0.00    +0.000 A 
ATOM      5  C   UNL     1       2.157   2.830  21.488  0.00  0.00    +0.000 C 
ATOM      6  C   UNL     1       1.771   5.198  21.031  0.00  0.00    +0.000 A 
ATOM      7  C   UNL     1       1.944   6.414  20.366  0.00  0.00    +0.000 A 
ATOM      8 CL   UNL     1       0.911   7.630  21.070  0.00  0.00    +0.000 Cl
ATOM      9  C   UNL     1       2.855   6.520  19.277  0.00  0.00    +0.000 A 
ENDROOT
BRANCH   1  11
ATOM     10  C   UNL     1       4.236   4.723  16.666  0.00  0.00    +0.000 C 
ATOM     11  C   UNL     1       4.605   5.376  17.790  0.00  0.00    +0.000 C 
BRANCH  11  12
ATOM     12  N   UNL     1       5.881   5.974  17.956  0.00  0.00    +0.000 N 
ATOM     13  C   UNL     1       6.444   7.011  17.228  0.00  0.00    +0.000 A 
ATOM     14  C   UNL     1       7.687   7.249  17.765  0.00  0.00    +0.000 A 
ATOM     15  N   UNL     1       7.943   6.375  18.784  0.00  0.00    +0.000 NA
ATOM     16  C   UNL     1       6.866   5.623  18.863  0.00  0.00    +0.000 A 
ENDBRANCH  11  12
ENDBRANCH   1  11
BRANCH   9  17
ATOM     17  O   UNL     1       3.106   7.661  18.500  0.00  0.00    +0.000 OA
BRANCH  17  18
ATOM     18  C   UNL     1       1.930   8.338  18.053  0.00  0.00    +0.000 C 
BRANCH  18  19
ATOM     19  C   UNL     1       1.709   9.819  18.401  0.00  0.00    +0.000 C 
BRANCH  19  20
ATOM     20  O   UNL     1       2.150  10.678  17.344  0.00  0.00    +0.000 OA
ATOM     21  H   UNL     1       2.541  10.122  16.648  0.00  0.00    +0.000 HD
ENDBRANCH  19  20
BRANCH  19  22
ATOM     22  C   UNL     1       0.168  10.034  18.616  0.00  0.00    +0.000 C 
BRANCH  22  23
ATOM     23  N   UNL     1      -0.606   9.985  17.368  0.00  0.00    +0.000 NA
ATOM     24  H   UNL     1      -0.363   9.135  16.857  0.00  0.00    +0.000 HD
BRANCH  23  25
ATOM     25  C   UNL     1      -2.067  10.047  17.526  0.00  0.00    +0.000 C 
ATOM     26  C   UNL     1      -2.561  11.352  18.155  0.00  0.00    +0.000 C 
ATOM     27  C   UNL     1      -2.705   9.902  16.136  0.00  0.00    +0.000 C 
ENDBRANCH  23  25
ENDBRANCH  22  23
ENDBRANCH  19  22
ENDBRANCH  18  19
ENDBRANCH  17  18
ENDBRANCH   9  17
TORSDOF 9
ENDMDL
MODEL 2
REMARK VINA RESULT:      -7.0      0.492      1.045
REMARK  Name = 
REMARK  13 active torsions:
REMARK  status: ('A' for Active; 'I' for Inactive)
REMARK    1  A    between atoms: C_2  and  C_3
REMARK    2  A    between atoms: C_2  and  N_21
REMARK    3  A    between atoms: C_4  and  C_5
REMARK    4  A    between atoms: C_6  and  C_7
REMARK    5  A    between atoms: C_11  and  O_12
REMARK    6  A    between atoms: O_12  and  C_13
REMARK    7  A    between atoms: C_13  and  C_14
REMARK    8  A    between atoms: C_14  and  O_15
REMARK    9  A    between atoms: C_14  and  C_16
REMARK   10  A    between atoms: C_16  and  N_17
REMARK   11  A    between atoms: N_17  and  C_18
REMARK   12  A    between atoms: C_18  and  C_19
REMARK   13  A    between atoms: C_18  and  C_20
REMARK                            x       y       z     vdW  Elec       q    Type
REMARK                         _______ _______ _______ _____ _____    ______ ____
ROOT
ATOM      1  C   UNL     1       3.538   5.276  18.892  0.00  0.00    +0.000 A 
ATOM      2  C   UNL     1       3.291   4.053  19.603  0.00  0.00    +0.000 A 
ATOM      3  C   UNL     1       3.998   2.756  19.274  0.00  0.00    +0.000 C 
ATOM      4  C   UNL     1       2.334   4.028  20.641  0.00  0.00    +0.000 A 
ATOM      5  C   UNL     1       1.971   2.820  21.458  0.00  0.00    +0.000 C 
ATOM      6  C   UNL     1       1.675   5.198  20.986  0.00  0.00    +0.000 A 
ATOM      7  C   UNL     1       1.899   6.404  20.319  0.00  0.00    +0.000 A 
ATOM      8 CL   UNL     1       0.901   7.659  21.004  0.00  0.00    +0.000 Cl
ATOM      9  C   UNL     1       2.828   6.473  19.242  0.00  0.00    +0.000 A 
ENDROOT
BRANCH   1  11
ATOM     10  C   UNL     1       4.147   4.692  16.627  0.00  0.00    +0.000 C 
ATOM     11  C   UNL     1       4.556   5.262  17.782  0.00  0.00    +0.000 C 
BRANCH  11  12
ATOM     12  N   UNL     1       5.876   5.736  17.989  0.00  0.00    +0.000 N 
ATOM     13  C   UNL     1       6.691   5.549  19.094  0.00  0.00    +0.000 A 
ATOM     14  C   UNL     1       7.880   6.185  18.829  0.00  0.00    +0.000 A 
ATOM     15  N   UNL     1       7.832   6.798  17.608  0.00  0.00    +0.000 NA
ATOM     16  C   UNL     1       6.630   6.531  17.143  0.00  0.00    +0.000 A 
ENDBRANCH  11  12
ENDBRANCH   1  11
BRANCH   9  17
ATOM     17  O   UNL     1       3.129   7.601  18.463  0.00  0.00    +0.000 OA
BRANCH  17  18
ATOM     18  C   UNL     1       1.984   8.330  18.017  0.00  0.00    +0.000 C 
BRANCH  18  19
ATOM     19  C   UNL     1       1.834   9.822  18.355  0.00  0.00    +0.000 C 
BRANCH  19  20
ATOM     20  O   UNL     1       2.240  10.651  17.261  0.00  0.00    +0.000 OA
ATOM     21  H   UNL     1       1.828  10.305  16.452  0.00  0.00    +0.000 HD
ENDBRANCH  19  20
BRANCH  19  22
ATOM     22  C   UNL     1       0.317  10.093  18.656  0.00  0.00    +0.000 C 
BRANCH  22  23
ATOM     23  N   UNL     1      -0.562   9.815  17.512  0.00  0.00    +0.000 NA
ATOM     24  H   UNL     1      -0.853   8.836  17.544  0.00  0.00    +0.000 HD
BRANCH  23  25
ATOM     25  C   UNL     1      -1.757  10.666  17.410  0.00  0.00    +0.000 C 
ATOM     26  C   UNL     1      -2.982   9.940  16.848  0.00  0.00    +0.000 C 
ATOM     27  C   UNL     1      -2.097  11.183  18.816  0.00  0.00    +0.000 C 
ENDBRANCH  23  25
ENDBRANCH  22  23
ENDBRANCH  19  22
ENDBRANCH  18  19
ENDBRANCH  17  18
ENDBRANCH   9  17
TORSDOF 9
ENDMDL
MODEL 3
REMARK VINA RESULT:      -7.0      1.391      1.621
REMARK  Name = 
REMARK  13 active torsions:
REMARK  status: ('A' for Active; 'I' for Inactive)
REMARK    1  A    between atoms: C_2  and  C_3
REMARK    2  A    between atoms: C_2  and  N_21
REMARK    3  A    between atoms: C_4  and  C_5
REMARK    4  A    between atoms: C_6  and  C_7
REMARK    5  A    between atoms: C_11  and  O_12
REMARK    6  A    between atoms: O_12  and  C_13
REMARK    7  A    between atoms: C_13  and  C_14
REMARK    8  A    between atoms: C_14  and  O_15
REMARK    9  A    between atoms: C_14  and  C_16
REMARK   10  A    between atoms: C_16  and  N_17
REMARK   11  A    between atoms: N_17  and  C_18
REMARK   12  A    between atoms: C_18  and  C_19
REMARK   13  A    between atoms: C_18  and  C_20
REMARK                            x       y       z     vdW  Elec       q    Type
REMARK                         _______ _______ _______ _____ _____    ______ ____
ROOT
ATOM      1  C   UNL     1       3.363   4.862  18.852  0.00  0.00    +0.000 A 
ATOM      2  C   UNL     1       2.996   3.699  19.611  0.00  0.00    +0.000 A 
ATOM      3  C   UNL     1       3.506   2.312  19.284  0.00  0.00    +0.000 C 
ATOM      4  C   UNL     1       2.104   3.825  20.698  0.00  0.00    +0.000 A 
ATOM      5  C   UNL     1       1.631   2.696  21.569  0.00  0.00    +0.000 C 
ATOM      6  C   UNL     1       1.626   5.081  21.042  0.00  0.00    +0.000 A 
ATOM      7  C   UNL     1       1.971   6.231  20.328  0.00  0.00    +0.000 A 
ATOM      8 CL   UNL     1       1.187   7.624  21.027  0.00  0.00    +0.000 Cl
ATOM      9  C   UNL     1       2.839   6.151  19.202  0.00  0.00    +0.000 A 
ENDROOT
BRANCH   1  11
ATOM     10  C   UNL     1       3.732   4.302  16.529  0.00  0.00    +0.000 C 
ATOM     11  C   UNL     1       4.306   4.686  17.690  0.00  0.00    +0.000 C 
BRANCH  11  12
ATOM     12  N   UNL     1       5.707   4.831  17.853  0.00  0.00    +0.000 N 
ATOM     13  C   UNL     1       6.393   5.413  18.908  0.00  0.00    +0.000 A 
ATOM     14  C   UNL     1       7.733   5.308  18.624  0.00  0.00    +0.000 A 
ATOM     15  N   UNL     1       7.918   4.711  17.408  0.00  0.00    +0.000 NA
ATOM     16  C   UNL     1       6.704   4.456  16.969  0.00  0.00    +0.000 A 
ENDBRANCH  11  12
ENDBRANCH   1  11
BRANCH   9  17
ATOM     17  O   UNL     1       3.243   7.210  18.375  0.00  0.00    +0.000 OA
BRANCH  17  18
ATOM     18  C   UNL     1       2.164   7.944  17.791  0.00  0.00    +0.000 C 
BRANCH  18  19
ATOM     19  C   UNL     1       1.931   9.415  18.173  0.00  0.00    +0.000 C 
BRANCH  19  20
ATOM     20  O   UNL     1       2.498  10.304  17.204  0.00  0.00    +0.000 OA
ATOM     21  H   UNL     1       2.822   9.770  16.459  0.00  0.00    +0.000 HD
ENDBRANCH  19  20
BRANCH  19  22
ATOM     22  C   UNL     1       0.381   9.654  18.229  0.00  0.00    +0.000 C 
BRANCH  22  23
ATOM     23  N   UNL     1       0.005  11.070  18.119  0.00  0.00    +0.000 NA
ATOM     24  H   UNL     1      -0.825  11.151  17.530  0.00  0.00    +0.000 HD
BRANCH  23  25
ATOM     25  C   UNL     1      -0.243  11.761  19.394  0.00  0.00    +0.000 C 
ATOM     26  C   UNL     1      -1.357  12.807  19.318  0.00  0.00    +0.000 C 
ATOM     27  C   UNL     1      -0.632  10.707  20.441  0.00  0.00    +0.000 C 
ENDBRANCH  23  25
ENDBRANCH  22  23
ENDBRANCH  19  22
ENDBRANCH  18  19
ENDBRANCH  17  18
ENDBRANCH   9  17
TORSDOF 9
ENDMDL
MODEL 4
REMARK VINA RESULT:      -7.0      1.036      1.392
REMARK  Name = 
REMARK  13 active torsions:
REMARK  status: ('A' for Active; 'I' for Inactive)
REMARK    1  A    between atoms: C_2  and  C_3
REMARK    2  A    between atoms: C_2  and  N_21
REMARK    3  A    between atoms: C_4  and  C_5
REMARK    4  A    between atoms: C_6  and  C_7
REMARK    5  A    between atoms: C_11  and  O_12
REMARK    6  A    between atoms: O_12  and  C_13
REMARK    7  A    between atoms: C_13  and  C_14
REMARK    8  A    between atoms: C_14  and  O_15
REMARK    9  A    between atoms: C_14  and  C_16
REMARK   10  A    between atoms: C_16  and  N_17
REMARK   11  A    between atoms: N_17  and  C_18
REMARK   12  A    between atoms: C_18  and  C_19
REMARK   13  A    between atoms: C_18  and  C_20
REMARK                            x       y       z     vdW  Elec       q    Type
REMARK                         _______ _______ _______ _____ _____    ______ ____
ROOT
ATOM      1  C   UNL     1       3.564   5.101  18.948  0.00  0.00    +0.000 A 
ATOM      2  C   UNL     1       3.326   3.879  19.665  0.00  0.00    +0.000 A 
ATOM      3  C   UNL     1       4.041   2.585  19.339  0.00  0.00    +0.000 C 
ATOM      4  C   UNL     1       2.373   3.852  20.705  0.00  0.00    +0.000 A 
ATOM      5  C   UNL     1       2.019   2.645  21.528  0.00  0.00    +0.000 C 
ATOM      6  C   UNL     1       1.707   5.019  21.048  0.00  0.00    +0.000 A 
ATOM      7  C   UNL     1       1.923   6.225  20.375  0.00  0.00    +0.000 A 
ATOM      8 CL   UNL     1       0.918   7.476  21.058  0.00  0.00    +0.000 Cl
ATOM      9  C   UNL     1       2.848   6.295  19.295  0.00  0.00    +0.000 A 
ENDROOT
BRANCH   1  11
ATOM     10  C   UNL     1       4.228   4.384  16.737  0.00  0.00    +0.000 C 
ATOM     11  C   UNL     1       4.579   5.088  17.835  0.00  0.00    +0.000 C 
BRANCH  11  12
ATOM     12  N   UNL     1       5.847   5.704  17.990  0.00  0.00    +0.000 N 
ATOM     13  C   UNL     1       6.774   5.516  19.004  0.00  0.00    +0.000 A 
ATOM     14  C   UNL     1       7.851   6.320  18.717  0.00  0.00    +0.000 A 
ATOM     15  N   UNL     1       7.622   7.037  17.576  0.00  0.00    +0.000 NA
ATOM     16  C   UNL     1       6.424   6.666  17.178  0.00  0.00    +0.000 A 
ENDBRANCH  11  12
ENDBRANCH   1  11
BRANCH   9  17
ATOM     17  O   UNL     1       3.141   7.421  18.511  0.00  0.00    +0.000 OA
BRANCH  17  18
ATOM     18  C   UNL     1       1.989   8.097  18.001  0.00  0.00    +0.000 C 
BRANCH  18  19
ATOM     19  C   UNL     1       1.750   9.579  18.333  0.00  0.00    +0.000 C 
BRANCH  19  20
ATOM     20  O   UNL     1       2.155  10.430  17.254  0.00  0.00    +0.000 OA
ATOM     21  H   UNL     1       3.101  10.278  17.090  0.00  0.00    +0.000 HD
ENDBRANCH  19  20
BRANCH  19  22
ATOM     22  C   UNL     1       0.211   9.772  18.576  0.00  0.00    +0.000 C 
BRANCH  22  23
ATOM     23  N   UNL     1      -0.367  10.880  17.803  0.00  0.00    +0.000 NA
ATOM     24  H   UNL     1      -0.997  10.501  17.094  0.00  0.00    +0.000 HD
BRANCH  23  25
ATOM     25  C   UNL     1      -1.086  11.894  18.590  0.00  0.00    +0.000 C 
ATOM     26  C   UNL     1      -1.104  11.605  20.093  0.00  0.00    +0.000 C 
ATOM     27  C   UNL     1      -0.403  13.250  18.360  0.00  0.00    +0.000 C 
ENDBRANCH  23  25
ENDBRANCH  22  23
ENDBRANCH  19  22
ENDBRANCH  18  19
ENDBRANCH  17  18
ENDBRANCH   9  17
TORSDOF 9
ENDMDL
MODEL 5
REMARK VINA RESULT:      -7.0      1.147      1.795
REMARK  Name = 
REMARK  13 active torsions:
REMARK  status: ('A' for Active; 'I' for Inactive)
REMARK    1  A    between atoms: C_2  and  C_3
REMARK    2  A    between atoms: C_2  and  N_21
REMARK    3  A    between atoms: C_4  and  C_5
REMARK    4  A    between atoms: C_6  and  C_7
REMARK    5  A    between atoms: C_11  and  O_12
REMARK    6  A    between atoms: O_12  and  C_13
REMARK    7  A    between atoms: C_13  and  C_14
REMARK    8  A    between atoms: C_14  and  O_15
REMARK    9  A    between atoms: C_14  and  C_16
REMARK   10  A    between atoms: C_16  and  N_17
REMARK   11  A    between atoms: N_17  and  C_18
REMARK   12  A    between atoms: C_18  and  C_19
REMARK   13  A    between atoms: C_18  and  C_20
REMARK                            x       y       z     vdW  Elec       q    Type
REMARK                         _______ _______ _______ _____ _____    ______ ____
ROOT
ATOM      1  C   UNL     1       3.619   5.342  18.912  0.00  0.00    +0.000 A 
ATOM      2  C   UNL     1       3.401   4.110  19.616  0.00  0.00    +0.000 A 
ATOM      3  C   UNL     1       4.144   2.833  19.284  0.00  0.00    +0.000 C 
ATOM      4  C   UNL     1       2.440   4.053  20.649  0.00  0.00    +0.000 A 
ATOM      5  C   UNL     1       2.106   2.832  21.458  0.00  0.00    +0.000 C 
ATOM      6  C   UNL     1       1.748   5.203  20.996  0.00  0.00    +0.000 A 
ATOM      7  C   UNL     1       1.944   6.419  20.336  0.00  0.00    +0.000 A 
ATOM      8 CL   UNL     1       0.909   7.644  21.023  0.00  0.00    +0.000 Cl
ATOM      9  C   UNL     1       2.875   6.518  19.264  0.00  0.00    +0.000 A 
ENDROOT
BRANCH   1  11
ATOM     10  C   UNL     1       4.284   4.718  16.674  0.00  0.00    +0.000 C 
ATOM     11  C   UNL     1       4.642   5.361  17.807  0.00  0.00    +0.000 C 
BRANCH  11  12
ATOM     12  N   UNL     1       5.921   5.941  17.999  0.00  0.00    +0.000 N 
ATOM     13  C   UNL     1       6.509   6.976  17.288  0.00  0.00    +0.000 A 
ATOM     14  C   UNL     1       7.746   7.196  17.847  0.00  0.00    +0.000 A 
ATOM     15  N   UNL     1       7.974   6.310  18.863  0.00  0.00    +0.000 NA
ATOM     16  C   UNL     1       6.887   5.571  18.919  0.00  0.00    +0.000 A 
ENDBRANCH  11  12
ENDBRANCH   1  11
BRANCH   9  17
ATOM     17  O   UNL     1       3.150   7.657  18.492  0.00  0.00    +0.000 OA
BRANCH  17  18
ATOM     18  C   UNL     1       1.990   8.301  17.960  0.00  0.00    +0.000 C 
BRANCH  18  19
ATOM     19  C   UNL     1       1.694   9.771  18.300  0.00  0.00    +0.000 C 
BRANCH  19  20
ATOM     20  O   UNL     1       2.204  10.654  17.294  0.00  0.00    +0.000 OA
ATOM     21  H   UNL     1       2.350  10.136  16.485  0.00  0.00    +0.000 HD
ENDBRANCH  19  20
BRANCH  19  22
ATOM     22  C   UNL     1       0.135   9.939  18.375  0.00  0.00    +0.000 C 
BRANCH  22  23
ATOM     23  N   UNL     1      -0.291  11.034  19.256  0.00  0.00    +0.000 NA
ATOM     24  H   UNL     1      -1.257  10.874  19.547  0.00  0.00    +0.000 HD
BRANCH  23  25
ATOM     25  C   UNL     1       0.540  11.245  20.452  0.00  0.00    +0.000 C 
ATOM     26  C   UNL     1       1.149  12.647  20.537  0.00  0.00    +0.000 C 
ATOM     27  C   UNL     1      -0.338  11.017  21.691  0.00  0.00    +0.000 C 
ENDBRANCH  23  25
ENDBRANCH  22  23
ENDBRANCH  19  22
ENDBRANCH  18  19
ENDBRANCH  17  18
ENDBRANCH   9  17
TORSDOF 9
ENDMDL
MODEL 6
REMARK VINA RESULT:      -6.9      3.862      7.086
REMARK  Name = 
REMARK  13 active torsions:
REMARK  status: ('A' for Active; 'I' for Inactive)
REMARK    1  A    between atoms: C_2  and  C_3
REMARK    2  A    between atoms: C_2  and  N_21
REMARK    3  A    between atoms: C_4  and  C_5
REMARK    4  A    between atoms: C_6  and  C_7
REMARK    5  A    between atoms: C_11  and  O_12
REMARK    6  A    between atoms: O_12  and  C_13
REMARK    7  A    between atoms: C_13  and  C_14
REMARK    8  A    between atoms: C_14  and  O_15
REMARK    9  A    between atoms: C_14  and  C_16
REMARK   10  A    between atoms: C_16  and  N_17
REMARK   11  A    between atoms: N_17  and  C_18
REMARK   12  A    between atoms: C_18  and  C_19
REMARK   13  A    between atoms: C_18  and  C_20
REMARK                            x       y       z     vdW  Elec       q    Type
REMARK                         _______ _______ _______ _____ _____    ______ ____
ROOT
ATOM      1  C   UNL     1       4.064   5.080  17.887  0.00  0.00    +0.000 A 
ATOM      2  C   UNL     1       3.022   6.068  17.897  0.00  0.00    +0.000 A 
ATOM      3  C   UNL     1       1.561   5.718  18.081  0.00  0.00    +0.000 C 
ATOM      4  C   UNL     1       3.346   7.429  17.705  0.00  0.00    +0.000 A 
ATOM      5  C   UNL     1       2.358   8.562  17.683  0.00  0.00    +0.000 C 
ATOM      6  C   UNL     1       4.674   7.796  17.549  0.00  0.00    +0.000 A 
ATOM      7  C   UNL     1       5.710   6.859  17.543  0.00  0.00    +0.000 A 
ATOM      8 CL   UNL     1       7.241   7.664  17.318  0.00  0.00    +0.000 Cl
ATOM      9  C   UNL     1       5.432   5.471  17.697  0.00  0.00    +0.000 A 
ENDROOT
BRANCH   1  11
ATOM     10  C   UNL     1       3.358   2.964  16.955  0.00  0.00    +0.000 C 
ATOM     11  C   UNL     1       3.679   3.636  18.081  0.00  0.00    +0.000 C 
BRANCH  11  12
ATOM     12  N   UNL     1       3.580   3.071  19.378  0.00  0.00    +0.000 N 
ATOM     13  C   UNL     1       2.512   3.130  20.260  0.00  0.00    +0.000 A 
ATOM     14  C   UNL     1       2.878   2.426  21.382  0.00  0.00    +0.000 A 
ATOM     15  N   UNL     1       4.154   1.954  21.254  0.00  0.00    +0.000 NA
ATOM     16  C   UNL     1       4.550   2.365  20.068  0.00  0.00    +0.000 A 
ENDBRANCH  11  12
ENDBRANCH   1  11
BRANCH   9  17
ATOM     17  O   UNL     1       6.361   4.420  17.678  0.00  0.00    +0.000 OA
BRANCH  17  18
ATOM     18  C   UNL     1       7.216   4.413  16.532  0.00  0.00    +0.000 C 
BRANCH  18  19
ATOM     19  C   UNL     1       6.692   4.898  15.171  0.00  0.00    +0.000 C 
BRANCH  19  20
ATOM     20  O   UNL     1       7.751   5.408  14.353  0.00  0.00    +0.000 OA
ATOM     21  H   UNL     1       7.708   4.960  13.491  0.00  0.00    +0.000 HD
ENDBRANCH  19  20
BRANCH  19  22
ATOM     22  C   UNL     1       6.041   3.668  14.444  0.00  0.00    +0.000 C 
BRANCH  22  23
ATOM     23  N   UNL     1       6.370   3.597  13.013  0.00  0.00    +0.000 NA
ATOM     24  H   UNL     1       7.357   3.355  12.909  0.00  0.00    +0.000 HD
BRANCH  23  25
ATOM     25  C   UNL     1       5.561   2.656  12.224  0.00  0.00    +0.000 C 
ATOM     26  C   UNL     1       4.447   3.331  11.419  0.00  0.00    +0.000 C 
ATOM     27  C   UNL     1       6.494   1.924  11.248  0.00  0.00    +0.000 C 
ENDBRANCH  23  25
ENDBRANCH  22  23
ENDBRANCH  19  22
ENDBRANCH  18  19
ENDBRANCH  17  18
ENDBRANCH   9  17
TORSDOF 9
ENDMDL
MODEL 7
REMARK VINA RESULT:      -6.7      3.676      6.464
REMARK  Name = 
REMARK  13 active torsions:
REMARK  status: ('A' for Active; 'I' for Inactive)
REMARK    1  A    between atoms: C_2  and  C_3
REMARK    2  A    between atoms: C_2  and  N_21
REMARK    3  A    between atoms: C_4  and  C_5
REMARK    4  A    between atoms: C_6  and  C_7
REMARK    5  A    between atoms: C_11  and  O_12
REMARK    6  A    between atoms: O_12  and  C_13
REMARK    7  A    between atoms: C_13  and  C_14
REMARK    8  A    between atoms: C_14  and  O_15
REMARK    9  A    between atoms: C_14  and  C_16
REMARK   10  A    between atoms: C_16  and  N_17
REMARK   11  A    between atoms: N_17  and  C_18
REMARK   12  A    between atoms: C_18  and  C_19
REMARK   13  A    between atoms: C_18  and  C_20
REMARK                            x       y       z     vdW  Elec       q    Type
REMARK                         _______ _______ _______ _____ _____    ______ ____
ROOT
ATOM      1  C   UNL     1       2.686   4.558  18.574  0.00  0.00    +0.000 A 
ATOM      2  C   UNL     1       2.183   5.509  19.525  0.00  0.00    +0.000 A 
ATOM      3  C   UNL     1       1.400   5.104  20.756  0.00  0.00    +0.000 C 
ATOM      4  C   UNL     1       2.393   6.889  19.314  0.00  0.00    +0.000 A 
ATOM      5  C   UNL     1       1.916   7.990  20.219  0.00  0.00    +0.000 C 
ATOM      6  C   UNL     1       3.119   7.304  18.208  0.00  0.00    +0.000 A 
ATOM      7  C   UNL     1       3.628   6.402  17.269  0.00  0.00    +0.000 A 
ATOM      8 CL   UNL     1       4.475   7.265  16.012  0.00  0.00    +0.000 Cl
ATOM      9  C   UNL     1       3.411   5.003  17.419  0.00  0.00    +0.000 A 
ENDROOT
BRANCH   1  11
ATOM     10  C   UNL     1       1.181   2.667  18.544  0.00  0.00    +0.000 C 
ATOM     11  C   UNL     1       2.430   3.095  18.826  0.00  0.00    +0.000 C 
BRANCH  11  12
ATOM     12  N   UNL     1       3.423   2.265  19.408  0.00  0.00    +0.000 N 
ATOM     13  C   UNL     1       4.115   2.458  20.594  0.00  0.00    +0.000 A 
ATOM     14  C   UNL     1       4.961   1.386  20.744  0.00  0.00    +0.000 A 
ATOM     15  N   UNL     1       4.854   0.540  19.675  0.00  0.00    +0.000 NA
ATOM     16  C   UNL     1       3.950   1.093  18.895  0.00  0.00    +0.000 A 
ENDBRANCH  11  12
ENDBRANCH   1  11
BRANCH   9  17
ATOM     17  O   UNL     1       3.832   3.990  16.545  0.00  0.00    +0.000 OA
BRANCH  17  18
ATOM     18  C   UNL     1       5.214   3.645  16.666  0.00  0.00    +0.000 C 
BRANCH  18  19
ATOM     19  C   UNL     1       6.196   3.971  15.529  0.00  0.00    +0.000 C 
BRANCH  19  20
ATOM     20  O   UNL     1       5.522   4.530  14.397  0.00  0.00    +0.000 OA
ATOM     21  H   UNL     1       5.945   4.184  13.593  0.00  0.00    +0.000 HD
ENDBRANCH  19  20
BRANCH  19  22
ATOM     22  C   UNL     1       7.224   5.025  16.074  0.00  0.00    +0.000 C 
BRANCH  22  23
ATOM     23  N   UNL     1       7.771   4.677  17.393  0.00  0.00    +0.000 NA
ATOM     24  H   UNL     1       8.736   4.360  17.281  0.00  0.00    +0.000 HD
BRANCH  23  25
ATOM     25  C   UNL     1       7.733   5.750  18.398  0.00  0.00    +0.000 C 
ATOM     26  C   UNL     1       7.573   7.149  17.797  0.00  0.00    +0.000 C 
ATOM     27  C   UNL     1       6.548   5.482  19.338  0.00  0.00    +0.000 C 
ENDBRANCH  23  25
ENDBRANCH  22  23
ENDBRANCH  19  22
ENDBRANCH  18  19
ENDBRANCH  17  18
ENDBRANCH   9  17
TORSDOF 9
ENDMDL
MODEL 8
REMARK VINA RESULT:      -6.6      3.507      6.622
REMARK  Name = 
REMARK  13 active torsions:
REMARK  status: ('A' for Active; 'I' for Inactive)
REMARK    1  A    between atoms: C_2  and  C_3
REMARK    2  A    between atoms: C_2  and  N_21
REMARK    3  A    between atoms: C_4  and  C_5
REMARK    4  A    between atoms: C_6  and  C_7
REMARK    5  A    between atoms: C_11  and  O_12
REMARK    6  A    between atoms: O_12  and  C_13
REMARK    7  A    between atoms: C_13  and  C_14
REMARK    8  A    between atoms: C_14  and  O_15
REMARK    9  A    between atoms: C_14  and  C_16
REMARK   10  A    between atoms: C_16  and  N_17
REMARK   11  A    between atoms: N_17  and  C_18
REMARK   12  A    between atoms: C_18  and  C_19
REMARK   13  A    between atoms: C_18  and  C_20
REMARK                            x       y       z     vdW  Elec       q    Type
REMARK                         _______ _______ _______ _____ _____    ______ ____
ROOT
ATOM      1  C   UNL     1       2.679   4.847  18.600  0.00  0.00    +0.000 A 
ATOM      2  C   UNL     1       2.123   5.916  19.381  0.00  0.00    +0.000 A 
ATOM      3  C   UNL     1       1.220   5.678  20.572  0.00  0.00    +0.000 C 
ATOM      4  C   UNL     1       2.396   7.256  19.029  0.00  0.00    +0.000 A 
ATOM      5  C   UNL     1       1.874   8.467  19.750  0.00  0.00    +0.000 C 
ATOM      6  C   UNL     1       3.232   7.519  17.955  0.00  0.00    +0.000 A 
ATOM      7  C   UNL     1       3.794   6.501  17.181  0.00  0.00    +0.000 A 
ATOM      8 CL   UNL     1       4.779   7.188  15.916  0.00  0.00    +0.000 Cl
ATOM      9  C   UNL     1       3.520   5.135  17.474  0.00  0.00    +0.000 A 
ENDROOT
BRANCH   1  11
ATOM     10  C   UNL     1       1.180   2.952  18.534  0.00  0.00    +0.000 C 
ATOM     11  C   UNL     1       2.355   3.431  18.998  0.00  0.00    +0.000 C 
BRANCH  11  12
ATOM     12  N   UNL     1       3.198   2.703  19.875  0.00  0.00    +0.000 N 
ATOM     13  C   UNL     1       4.418   2.106  19.594  0.00  0.00    +0.000 A 
ATOM     14  C   UNL     1       4.861   1.529  20.760  0.00  0.00    +0.000 A 
ATOM     15  N   UNL     1       3.947   1.710  21.760  0.00  0.00    +0.000 NA
ATOM     16  C   UNL     1       2.968   2.392  21.204  0.00  0.00    +0.000 A 
ENDBRANCH  11  12
ENDBRANCH   1  11
BRANCH   9  17
ATOM     17  O   UNL     1       3.985   4.015  16.768  0.00  0.00    +0.000 OA
BRANCH  17  18
ATOM     18  C   UNL     1       4.841   4.328  15.667  0.00  0.00    +0.000 C 
BRANCH  18  19
ATOM     19  C   UNL     1       6.229   3.676  15.554  0.00  0.00    +0.000 C 
BRANCH  19  20
ATOM     20  O   UNL     1       6.709   3.695  14.205  0.00  0.00    +0.000 OA
ATOM     21  H   UNL     1       5.995   3.376  13.627  0.00  0.00    +0.000 HD
ENDBRANCH  19  20
BRANCH  19  22
ATOM     22  C   UNL     1       7.218   4.500  16.452  0.00  0.00    +0.000 C 
BRANCH  22  23
ATOM     23  N   UNL     1       6.931   4.387  17.889  0.00  0.00    +0.000 NA
ATOM     24  H   UNL     1       7.541   3.676  18.297  0.00  0.00    +0.000 HD
BRANCH  23  25
ATOM     25  C   UNL     1       7.063   5.632  18.661  0.00  0.00    +0.000 C 
ATOM     26  C   UNL     1       8.061   5.534  19.818  0.00  0.00    +0.000 C 
ATOM     27  C   UNL     1       7.530   6.740  17.705  0.00  0.00    +0.000 C 
ENDBRANCH  23  25
ENDBRANCH  22  23
ENDBRANCH  19  22
ENDBRANCH  18  19
ENDBRANCH  17  18
ENDBRANCH   9  17
TORSDOF 9
ENDMDL
MODEL 9
REMARK VINA RESULT:      -6.5      3.916      6.252
REMARK  Name = 
REMARK  13 active torsions:
REMARK  status: ('A' for Active; 'I' for Inactive)
REMARK    1  A    between atoms: C_2  and  C_3
REMARK    2  A    between atoms: C_2  and  N_21
REMARK    3  A    between atoms: C_4  and  C_5
REMARK    4  A    between atoms: C_6  and  C_7
REMARK    5  A    between atoms: C_11  and  O_12
REMARK    6  A    between atoms: O_12  and  C_13
REMARK    7  A    between atoms: C_13  and  C_14
REMARK    8  A    between atoms: C_14  and  O_15
REMARK    9  A    between atoms: C_14  and  C_16
REMARK   10  A    between atoms: C_16  and  N_17
REMARK   11  A    between atoms: N_17  and  C_18
REMARK   12  A    between atoms: C_18  and  C_19
REMARK   13  A    between atoms: C_18  and  C_20
REMARK                            x       y       z     vdW  Elec       q    Type
REMARK                         _______ _______ _______ _____ _____    ______ ____
ROOT
ATOM      1  C   UNL     1       4.014   5.145  18.233  0.00  0.00    +0.000 A 
ATOM      2  C   UNL     1       2.899   5.407  19.099  0.00  0.00    +0.000 A 
ATOM      3  C   UNL     1       2.479   6.806  19.497  0.00  0.00    +0.000 C 
ATOM      4  C   UNL     1       2.161   4.329  19.635  0.00  0.00    +0.000 A 
ATOM      5  C   UNL     1       0.981   4.458  20.558  0.00  0.00    +0.000 C 
ATOM      6  C   UNL     1       2.501   3.032  19.284  0.00  0.00    +0.000 A 
ATOM      7  C   UNL     1       3.575   2.746  18.438  0.00  0.00    +0.000 A 
ATOM      8 CL   UNL     1       3.719   1.021  18.219  0.00  0.00    +0.000 Cl
ATOM      9  C   UNL     1       4.372   3.796  17.900  0.00  0.00    +0.000 A 
ENDROOT
BRANCH   1  11
ATOM     10  C   UNL     1       4.132   7.076  16.784  0.00  0.00    +0.000 C 
ATOM     11  C   UNL     1       4.786   6.320  17.692  0.00  0.00    +0.000 C 
BRANCH  11  12
ATOM     12  N   UNL     1       6.139   6.541  18.056  0.00  0.00    +0.000 N 
ATOM     13  C   UNL     1       6.896   5.860  18.997  0.00  0.00    +0.000 A 
ATOM     14  C   UNL     1       8.149   6.425  18.989  0.00  0.00    +0.000 A 
ATOM     15  N   UNL     1       8.199   7.463  18.101  0.00  0.00    +0.000 NA
ATOM     16  C   UNL     1       6.993   7.519  17.578  0.00  0.00    +0.000 A 
ENDBRANCH  11  12
ENDBRANCH   1  11
BRANCH   9  17
ATOM     17  O   UNL     1       5.494   3.659  17.070  0.00  0.00    +0.000 OA
BRANCH  17  18
ATOM     18  C   UNL     1       5.215   3.809  15.676  0.00  0.00    +0.000 C 
BRANCH  18  19
ATOM     19  C   UNL     1       6.182   4.589  14.771  0.00  0.00    +0.000 C 
BRANCH  19  20
ATOM     20  O   UNL     1       7.493   4.661  15.344  0.00  0.00    +0.000 OA
ATOM     21  H   UNL     1       8.101   4.169  14.766  0.00  0.00    +0.000 HD
ENDBRANCH  19  20
BRANCH  19  22
ATOM     22  C   UNL     1       6.273   3.829  13.400  0.00  0.00    +0.000 C 
BRANCH  22  23
ATOM     23  N   UNL     1       5.137   4.100  12.509  0.00  0.00    +0.000 NA
ATOM     24  H   UNL     1       5.418   4.788  11.808  0.00  0.00    +0.000 HD
BRANCH  23  25
ATOM     25  C   UNL     1       4.572   2.925  11.827  0.00  0.00    +0.000 C 
ATOM     26  C   UNL     1       3.724   3.275  10.602  0.00  0.00    +0.000 C 
ATOM     27  C   UNL     1       5.735   2.029  11.377  0.00  0.00    +0.000 C 
ENDBRANCH  23  25
ENDBRANCH  22  23
ENDBRANCH  19  22
ENDBRANCH  18  19
ENDBRANCH  17  18
ENDBRANCH   9  17
TORSDOF 9
ENDMDL
