MODEL 1
REMARK VINA RESULT:      -7.8      0.000      0.000
REMARK  Name = 
REMARK  5 active torsions:
REMARK  status: ('A' for Active; 'I' for Inactive)
REMARK    1  A    between atoms: C_1  and  C_2
REMARK    2  A    between atoms: N_4  and  C_5
REMARK    3  A    between atoms: C_8  and  N_9
REMARK    4  A    between atoms: C_10  and  C_12
REMARK    5  A    between atoms: C_14  and  C_15
REMARK                            x       y       z     vdW  Elec       q    Type
REMARK                         _______ _______ _______ _____ _____    ______ ____
ROOT
ATOM      1  N   UNL     1       4.019   6.340  17.545  0.00  0.00    +0.000 N 
ATOM      2  C   UNL     1       5.149   5.626  17.907  0.00  0.00    +0.000 C 
ATOM      3  O   UNL     1       5.509   5.396  19.060  0.00  0.00    +0.000 OA
ATOM      4  H   UNL     1       3.828   6.429  16.553  0.00  0.00    +0.000 HD
ENDROOT
BRANCH   1   8
ATOM      5  C   UNL     1       1.271   8.223  20.186  0.00  0.00    +0.000 A 
ATOM      6  C   UNL     1       1.786   6.966  20.479  0.00  0.00    +0.000 A 
ATOM      7  C   UNL     1       2.689   6.342  19.618  0.00  0.00    +0.000 A 
ATOM      8  C   UNL     1       3.104   6.948  18.436  0.00  0.00    +0.000 A 
ATOM      9  C   UNL     1       2.586   8.213  18.130  0.00  0.00    +0.000 A 
ATOM     10  C   UNL     1       1.663   8.840  18.992  0.00  0.00    +0.000 A 
BRANCH   5  14
ATOM     11  C   UNL     1      -0.552   9.944  23.003  0.00  0.00    +0.000 C 
ATOM     12  C   UNL     1       0.659   9.434  22.274  0.00  0.00    +0.000 C 
ATOM     13  O   UNL     1       1.770   9.536  22.785  0.00  0.00    +0.000 OA
ATOM     14  N   UNL     1       0.356   8.878  21.039  0.00  0.00    +0.000 N 
ATOM     15  H   UNL     1      -0.581   9.016  20.685  0.00  0.00    +0.000 HD
ENDBRANCH   5  14
ENDBRANCH   1   8
BRANCH   2  16
ATOM     16  C   UNL     1       5.980   5.099  16.771  0.00  0.00    +0.000 C 
ATOM     17 CL   UNL     1       7.554   4.477  17.086  0.00  0.00    +0.000 Cl
ATOM     18  C   UNL     1       5.422   5.142  15.549  0.00  0.00    +0.000 C 
BRANCH  18  19
ATOM     19  C   UNL     1       6.009   4.672  14.298  0.00  0.00    +0.000 A 
ATOM     20  C   UNL     1       5.337   3.706  13.542  0.00  0.00    +0.000 A 
ATOM     21  C   UNL     1       5.861   3.288  12.319  0.00  0.00    +0.000 A 
ATOM     22  C   UNL     1       7.055   3.838  11.849  0.00  0.00    +0.000 A 
ATOM     23  C   UNL     1       7.723   4.805  12.597  0.00  0.00    +0.000 A 
ATOM     24  C   UNL     1       7.201   5.225  13.822  0.00  0.00    +0.000 A 
ENDBRANCH  18  19
ENDBRANCH   2  16
TORSDOF 4
ENDMDL
MODEL 2
REMARK VINA RESULT:      -7.8      0.107      1.026
REMARK  Name = 
REMARK  5 active torsions:
REMARK  status: ('A' for Active; 'I' for Inactive)
REMARK    1  A    between atoms: C_1  and  C_2
REMARK    2  A    between atoms: N_4  and  C_5
REMARK    3  A    between atoms: C_8  and  N_9
REMARK    4  A    between atoms: C_10  and  C_12
REMARK    5  A    between atoms: C_14  and  C_15
REMARK                            x       y       z     vdW  Elec       q    Type
REMARK                         _______ _______ _______ _____ _____    ______ ____
ROOT
ATOM      1  N   UNL     1       3.998   6.379  17.487  0.00  0.00    +0.000 N 
ATOM      2  C   UNL     1       5.183   5.766  17.860  0.00  0.00    +0.000 C 
ATOM      3  O   UNL     1       5.611   5.681  19.011  0.00  0.00    +0.000 OA
ATOM      4  H   UNL     1       3.755   6.350  16.503  0.00  0.00    +0.000 HD
ENDROOT
BRANCH   1   8
ATOM      5  C   UNL     1       1.279   8.289  20.139  0.00  0.00    +0.000 A 
ATOM      6  C   UNL     1       1.671   8.910  18.959  0.00  0.00    +0.000 A 
ATOM      7  C   UNL     1       2.561   8.290  18.083  0.00  0.00    +0.000 A 
ATOM      8  C   UNL     1       3.095   7.033  18.357  0.00  0.00    +0.000 A 
ATOM      9  C   UNL     1       2.710   6.402  19.547  0.00  0.00    +0.000 A 
ATOM     10  C   UNL     1       1.819   7.033  20.440  0.00  0.00    +0.000 A 
BRANCH   5  14
ATOM     11  C   UNL     1      -0.493   9.853  23.077  0.00  0.00    +0.000 C 
ATOM     12  C   UNL     1       0.705   9.391  22.297  0.00  0.00    +0.000 C 
ATOM     13  O   UNL     1       1.827   9.476  22.789  0.00  0.00    +0.000 OA
ATOM     14  N   UNL     1       0.379   8.893  21.043  0.00  0.00    +0.000 N 
ATOM     15  H   UNL     1      -0.567   9.040  20.717  0.00  0.00    +0.000 HD
ENDBRANCH   5  14
ENDBRANCH   1   8
BRANCH   2  16
ATOM     16  C   UNL     1       5.986   5.162  16.743  0.00  0.00    +0.000 C 
ATOM     17 CL   UNL     1       7.502   4.424  17.088  0.00  0.00    +0.000 Cl
ATOM     18  C   UNL     1       5.450   5.233  15.512  0.00  0.00    +0.000 C 
BRANCH  18  19
ATOM     19  C   UNL     1       6.015   4.702  14.276  0.00  0.00    +0.000 A 
ATOM     20  C   UNL     1       5.318   3.720  13.565  0.00  0.00    +0.000 A 
ATOM     21  C   UNL     1       5.822   3.245  12.355  0.00  0.00    +0.000 A 
ATOM     22  C   UNL     1       7.020   3.754  11.852  0.00  0.00    +0.000 A 
ATOM     23  C   UNL     1       7.714   4.737  12.555  0.00  0.00    +0.000 A 
ATOM     24  C   UNL     1       7.212   5.214  13.767  0.00  0.00    +0.000 A 
ENDBRANCH  18  19
ENDBRANCH   2  16
TORSDOF 4
ENDMDL
MODEL 3
REMARK VINA RESULT:      -7.3      2.616      3.891
REMARK  Name = 
REMARK  5 active torsions:
REMARK  status: ('A' for Active; 'I' for Inactive)
REMARK    1  A    between atoms: C_1  and  C_2
REMARK    2  A    between atoms: N_4  and  C_5
REMARK    3  A    between atoms: C_8  and  N_9
REMARK    4  A    between atoms: C_10  and  C_12
REMARK    5  A    between atoms: C_14  and  C_15
REMARK                            x       y       z     vdW  Elec       q    Type
REMARK                         _______ _______ _______ _____ _____    ______ ____
ROOT
ATOM      1  N   UNL     1       2.278   7.529  20.013  0.00  0.00    +0.000 N 
ATOM      2  C   UNL     1       2.160   6.155  20.135  0.00  0.00    +0.000 C 
ATOM      3  O   UNL     1       1.259   5.565  20.729  0.00  0.00    +0.000 OA
ATOM      4  H   UNL     1       3.059   7.879  19.470  0.00  0.00    +0.000 HD
ENDROOT
BRANCH   1   8
ATOM      5  C   UNL     1      -0.351  10.382  21.753  0.00  0.00    +0.000 A 
ATOM      6  C   UNL     1      -0.212  10.297  20.372  0.00  0.00    +0.000 A 
ATOM      7  C   UNL     1       0.647   9.364  19.794  0.00  0.00    +0.000 A 
ATOM      8  C   UNL     1       1.400   8.488  20.572  0.00  0.00    +0.000 A 
ATOM      9  C   UNL     1       1.270   8.570  21.964  0.00  0.00    +0.000 A 
ATOM     10  C   UNL     1       0.411   9.522  22.552  0.00  0.00    +0.000 A 
BRANCH   5  14
ATOM     11  C   UNL     1      -1.986  13.358  23.394  0.00  0.00    +0.000 C 
ATOM     12  C   UNL     1      -0.917  12.651  22.609  0.00  0.00    +0.000 C 
ATOM     13  O   UNL     1       0.088  13.261  22.256  0.00  0.00    +0.000 OA
ATOM     14  N   UNL     1      -1.214  11.317  22.365  0.00  0.00    +0.000 N 
ATOM     15  H   UNL     1      -2.151  11.004  22.576  0.00  0.00    +0.000 HD
ENDBRANCH   5  14
ENDBRANCH   1   8
BRANCH   2  16
ATOM     16  C   UNL     1       3.239   5.346  19.471  0.00  0.00    +0.000 C 
ATOM     17 CL   UNL     1       3.435   3.687  19.884  0.00  0.00    +0.000 Cl
ATOM     18  C   UNL     1       3.998   5.987  18.565  0.00  0.00    +0.000 C 
BRANCH  18  19
ATOM     19  C   UNL     1       5.084   5.422  17.771  0.00  0.00    +0.000 A 
ATOM     20  C   UNL     1       4.879   5.157  16.413  0.00  0.00    +0.000 A 
ATOM     21  C   UNL     1       5.925   4.667  15.631  0.00  0.00    +0.000 A 
ATOM     22  C   UNL     1       7.178   4.446  16.206  0.00  0.00    +0.000 A 
ATOM     23  C   UNL     1       7.387   4.715  17.557  0.00  0.00    +0.000 A 
ATOM     24  C   UNL     1       6.341   5.204  18.341  0.00  0.00    +0.000 A 
ENDBRANCH  18  19
ENDBRANCH   2  16
TORSDOF 4
ENDMDL
MODEL 4
REMARK VINA RESULT:      -7.3      2.689      3.833
REMARK  Name = 
REMARK  5 active torsions:
REMARK  status: ('A' for Active; 'I' for Inactive)
REMARK    1  A    between atoms: C_1  and  C_2
REMARK    2  A    between atoms: N_4  and  C_5
REMARK    3  A    between atoms: C_8  and  N_9
REMARK    4  A    between atoms: C_10  and  C_12
REMARK    5  A    between atoms: C_14  and  C_15
REMARK                            x       y       z     vdW  Elec       q    Type
REMARK                         _______ _______ _______ _____ _____    ______ ____
ROOT
ATOM      1  N   UNL     1       2.210   7.443  20.065  0.00  0.00    +0.000 N 
ATOM      2  C   UNL     1       2.071   6.069  20.170  0.00  0.00    +0.000 C 
ATOM      3  O   UNL     1       1.174   5.486  20.776  0.00  0.00    +0.000 OA
ATOM      4  H   UNL     1       2.985   7.787  19.508  0.00  0.00    +0.000 HD
ENDROOT
BRANCH   1   8
ATOM      5  C   UNL     1      -0.351  10.367  21.786  0.00  0.00    +0.000 A 
ATOM      6  C   UNL     1       0.434   9.552  22.592  0.00  0.00    +0.000 A 
ATOM      7  C   UNL     1       1.278   8.591  22.035  0.00  0.00    +0.000 A 
ATOM      8  C   UNL     1       1.362   8.408  20.657  0.00  0.00    +0.000 A 
ATOM      9  C   UNL     1       0.571   9.221  19.838  0.00  0.00    +0.000 A 
ATOM     10  C   UNL     1      -0.293  10.185  20.399  0.00  0.00    +0.000 A 
BRANCH   5  14
ATOM     11  C   UNL     1      -1.969  13.439  23.259  0.00  0.00    +0.000 C 
ATOM     12  C   UNL     1      -0.880  12.674  22.561  0.00  0.00    +0.000 C 
ATOM     13  O   UNL     1       0.171  13.235  22.265  0.00  0.00    +0.000 OA
ATOM     14  N   UNL     1      -1.214  11.348  22.322  0.00  0.00    +0.000 N 
ATOM     15  H   UNL     1      -2.175  11.076  22.476  0.00  0.00    +0.000 HD
ENDBRANCH   5  14
ENDBRANCH   1   8
BRANCH   2  16
ATOM     16  C   UNL     1       3.120   5.251  19.469  0.00  0.00    +0.000 C 
ATOM     17 CL   UNL     1       3.153   3.544  19.687  0.00  0.00    +0.000 Cl
ATOM     18  C   UNL     1       3.984   5.924  18.690  0.00  0.00    +0.000 C 
BRANCH  18  19
ATOM     19  C   UNL     1       5.068   5.362  17.891  0.00  0.00    +0.000 A 
ATOM     20  C   UNL     1       4.805   4.911  16.593  0.00  0.00    +0.000 A 
ATOM     21  C   UNL     1       5.843   4.422  15.800  0.00  0.00    +0.000 A 
ATOM     22  C   UNL     1       7.145   4.386  16.303  0.00  0.00    +0.000 A 
ATOM     23  C   UNL     1       7.411   4.841  17.593  0.00  0.00    +0.000 A 
ATOM     24  C   UNL     1       6.374   5.330  18.389  0.00  0.00    +0.000 A 
ENDBRANCH  18  19
ENDBRANCH   2  16
TORSDOF 4
ENDMDL
MODEL 5
REMARK VINA RESULT:      -7.3      2.628      3.874
REMARK  Name = 
REMARK  5 active torsions:
REMARK  status: ('A' for Active; 'I' for Inactive)
REMARK    1  A    between atoms: C_1  and  C_2
REMARK    2  A    between atoms: N_4  and  C_5
REMARK    3  A    between atoms: C_8  and  N_9
REMARK    4  A    between atoms: C_10  and  C_12
REMARK    5  A    between atoms: C_14  and  C_15
REMARK                            x       y       z     vdW  Elec       q    Type
REMARK                         _______ _______ _______ _____ _____    ______ ____
ROOT
ATOM      1  N   UNL     1       2.225   7.528  19.972  0.00  0.00    +0.000 N 
ATOM      2  C   UNL     1       2.130   6.153  20.101  0.00  0.00    +0.000 C 
ATOM      3  O   UNL     1       1.286   5.555  20.767  0.00  0.00    +0.000 OA
ATOM      4  H   UNL     1       2.956   7.885  19.366  0.00  0.00    +0.000 HD
ENDROOT
BRANCH   1   8
ATOM      5  C   UNL     1      -0.304  10.413  21.805  0.00  0.00    +0.000 A 
ATOM      6  C   UNL     1       0.425   9.517  22.579  0.00  0.00    +0.000 A 
ATOM      7  C   UNL     1       1.257   8.568  21.985  0.00  0.00    +0.000 A 
ATOM      8  C   UNL     1       1.387   8.479  20.601  0.00  0.00    +0.000 A 
ATOM      9  C   UNL     1       0.653   9.374  19.814  0.00  0.00    +0.000 A 
ATOM     10  C   UNL     1      -0.200  10.326  20.412  0.00  0.00    +0.000 A 
BRANCH   5  14
ATOM     11  C   UNL     1      -1.898  13.475  23.325  0.00  0.00    +0.000 C 
ATOM     12  C   UNL     1      -0.839  12.722  22.569  0.00  0.00    +0.000 C 
ATOM     13  O   UNL     1       0.174  13.303  22.191  0.00  0.00    +0.000 OA
ATOM     14  N   UNL     1      -1.153  11.383  22.379  0.00  0.00    +0.000 N 
ATOM     15  H   UNL     1      -2.095  11.091  22.604  0.00  0.00    +0.000 HD
ENDBRANCH   5  14
ENDBRANCH   1   8
BRANCH   2  16
ATOM     16  C   UNL     1       3.158   5.354  19.350  0.00  0.00    +0.000 C 
ATOM     17 CL   UNL     1       3.162   3.638  19.480  0.00  0.00    +0.000 Cl
ATOM     18  C   UNL     1       4.028   6.051  18.599  0.00  0.00    +0.000 C 
BRANCH  18  19
ATOM     19  C   UNL     1       5.094   5.511  17.762  0.00  0.00    +0.000 A 
ATOM     20  C   UNL     1       6.366   5.313  18.309  0.00  0.00    +0.000 A 
ATOM     21  C   UNL     1       7.379   4.748  17.534  0.00  0.00    +0.000 A 
ATOM     22  C   UNL     1       7.120   4.376  16.214  0.00  0.00    +0.000 A 
ATOM     23  C   UNL     1       5.852   4.566  15.669  0.00  0.00    +0.000 A 
ATOM     24  C   UNL     1       4.837   5.133  16.441  0.00  0.00    +0.000 A 
ENDBRANCH  18  19
ENDBRANCH   2  16
TORSDOF 4
ENDMDL
MODEL 6
REMARK VINA RESULT:      -7.2      2.565      3.975
REMARK  Name = 
REMARK  5 active torsions:
REMARK  status: ('A' for Active; 'I' for Inactive)
REMARK    1  A    between atoms: C_1  and  C_2
REMARK    2  A    between atoms: N_4  and  C_5
REMARK    3  A    between atoms: C_8  and  N_9
REMARK    4  A    between atoms: C_10  and  C_12
REMARK    5  A    between atoms: C_14  and  C_15
REMARK                            x       y       z     vdW  Elec       q    Type
REMARK                         _______ _______ _______ _____ _____    ______ ____
ROOT
ATOM      1  N   UNL     1       1.873   8.002  19.655  0.00  0.00    +0.000 N 
ATOM      2  C   UNL     1       2.298   8.079  18.339  0.00  0.00    +0.000 C 
ATOM      3  O   UNL     1       2.067   9.008  17.568  0.00  0.00    +0.000 OA
ATOM      4  H   UNL     1       2.161   7.187  20.186  0.00  0.00    +0.000 HD
ENDROOT
BRANCH   1   8
ATOM      5  C   UNL     1      -0.499  10.856  21.729  0.00  0.00    +0.000 A 
ATOM      6  C   UNL     1      -0.430  10.868  20.340  0.00  0.00    +0.000 A 
ATOM      7  C   UNL     1       0.344   9.934  19.653  0.00  0.00    +0.000 A 
ATOM      8  C   UNL     1       1.080   8.962  20.326  0.00  0.00    +0.000 A 
ATOM      9  C   UNL     1       1.021   8.947  21.725  0.00  0.00    +0.000 A 
ATOM     10  C   UNL     1       0.249   9.898  22.423  0.00  0.00    +0.000 A 
BRANCH   5  14
ATOM     11  C   UNL     1      -1.870  13.774  23.686  0.00  0.00    +0.000 C 
ATOM     12  C   UNL     1      -0.875  13.069  22.807  0.00  0.00    +0.000 C 
ATOM     13  O   UNL     1       0.164  13.636  22.481  0.00  0.00    +0.000 OA
ATOM     14  N   UNL     1      -1.275  11.789  22.450  0.00  0.00    +0.000 N 
ATOM     15  H   UNL     1      -2.228  11.524  22.660  0.00  0.00    +0.000 HD
ENDBRANCH   5  14
ENDBRANCH   1   8
BRANCH   2  16
ATOM     16  C   UNL     1       3.111   6.914  17.847  0.00  0.00    +0.000 C 
ATOM     17 CL   UNL     1       2.464   5.323  17.947  0.00  0.00    +0.000 Cl
ATOM     18  C   UNL     1       4.322   7.200  17.338  0.00  0.00    +0.000 C 
BRANCH  18  19
ATOM     19  C   UNL     1       5.283   6.257  16.775  0.00  0.00    +0.000 A 
ATOM     20  C   UNL     1       6.213   5.636  17.615  0.00  0.00    +0.000 A 
ATOM     21  C   UNL     1       7.101   4.693  17.098  0.00  0.00    +0.000 A 
ATOM     22  C   UNL     1       7.057   4.367  15.742  0.00  0.00    +0.000 A 
ATOM     23  C   UNL     1       6.127   4.979  14.904  0.00  0.00    +0.000 A 
ATOM     24  C   UNL     1       5.238   5.924  15.418  0.00  0.00    +0.000 A 
ENDBRANCH  18  19
ENDBRANCH   2  16
TORSDOF 4
ENDMDL
MODEL 7
REMARK VINA RESULT:      -7.2      2.484      3.775
REMARK  Name = 
REMARK  5 active torsions:
REMARK  status: ('A' for Active; 'I' for Inactive)
REMARK    1  A    between atoms: C_1  and  C_2
REMARK    2  A    between atoms: N_4  and  C_5
REMARK    3  A    between atoms: C_8  and  N_9
REMARK    4  A    between atoms: C_10  and  C_12
REMARK    5  A    between atoms: C_14  and  C_15
REMARK                            x       y       z     vdW  Elec       q    Type
REMARK                         _______ _______ _______ _____ _____    ______ ____
ROOT
ATOM      1  N   UNL     1       2.156   7.710  19.491  0.00  0.00    +0.000 N 
ATOM      2  C   UNL     1       2.245   6.360  19.787  0.00  0.00    +0.000 C 
ATOM      3  O   UNL     1       1.609   5.778  20.664  0.00  0.00    +0.000 OA
ATOM      4  H   UNL     1       2.721   8.051  18.721  0.00  0.00    +0.000 HD
ENDROOT
BRANCH   1   8
ATOM      5  C   UNL     1      -0.282  10.510  21.563  0.00  0.00    +0.000 A 
ATOM      6  C   UNL     1      -0.202  10.532  20.176  0.00  0.00    +0.000 A 
ATOM      7  C   UNL     1       0.595   9.616  19.488  0.00  0.00    +0.000 A 
ATOM      8  C   UNL     1       1.341   8.652  20.162  0.00  0.00    +0.000 A 
ATOM      9  C   UNL     1       1.270   8.626  21.560  0.00  0.00    +0.000 A 
ATOM     10  C   UNL     1       0.476   9.559  22.257  0.00  0.00    +0.000 A 
BRANCH   5  14
ATOM     11  C   UNL     1      -1.745  13.427  23.454  0.00  0.00    +0.000 C 
ATOM     12  C   UNL     1      -0.754  12.746  22.551  0.00  0.00    +0.000 C 
ATOM     13  O   UNL     1       0.221  13.365  22.134  0.00  0.00    +0.000 OA
ATOM     14  N   UNL     1      -1.080  11.424  22.284  0.00  0.00    +0.000 N 
ATOM     15  H   UNL     1      -1.998  11.106  22.566  0.00  0.00    +0.000 HD
ENDBRANCH   5  14
ENDBRANCH   1   8
BRANCH   2  16
ATOM     16  C   UNL     1       3.207   5.569  18.945  0.00  0.00    +0.000 C 
ATOM     17 CL   UNL     1       3.042   3.859  18.844  0.00  0.00    +0.000 Cl
ATOM     18  C   UNL     1       4.156   6.270  18.300  0.00  0.00    +0.000 C 
BRANCH  18  19
ATOM     19  C   UNL     1       5.183   5.742  17.408  0.00  0.00    +0.000 A 
ATOM     20  C   UNL     1       6.320   5.132  17.949  0.00  0.00    +0.000 A 
ATOM     21  C   UNL     1       7.282   4.576  17.107  0.00  0.00    +0.000 A 
ATOM     22  C   UNL     1       7.107   4.626  15.723  0.00  0.00    +0.000 A 
ATOM     23  C   UNL     1       5.973   5.227  15.181  0.00  0.00    +0.000 A 
ATOM     24  C   UNL     1       5.008   5.785  16.022  0.00  0.00    +0.000 A 
ENDBRANCH  18  19
ENDBRANCH   2  16
TORSDOF 4
ENDMDL
MODEL 8
REMARK VINA RESULT:      -7.1      2.531      3.876
REMARK  Name = 
REMARK  5 active torsions:
REMARK  status: ('A' for Active; 'I' for Inactive)
REMARK    1  A    between atoms: C_1  and  C_2
REMARK    2  A    between atoms: N_4  and  C_5
REMARK    3  A    between atoms: C_8  and  N_9
REMARK    4  A    between atoms: C_10  and  C_12
REMARK    5  A    between atoms: C_14  and  C_15
REMARK                            x       y       z     vdW  Elec       q    Type
REMARK                         _______ _______ _______ _____ _____    ______ ____
ROOT
ATOM      1  N   UNL     1       1.873   7.898  19.846  0.00  0.00    +0.000 N 
ATOM      2  C   UNL     1       2.297   8.022  18.534  0.00  0.00    +0.000 C 
ATOM      3  O   UNL     1       2.070   8.981  17.797  0.00  0.00    +0.000 OA
ATOM      4  H   UNL     1       2.158   7.062  20.345  0.00  0.00    +0.000 HD
ENDROOT
BRANCH   1   8
ATOM      5  C   UNL     1      -0.510  10.746  21.915  0.00  0.00    +0.000 A 
ATOM      6  C   UNL     1       0.299   9.859  22.614  0.00  0.00    +0.000 A 
ATOM      7  C   UNL     1       1.085   8.922  21.943  0.00  0.00    +0.000 A 
ATOM      8  C   UNL     1       1.085   8.836  20.553  0.00  0.00    +0.000 A 
ATOM      9  C   UNL     1       0.269   9.723  19.841  0.00  0.00    +0.000 A 
ATOM     10  C   UNL     1      -0.536  10.662  20.518  0.00  0.00    +0.000 A 
BRANCH   5  14
ATOM     11  C   UNL     1      -1.964  13.743  23.685  0.00  0.00    +0.000 C 
ATOM     12  C   UNL     1      -0.939  13.006  22.868  0.00  0.00    +0.000 C 
ATOM     13  O   UNL     1       0.102  13.568  22.540  0.00  0.00    +0.000 OA
ATOM     14  N   UNL     1      -1.315  11.705  22.568  0.00  0.00    +0.000 N 
ATOM     15  H   UNL     1      -2.271  11.439  22.768  0.00  0.00    +0.000 HD
ENDBRANCH   5  14
ENDBRANCH   1   8
BRANCH   2  16
ATOM     16  C   UNL     1       3.104   6.873  17.996  0.00  0.00    +0.000 C 
ATOM     17 CL   UNL     1       2.469   5.276  18.080  0.00  0.00    +0.000 Cl
ATOM     18  C   UNL     1       4.300   7.177  17.463  0.00  0.00    +0.000 C 
BRANCH  18  19
ATOM     19  C   UNL     1       5.252   6.252  16.857  0.00  0.00    +0.000 A 
ATOM     20  C   UNL     1       6.169   5.577  17.668  0.00  0.00    +0.000 A 
ATOM     21  C   UNL     1       7.047   4.650  17.107  0.00  0.00    +0.000 A 
ATOM     22  C   UNL     1       7.006   4.394  15.736  0.00  0.00    +0.000 A 
ATOM     23  C   UNL     1       6.089   5.061  14.926  0.00  0.00    +0.000 A 
ATOM     24  C   UNL     1       5.210   5.989  15.484  0.00  0.00    +0.000 A 
ENDBRANCH  18  19
ENDBRANCH   2  16
TORSDOF 4
ENDMDL
MODEL 9
REMARK VINA RESULT:      -7.1      2.539      3.849
REMARK  Name = 
REMARK  5 active torsions:
REMARK  status: ('A' for Active; 'I' for Inactive)
REMARK    1  A    between atoms: C_1  and  C_2
REMARK    2  A    between atoms: N_4  and  C_5
REMARK    3  A    between atoms: C_8  and  N_9
REMARK    4  A    between atoms: C_10  and  C_12
REMARK    5  A    between atoms: C_14  and  C_15
REMARK                            x       y       z     vdW  Elec       q    Type
REMARK                         _______ _______ _______ _____ _____    ______ ____
ROOT
ATOM      1  N   UNL     1       1.897   7.864  19.939  0.00  0.00    +0.000 N 
ATOM      2  C   UNL     1       2.252   7.927  18.602  0.00  0.00    +0.000 C 
ATOM      3  O   UNL     1       1.955   8.833  17.826  0.00  0.00    +0.000 OA
ATOM      4  H   UNL     1       2.235   7.069  20.470  0.00  0.00    +0.000 HD
ENDROOT
BRANCH   1   8
ATOM      5  C   UNL     1      -0.472  10.756  21.965  0.00  0.00    +0.000 A 
ATOM      6  C   UNL     1       0.238   9.797  22.679  0.00  0.00    +0.000 A 
ATOM      7  C   UNL     1       1.018   8.845  22.022  0.00  0.00    +0.000 A 
ATOM      8  C   UNL     1       1.112   8.816  20.633  0.00  0.00    +0.000 A 
ATOM      9  C   UNL     1       0.397   9.775  19.906  0.00  0.00    +0.000 A 
ATOM     10  C   UNL     1      -0.403  10.730  20.568  0.00  0.00    +0.000 A 
BRANCH   5  14
ATOM     11  C   UNL     1      -1.905  13.799  23.670  0.00  0.00    +0.000 C 
ATOM     12  C   UNL     1      -0.892  13.042  22.858  0.00  0.00    +0.000 C 
ATOM     13  O   UNL     1       0.140  13.598  22.493  0.00  0.00    +0.000 OA
ATOM     14  N   UNL     1      -1.268  11.730  22.604  0.00  0.00    +0.000 N 
ATOM     15  H   UNL     1      -2.219  11.468  22.829  0.00  0.00    +0.000 HD
ENDBRANCH   5  14
ENDBRANCH   1   8
BRANCH   2  16
ATOM     16  C   UNL     1       3.071   6.775  18.090  0.00  0.00    +0.000 C 
ATOM     17 CL   UNL     1       2.465   5.170  18.233  0.00  0.00    +0.000 Cl
ATOM     18  C   UNL     1       4.254   7.082  17.530  0.00  0.00    +0.000 C 
BRANCH  18  19
ATOM     19  C   UNL     1       5.213   6.155  16.939  0.00  0.00    +0.000 A 
ATOM     20  C   UNL     1       5.186   5.920  15.561  0.00  0.00    +0.000 A 
ATOM     21  C   UNL     1       6.132   5.078  14.977  0.00  0.00    +0.000 A 
ATOM     22  C   UNL     1       7.109   4.474  15.770  0.00  0.00    +0.000 A 
ATOM     23  C   UNL     1       7.143   4.711  17.143  0.00  0.00    +0.000 A 
ATOM     24  C   UNL     1       6.196   5.553  17.730  0.00  0.00    +0.000 A 
ENDBRANCH  18  19
ENDBRANCH   2  16
TORSDOF 4
ENDMDL
