MODEL 1
REMARK VINA RESULT:      -7.8      0.000      0.000
REMARK  Name = 
REMARK  5 active torsions:
REMARK  status: ('A' for Active; 'I' for Inactive)
REMARK    1  A    between atoms: C_1  and  C_2
REMARK    2  A    between atoms: C_6  and  S_7
REMARK    3  A    between atoms: S_7  and  C_8
REMARK    4  A    between atoms: C_8  and  C_9
REMARK    5  A    between atoms: C_17  and  O_18
REMARK                            x       y       z     vdW  Elec       q    Type
REMARK                         _______ _______ _______ _____ _____    ______ ____
ROOT
ATOM      1  C   UNL     1       4.162   4.859  17.520  0.00  0.00    +0.000 A 
ATOM      2  C   UNL     1       3.996   6.181  17.291  0.00  0.00    +0.000 A 
ATOM      3 CL   UNL     1       4.601   6.959  15.854  0.00  0.00    +0.000 Cl
ATOM      4  C   UNL     1       3.296   7.102  18.225  0.00  0.00    +0.000 A 
ATOM      5  O   UNL     1       3.156   8.301  18.011  0.00  0.00    +0.000 OA
ATOM      6  O   UNL     1       2.796   6.536  19.386  0.00  0.00    +0.000 OA
ATOM      7  C   UNL     1       2.885   5.157  19.630  0.00  0.00    +0.000 A 
ATOM      8  C   UNL     1       2.258   4.726  20.804  0.00  0.00    +0.000 A 
ATOM      9  C   UNL     1       2.272   3.378  21.110  0.00  0.00    +0.000 A 
ATOM     10  C   UNL     1       2.893   2.477  20.256  0.00  0.00    +0.000 A 
ATOM     11  C   UNL     1       3.520   2.931  19.085  0.00  0.00    +0.000 A 
ATOM     12  C   UNL     1       3.536   4.291  18.743  0.00  0.00    +0.000 A 
ENDROOT
BRANCH   9  13
ATOM     13  O   UNL     1       1.677   2.886  22.235  0.00  0.00    +0.000 OA
ATOM     14  H   UNL     1       1.382   3.636  22.783  0.00  0.00    +0.000 HD
ENDBRANCH   9  13
BRANCH   1  15
ATOM     15  C   UNL     1       4.898   3.952  16.547  0.00  0.00    +0.000 C 
BRANCH  15  16
ATOM     16  S   UNL     1       6.644   4.473  16.361  0.00  0.00    +0.000 S 
BRANCH  16  22
ATOM     17  C   UNL     1       5.444   2.562  11.777  0.00  0.00    +0.000 C 
ATOM     18  C   UNL     1       6.268   3.561  12.531  0.00  0.00    +0.000 A 
ATOM     19  C   UNL     1       7.184   4.374  11.874  0.00  0.00    +0.000 A 
ATOM     20  C   UNL     1       7.905   5.302  12.616  0.00  0.00    +0.000 A 
ATOM     21  C   UNL     1       7.700   5.379  13.992  0.00  0.00    +0.000 A 
ATOM     22  C   UNL     1       6.787   4.514  14.582  0.00  0.00    +0.000 A 
ATOM     23  N   UNL     1       6.059   3.629  13.869  0.00  0.00    +0.000 NA
ENDBRANCH  16  22
ENDBRANCH  15  16
ENDBRANCH   1  15
TORSDOF 4
ENDMDL
MODEL 2
REMARK VINA RESULT:      -7.7      0.742      1.513
REMARK  Name = 
REMARK  5 active torsions:
REMARK  status: ('A' for Active; 'I' for Inactive)
REMARK    1  A    between atoms: C_1  and  C_2
REMARK    2  A    between atoms: C_6  and  S_7
REMARK    3  A    between atoms: S_7  and  C_8
REMARK    4  A    between atoms: C_8  and  C_9
REMARK    5  A    between atoms: C_17  and  O_18
REMARK                            x       y       z     vdW  Elec       q    Type
REMARK                         _______ _______ _______ _____ _____    ______ ____
ROOT
ATOM      1  C   UNL     1       4.167   4.808  17.840  0.00  0.00    +0.000 A 
ATOM      2  C   UNL     1       3.917   6.106  17.555  0.00  0.00    +0.000 A 
ATOM      3 CL   UNL     1       4.584   6.895  16.152  0.00  0.00    +0.000 Cl
ATOM      4  C   UNL     1       3.067   6.989  18.396  0.00  0.00    +0.000 A 
ATOM      5  O   UNL     1       2.850   8.167  18.133  0.00  0.00    +0.000 OA
ATOM      6  O   UNL     1       2.512   6.412  19.527  0.00  0.00    +0.000 OA
ATOM      7  C   UNL     1       2.688   5.051  19.821  0.00  0.00    +0.000 A 
ATOM      8  C   UNL     1       1.996   4.599  20.949  0.00  0.00    +0.000 A 
ATOM      9  C   UNL     1       2.090   3.265  21.298  0.00  0.00    +0.000 A 
ATOM     10  C   UNL     1       2.854   2.397  20.530  0.00  0.00    +0.000 A 
ATOM     11  C   UNL     1       3.545   2.872  19.404  0.00  0.00    +0.000 A 
ATOM     12  C   UNL     1       3.483   4.221  19.022  0.00  0.00    +0.000 A 
ENDROOT
BRANCH   9  13
ATOM     13  O   UNL     1       1.438   2.754  22.382  0.00  0.00    +0.000 OA
ATOM     14  H   UNL     1       1.672   1.812  22.468  0.00  0.00    +0.000 HD
ENDBRANCH   9  13
BRANCH   1  15
ATOM     15  C   UNL     1       5.057   3.941  16.963  0.00  0.00    +0.000 C 
BRANCH  15  16
ATOM     16  S   UNL     1       6.695   4.723  16.720  0.00  0.00    +0.000 S 
BRANCH  16  22
ATOM     17  C   UNL     1       8.800   6.210  12.308  0.00  0.00    +0.000 C 
ATOM     18  C   UNL     1       7.819   5.292  12.970  0.00  0.00    +0.000 A 
ATOM     19  C   UNL     1       7.022   4.436  12.219  0.00  0.00    +0.000 A 
ATOM     20  C   UNL     1       6.147   3.585  12.885  0.00  0.00    +0.000 A 
ATOM     21  C   UNL     1       6.083   3.626  14.275  0.00  0.00    +0.000 A 
ATOM     22  C   UNL     1       6.892   4.528  14.956  0.00  0.00    +0.000 A 
ATOM     23  N   UNL     1       7.768   5.339  14.324  0.00  0.00    +0.000 NA
ENDBRANCH  16  22
ENDBRANCH  15  16
ENDBRANCH   1  15
TORSDOF 4
ENDMDL
MODEL 3
REMARK VINA RESULT:      -7.7      4.175      7.414
REMARK  Name = 
REMARK  5 active torsions:
REMARK  status: ('A' for Active; 'I' for Inactive)
REMARK    1  A    between atoms: C_1  and  C_2
REMARK    2  A    between atoms: C_6  and  S_7
REMARK    3  A    between atoms: S_7  and  C_8
REMARK    4  A    between atoms: C_8  and  C_9
REMARK    5  A    between atoms: C_17  and  O_18
REMARK                            x       y       z     vdW  Elec       q    Type
REMARK                         _______ _______ _______ _____ _____    ______ ____
ROOT
ATOM      1  C   UNL     1       3.252   4.784  19.097  0.00  0.00    +0.000 A 
ATOM      2  C   UNL     1       3.412   3.666  19.840  0.00  0.00    +0.000 A 
ATOM      3 CL   UNL     1       2.152   3.046  20.872  0.00  0.00    +0.000 Cl
ATOM      4  C   UNL     1       4.661   2.860  19.863  0.00  0.00    +0.000 A 
ATOM      5  O   UNL     1       4.799   1.849  20.545  0.00  0.00    +0.000 OA
ATOM      6  O   UNL     1       5.697   3.309  19.062  0.00  0.00    +0.000 OA
ATOM      7  C   UNL     1       5.549   4.424  18.223  0.00  0.00    +0.000 A 
ATOM      8  C   UNL     1       6.654   4.701  17.412  0.00  0.00    +0.000 A 
ATOM      9  C   UNL     1       6.586   5.766  16.534  0.00  0.00    +0.000 A 
ATOM     10  C   UNL     1       5.431   6.535  16.460  0.00  0.00    +0.000 A 
ATOM     11  C   UNL     1       4.335   6.242  17.286  0.00  0.00    +0.000 A 
ATOM     12  C   UNL     1       4.368   5.175  18.197  0.00  0.00    +0.000 A 
ENDROOT
BRANCH   9  13
ATOM     13  O   UNL     1       7.624   6.092  15.710  0.00  0.00    +0.000 OA
ATOM     14  H   UNL     1       8.399   6.308  16.259  0.00  0.00    +0.000 HD
ENDBRANCH   9  13
BRANCH   1  15
ATOM     15  C   UNL     1       1.963   5.592  19.114  0.00  0.00    +0.000 C 
BRANCH  15  16
ATOM     16  S   UNL     1       1.888   6.672  20.591  0.00  0.00    +0.000 S 
BRANCH  16  22
ATOM     17  C   UNL     1      -0.395  11.243  20.642  0.00  0.00    +0.000 C 
ATOM     18  C   UNL     1       0.456  10.287  19.863  0.00  0.00    +0.000 A 
ATOM     19  C   UNL     1       0.857  10.581  18.565  0.00  0.00    +0.000 A 
ATOM     20  C   UNL     1       1.667   9.671  17.896  0.00  0.00    +0.000 A 
ATOM     21  C   UNL     1       2.038   8.491  18.536  0.00  0.00    +0.000 A 
ATOM     22  C   UNL     1       1.575   8.254  19.825  0.00  0.00    +0.000 A 
ATOM     23  N   UNL     1       0.812   9.143  20.497  0.00  0.00    +0.000 NA
ENDBRANCH  16  22
ENDBRANCH  15  16
ENDBRANCH   1  15
TORSDOF 4
ENDMDL
MODEL 4
REMARK VINA RESULT:      -7.7      2.379      2.910
REMARK  Name = 
REMARK  5 active torsions:
REMARK  status: ('A' for Active; 'I' for Inactive)
REMARK    1  A    between atoms: C_1  and  C_2
REMARK    2  A    between atoms: C_6  and  S_7
REMARK    3  A    between atoms: S_7  and  C_8
REMARK    4  A    between atoms: C_8  and  C_9
REMARK    5  A    between atoms: C_17  and  O_18
REMARK                            x       y       z     vdW  Elec       q    Type
REMARK                         _______ _______ _______ _____ _____    ______ ____
ROOT
ATOM      1  C   UNL     1       5.582   5.137  16.987  0.00  0.00    +0.000 A 
ATOM      2  C   UNL     1       6.474   5.616  17.883  0.00  0.00    +0.000 A 
ATOM      3 CL   UNL     1       7.656   6.826  17.463  0.00  0.00    +0.000 Cl
ATOM      4  C   UNL     1       6.549   5.166  19.298  0.00  0.00    +0.000 A 
ATOM      5  O   UNL     1       7.365   5.602  20.102  0.00  0.00    +0.000 OA
ATOM      6  O   UNL     1       5.633   4.202  19.685  0.00  0.00    +0.000 OA
ATOM      7  C   UNL     1       4.646   3.730  18.807  0.00  0.00    +0.000 A 
ATOM      8  C   UNL     1       3.743   2.822  19.371  0.00  0.00    +0.000 A 
ATOM      9  C   UNL     1       2.720   2.326  18.586  0.00  0.00    +0.000 A 
ATOM     10  C   UNL     1       2.596   2.734  17.264  0.00  0.00    +0.000 A 
ATOM     11  C   UNL     1       3.515   3.642  16.717  0.00  0.00    +0.000 A 
ATOM     12  C   UNL     1       4.573   4.162  17.478  0.00  0.00    +0.000 A 
ENDROOT
BRANCH   9  13
ATOM     13  O   UNL     1       1.800   1.441  19.070  0.00  0.00    +0.000 OA
ATOM     14  H   UNL     1       0.963   1.570  18.588  0.00  0.00    +0.000 HD
ENDBRANCH   9  13
BRANCH   1  15
ATOM     15  C   UNL     1       5.548   5.610  15.542  0.00  0.00    +0.000 C 
BRANCH  15  16
ATOM     16  S   UNL     1       7.003   4.991  14.617  0.00  0.00    +0.000 S 
BRANCH  16  22
ATOM     17  C   UNL     1       7.286   1.568  10.834  0.00  0.00    +0.000 C 
ATOM     18  C   UNL     1       6.393   2.469  11.632  0.00  0.00    +0.000 A 
ATOM     19  C   UNL     1       5.040   2.584  11.331  0.00  0.00    +0.000 A 
ATOM     20  C   UNL     1       4.251   3.413  12.119  0.00  0.00    +0.000 A 
ATOM     21  C   UNL     1       4.838   4.113  13.171  0.00  0.00    +0.000 A 
ATOM     22  C   UNL     1       6.202   3.967  13.393  0.00  0.00    +0.000 A 
ATOM     23  N   UNL     1       6.975   3.142  12.654  0.00  0.00    +0.000 NA
ENDBRANCH  16  22
ENDBRANCH  15  16
ENDBRANCH   1  15
TORSDOF 4
ENDMDL
MODEL 5
REMARK VINA RESULT:      -7.6      4.243      7.843
REMARK  Name = 
REMARK  5 active torsions:
REMARK  status: ('A' for Active; 'I' for Inactive)
REMARK    1  A    between atoms: C_1  and  C_2
REMARK    2  A    between atoms: C_6  and  S_7
REMARK    3  A    between atoms: S_7  and  C_8
REMARK    4  A    between atoms: C_8  and  C_9
REMARK    5  A    between atoms: C_17  and  O_18
REMARK                            x       y       z     vdW  Elec       q    Type
REMARK                         _______ _______ _______ _____ _____    ______ ____
ROOT
ATOM      1  C   UNL     1       3.085   5.464  18.718  0.00  0.00    +0.000 A 
ATOM      2  C   UNL     1       2.424   4.296  18.883  0.00  0.00    +0.000 A 
ATOM      3 CL   UNL     1       1.010   4.161  19.893  0.00  0.00    +0.000 Cl
ATOM      4  C   UNL     1       2.828   3.018  18.239  0.00  0.00    +0.000 A 
ATOM      5  O   UNL     1       2.226   1.962  18.399  0.00  0.00    +0.000 OA
ATOM      6  O   UNL     1       3.949   3.068  17.427  0.00  0.00    +0.000 OA
ATOM      7  C   UNL     1       4.622   4.273  17.173  0.00  0.00    +0.000 A 
ATOM      8  C   UNL     1       5.681   4.174  16.265  0.00  0.00    +0.000 A 
ATOM      9  C   UNL     1       6.384   5.318  15.935  0.00  0.00    +0.000 A 
ATOM     10  C   UNL     1       6.029   6.539  16.494  0.00  0.00    +0.000 A 
ATOM     11  C   UNL     1       4.964   6.614  17.406  0.00  0.00    +0.000 A 
ATOM     12  C   UNL     1       4.233   5.475  17.774  0.00  0.00    +0.000 A 
ENDROOT
BRANCH   9  13
ATOM     13  O   UNL     1       7.425   5.298  15.054  0.00  0.00    +0.000 OA
ATOM     14  H   UNL     1       7.618   6.213  14.781  0.00  0.00    +0.000 HD
ENDBRANCH   9  13
BRANCH   1  15
ATOM     15  C   UNL     1       2.650   6.747  19.409  0.00  0.00    +0.000 C 
BRANCH  15  16
ATOM     16  S   UNL     1       2.179   8.023  18.181  0.00  0.00    +0.000 S 
BRANCH  16  22
ATOM     17  C   UNL     1       0.369   9.358  22.769  0.00  0.00    +0.000 C 
ATOM     18  C   UNL     1       0.351   9.634  21.296  0.00  0.00    +0.000 A 
ATOM     19  C   UNL     1      -0.488  10.605  20.761  0.00  0.00    +0.000 A 
ATOM     20  C   UNL     1      -0.448  10.839  19.392  0.00  0.00    +0.000 A 
ATOM     21  C   UNL     1       0.415  10.088  18.598  0.00  0.00    +0.000 A 
ATOM     22  C   UNL     1       1.204   9.116  19.201  0.00  0.00    +0.000 A 
ATOM     23  N   UNL     1       1.196   8.898  20.534  0.00  0.00    +0.000 NA
ENDBRANCH  16  22
ENDBRANCH  15  16
ENDBRANCH   1  15
TORSDOF 4
ENDMDL
MODEL 6
REMARK VINA RESULT:      -7.6      4.164      6.665
REMARK  Name = 
REMARK  5 active torsions:
REMARK  status: ('A' for Active; 'I' for Inactive)
REMARK    1  A    between atoms: C_1  and  C_2
REMARK    2  A    between atoms: C_6  and  S_7
REMARK    3  A    between atoms: S_7  and  C_8
REMARK    4  A    between atoms: C_8  and  C_9
REMARK    5  A    between atoms: C_17  and  O_18
REMARK                            x       y       z     vdW  Elec       q    Type
REMARK                         _______ _______ _______ _____ _____    ______ ____
ROOT
ATOM      1  C   UNL     1       3.332   5.512  18.213  0.00  0.00    +0.000 A 
ATOM      2  C   UNL     1       4.645   5.422  17.904  0.00  0.00    +0.000 A 
ATOM      3 CL   UNL     1       5.400   6.470  16.734  0.00  0.00    +0.000 Cl
ATOM      4  C   UNL     1       5.573   4.432  18.513  0.00  0.00    +0.000 A 
ATOM      5  O   UNL     1       6.761   4.355  18.223  0.00  0.00    +0.000 OA
ATOM      6  O   UNL     1       5.024   3.572  19.449  0.00  0.00    +0.000 OA
ATOM      7  C   UNL     1       3.684   3.677  19.849  0.00  0.00    +0.000 A 
ATOM      8  C   UNL     1       3.302   2.793  20.865  0.00  0.00    +0.000 A 
ATOM      9  C   UNL     1       2.005   2.845  21.340  0.00  0.00    +0.000 A 
ATOM     10  C   UNL     1       1.109   3.768  20.818  0.00  0.00    +0.000 A 
ATOM     11  C   UNL     1       1.511   4.643  19.797  0.00  0.00    +0.000 A 
ATOM     12  C   UNL     1       2.815   4.616  19.280  0.00  0.00    +0.000 A 
ENDROOT
BRANCH   9  13
ATOM     13  O   UNL     1       1.565   2.017  22.331  0.00  0.00    +0.000 OA
ATOM     14  H   UNL     1       1.294   1.172  21.931  0.00  0.00    +0.000 HD
ENDBRANCH   9  13
BRANCH   1  15
ATOM     15  C   UNL     1       2.411   6.527  17.555  0.00  0.00    +0.000 C 
BRANCH  15  16
ATOM     16  S   UNL     1       2.902   8.236  17.995  0.00  0.00    +0.000 S 
BRANCH  16  22
ATOM     17  C   UNL     1      -1.120  11.078  19.360  0.00  0.00    +0.000 C 
ATOM     18  C   UNL     1      -0.148  10.017  19.777  0.00  0.00    +0.000 A 
ATOM     19  C   UNL     1      -0.172   9.491  21.064  0.00  0.00    +0.000 A 
ATOM     20  C   UNL     1       0.734   8.490  21.392  0.00  0.00    +0.000 A 
ATOM     21  C   UNL     1       1.646   8.056  20.433  0.00  0.00    +0.000 A 
ATOM     22  C   UNL     1       1.628   8.649  19.176  0.00  0.00    +0.000 A 
ATOM     23  N   UNL     1       0.733   9.601  18.834  0.00  0.00    +0.000 NA
ENDBRANCH  16  22
ENDBRANCH  15  16
ENDBRANCH   1  15
TORSDOF 4
ENDMDL
MODEL 7
REMARK VINA RESULT:      -7.6      4.361      7.964
REMARK  Name = 
REMARK  5 active torsions:
REMARK  status: ('A' for Active; 'I' for Inactive)
REMARK    1  A    between atoms: C_1  and  C_2
REMARK    2  A    between atoms: C_6  and  S_7
REMARK    3  A    between atoms: S_7  and  C_8
REMARK    4  A    between atoms: C_8  and  C_9
REMARK    5  A    between atoms: C_17  and  O_18
REMARK                            x       y       z     vdW  Elec       q    Type
REMARK                         _______ _______ _______ _____ _____    ______ ____
ROOT
ATOM      1  C   UNL     1       3.253   5.396  18.693  0.00  0.00    +0.000 A 
ATOM      2  C   UNL     1       2.481   4.286  18.704  0.00  0.00    +0.000 A 
ATOM      3 CL   UNL     1       1.062   4.151  19.706  0.00  0.00    +0.000 Cl
ATOM      4  C   UNL     1       2.757   3.078  17.884  0.00  0.00    +0.000 A 
ATOM      5  O   UNL     1       2.054   2.073  17.905  0.00  0.00    +0.000 OA
ATOM      6  O   UNL     1       3.876   3.131  17.069  0.00  0.00    +0.000 OA
ATOM      7  C   UNL     1       4.664   4.288  16.974  0.00  0.00    +0.000 A 
ATOM      8  C   UNL     1       5.707   4.214  16.046  0.00  0.00    +0.000 A 
ATOM      9  C   UNL     1       6.518   5.319  15.866  0.00  0.00    +0.000 A 
ATOM     10  C   UNL     1       6.286   6.479  16.594  0.00  0.00    +0.000 A 
ATOM     11  C   UNL     1       5.235   6.530  17.524  0.00  0.00    +0.000 A 
ATOM     12  C   UNL     1       4.396   5.427  17.742  0.00  0.00    +0.000 A 
ENDROOT
BRANCH   9  13
ATOM     13  O   UNL     1       7.552   5.320  14.976  0.00  0.00    +0.000 OA
ATOM     14  H   UNL     1       7.279   5.820  14.185  0.00  0.00    +0.000 HD
ENDBRANCH   9  13
BRANCH   1  15
ATOM     15  C   UNL     1       2.948   6.607  19.560  0.00  0.00    +0.000 C 
BRANCH  15  16
ATOM     16  S   UNL     1       2.153   7.932  18.577  0.00  0.00    +0.000 S 
BRANCH  16  22
ATOM     17  C   UNL     1      -0.869  11.782  20.044  0.00  0.00    +0.000 C 
ATOM     18  C   UNL     1      -0.096  10.574  20.477  0.00  0.00    +0.000 A 
ATOM     19  C   UNL     1      -0.019  10.216  21.818  0.00  0.00    +0.000 A 
ATOM     20  C   UNL     1       0.690   9.072  22.163  0.00  0.00    +0.000 A 
ATOM     21  C   UNL     1       1.312   8.330  21.162  0.00  0.00    +0.000 A 
ATOM     22  C   UNL     1       1.214   8.765  19.846  0.00  0.00    +0.000 A 
ATOM     23  N   UNL     1       0.504   9.858  19.494  0.00  0.00    +0.000 NA
ENDBRANCH  16  22
ENDBRANCH  15  16
ENDBRANCH   1  15
TORSDOF 4
ENDMDL
MODEL 8
REMARK VINA RESULT:      -7.5      3.283      7.193
REMARK  Name = 
REMARK  5 active torsions:
REMARK  status: ('A' for Active; 'I' for Inactive)
REMARK    1  A    between atoms: C_1  and  C_2
REMARK    2  A    between atoms: C_6  and  S_7
REMARK    3  A    between atoms: S_7  and  C_8
REMARK    4  A    between atoms: C_8  and  C_9
REMARK    5  A    between atoms: C_17  and  O_18
REMARK                            x       y       z     vdW  Elec       q    Type
REMARK                         _______ _______ _______ _____ _____    ______ ____
ROOT
ATOM      1  C   UNL     1       5.576   4.149  16.772  0.00  0.00    +0.000 A 
ATOM      2  C   UNL     1       6.184   4.949  17.676  0.00  0.00    +0.000 A 
ATOM      3 CL   UNL     1       5.799   4.895  19.375  0.00  0.00    +0.000 Cl
ATOM      4  C   UNL     1       7.226   5.951  17.327  0.00  0.00    +0.000 A 
ATOM      5  O   UNL     1       7.768   6.676  18.153  0.00  0.00    +0.000 OA
ATOM      6  O   UNL     1       7.570   6.037  15.988  0.00  0.00    +0.000 OA
ATOM      7  C   UNL     1       7.014   5.178  15.028  0.00  0.00    +0.000 A 
ATOM      8  C   UNL     1       7.525   5.332  13.735  0.00  0.00    +0.000 A 
ATOM      9  C   UNL     1       7.054   4.507  12.730  0.00  0.00    +0.000 A 
ATOM     10  C   UNL     1       6.098   3.541  13.013  0.00  0.00    +0.000 A 
ATOM     11  C   UNL     1       5.595   3.406  14.317  0.00  0.00    +0.000 A 
ATOM     12  C   UNL     1       6.040   4.230  15.362  0.00  0.00    +0.000 A 
ENDROOT
BRANCH   9  13
ATOM     13  O   UNL     1       7.510   4.598  11.447  0.00  0.00    +0.000 OA
ATOM     14  H   UNL     1       6.842   4.212  10.853  0.00  0.00    +0.000 HD
ENDBRANCH   9  13
BRANCH   1  15
ATOM     15  C   UNL     1       4.502   3.147  17.167  0.00  0.00    +0.000 C 
BRANCH  15  16
ATOM     16  S   UNL     1       2.829   3.857  16.936  0.00  0.00    +0.000 S 
BRANCH  16  22
ATOM     17  C   UNL     1       1.448   2.789  21.738  0.00  0.00    +0.000 C 
ATOM     18  C   UNL     1       1.768   3.866  20.746  0.00  0.00    +0.000 A 
ATOM     19  C   UNL     1       1.655   5.209  21.088  0.00  0.00    +0.000 A 
ATOM     20  C   UNL     1       1.989   6.168  20.139  0.00  0.00    +0.000 A 
ATOM     21  C   UNL     1       2.408   5.758  18.875  0.00  0.00    +0.000 A 
ATOM     22  C   UNL     1       2.469   4.397  18.599  0.00  0.00    +0.000 A 
ATOM     23  N   UNL     1       2.177   3.455  19.521  0.00  0.00    +0.000 NA
ENDBRANCH  16  22
ENDBRANCH  15  16
ENDBRANCH   1  15
TORSDOF 4
ENDMDL
MODEL 9
REMARK VINA RESULT:      -7.5      1.903      3.744
REMARK  Name = 
REMARK  5 active torsions:
REMARK  status: ('A' for Active; 'I' for Inactive)
REMARK    1  A    between atoms: C_1  and  C_2
REMARK    2  A    between atoms: C_6  and  S_7
REMARK    3  A    between atoms: S_7  and  C_8
REMARK    4  A    between atoms: C_8  and  C_9
REMARK    5  A    between atoms: C_17  and  O_18
REMARK                            x       y       z     vdW  Elec       q    Type
REMARK                         _______ _______ _______ _____ _____    ______ ____
ROOT
ATOM      1  C   UNL     1       3.479   4.458  18.323  0.00  0.00    +0.000 A 
ATOM      2  C   UNL     1       3.408   3.512  19.286  0.00  0.00    +0.000 A 
ATOM      3 CL   UNL     1       4.088   1.921  19.079  0.00  0.00    +0.000 Cl
ATOM      4  C   UNL     1       2.748   3.718  20.602  0.00  0.00    +0.000 A 
ATOM      5  O   UNL     1       2.683   2.852  21.468  0.00  0.00    +0.000 OA
ATOM      6  O   UNL     1       2.188   4.966  20.820  0.00  0.00    +0.000 OA
ATOM      7  C   UNL     1       2.300   5.998  19.876  0.00  0.00    +0.000 A 
ATOM      8  C   UNL     1       1.758   7.223  20.277  0.00  0.00    +0.000 A 
ATOM      9  C   UNL     1       1.848   8.304  19.420  0.00  0.00    +0.000 A 
ATOM     10  C   UNL     1       2.476   8.166  18.189  0.00  0.00    +0.000 A 
ATOM     11  C   UNL     1       3.010   6.926  17.804  0.00  0.00    +0.000 A 
ATOM     12  C   UNL     1       2.930   5.803  18.641  0.00  0.00    +0.000 A 
ENDROOT
BRANCH   9  13
ATOM     13  O   UNL     1       1.346   9.530  19.746  0.00  0.00    +0.000 OA
ATOM     14  H   UNL     1       0.485   9.639  19.304  0.00  0.00    +0.000 HD
ENDBRANCH   9  13
BRANCH   1  15
ATOM     15  C   UNL     1       4.148   4.203  16.982  0.00  0.00    +0.000 C 
BRANCH  15  16
ATOM     16  S   UNL     1       5.875   4.814  16.986  0.00  0.00    +0.000 S 
BRANCH  16  22
ATOM     17  C   UNL     1       8.766   5.930  12.924  0.00  0.00    +0.000 C 
ATOM     18  C   UNL     1       7.619   5.122  13.450  0.00  0.00    +0.000 A 
ATOM     19  C   UNL     1       6.879   4.299  12.608  0.00  0.00    +0.000 A 
ATOM     20  C   UNL     1       5.841   3.551  13.152  0.00  0.00    +0.000 A 
ATOM     21  C   UNL     1       5.564   3.660  14.512  0.00  0.00    +0.000 A 
ATOM     22  C   UNL     1       6.329   4.525  15.284  0.00  0.00    +0.000 A 
ATOM     23  N   UNL     1       7.360   5.235  14.775  0.00  0.00    +0.000 NA
ENDBRANCH  16  22
ENDBRANCH  15  16
ENDBRANCH   1  15
TORSDOF 4
ENDMDL
