MODEL 1
REMARK VINA RESULT:      -6.6      0.000      0.000
REMARK  Name = 
REMARK  5 active torsions:
REMARK  status: ('A' for Active; 'I' for Inactive)
REMARK    1  A    between atoms: C_1  and  O_2
REMARK    2  A    between atoms: O_2  and  C_3
REMARK    3  A    between atoms: C_3  and  C_5
REMARK    4  A    between atoms: C_6  and  C_7
REMARK    5  A    between atoms: C_15  and  C_16
REMARK                            x       y       z     vdW  Elec       q    Type
REMARK                         _______ _______ _______ _____ _____    ______ ____
ROOT
ATOM      1  C   UNL     1       4.225   5.490  18.965  0.00  0.00    +0.000 C 
ATOM      2  C   UNL     1       3.137   5.885  19.669  0.00  0.00    +0.000 C 
ATOM      3  C   UNL     1       2.519   5.111  20.811  0.00  0.00    +0.000 C 
ATOM      4  N   UNL     1       2.551   7.112  19.322  0.00  0.00    +0.000 N 
ATOM      5  C   UNL     1       1.502   7.725  20.001  0.00  0.00    +0.000 C 
ATOM      6  O   UNL     1       0.905   7.309  20.991  0.00  0.00    +0.000 OA
ATOM      7  C   UNL     1       1.165   9.080  19.425  0.00  0.00    +0.000 C 
ATOM      8  S   UNL     1       2.035   9.196  17.863  0.00  0.00    +0.000 S 
ATOM      9  C   UNL     1       2.994   7.795  18.225  0.00  0.00    +0.000 C 
ATOM     10  N   UNL     1       3.991   7.504  17.486  0.00  0.00    +0.000 NA
ATOM     11  C   UNL     1       4.808   6.340  17.852  0.00  0.00    +0.000 C 
ENDROOT
BRANCH  11  12
ATOM     12  C   UNL     1       5.159   5.586  16.571  0.00  0.00    +0.000 A 
ATOM     13  C   UNL     1       4.383   4.501  16.095  0.00  0.00    +0.000 A 
ATOM     14  C   UNL     1       4.759   3.795  14.946  0.00  0.00    +0.000 A 
ATOM     15  C   UNL     1       5.889   4.211  14.276  0.00  0.00    +0.000 A 
ATOM     16  C   UNL     1       6.629   5.287  14.705  0.00  0.00    +0.000 A 
ATOM     17  C   UNL     1       6.289   5.995  15.836  0.00  0.00    +0.000 A 
ATOM     18  O   UNL     1       7.698   5.535  13.904  0.00  0.00    +0.000 OA
ATOM     19  C   UNL     1       7.550   4.487  12.924  0.00  0.00    +0.000 C 
ATOM     20  O   UNL     1       6.405   3.641  13.156  0.00  0.00    +0.000 OA
ENDBRANCH  11  12
BRANCH   1  21
ATOM     21  C   UNL     1       4.932   4.203  19.236  0.00  0.00    +0.000 C 
ATOM     22  O   UNL     1       6.114   4.112  19.524  0.00  0.00    +0.000 OA
BRANCH  21  24
ATOM     23  C   UNL     1       4.383   2.049  19.993  0.00  0.00    +0.000 C 
ATOM     24  O   UNL     1       4.058   3.168  19.165  0.00  0.00    +0.000 OA
ENDBRANCH  21  24
ENDBRANCH   1  21
TORSDOF 3
ENDMDL
MODEL 2
REMARK VINA RESULT:      -6.6      2.883      6.605
REMARK  Name = 
REMARK  5 active torsions:
REMARK  status: ('A' for Active; 'I' for Inactive)
REMARK    1  A    between atoms: C_1  and  O_2
REMARK    2  A    between atoms: O_2  and  C_3
REMARK    3  A    between atoms: C_3  and  C_5
REMARK    4  A    between atoms: C_6  and  C_7
REMARK    5  A    between atoms: C_15  and  C_16
REMARK                            x       y       z     vdW  Elec       q    Type
REMARK                         _______ _______ _______ _____ _____    ______ ____
ROOT
ATOM      1  C   UNL     1       3.844   5.735  18.174  0.00  0.00    +0.000 C 
ATOM      2  C   UNL     1       3.773   4.419  17.860  0.00  0.00    +0.000 C 
ATOM      3  C   UNL     1       4.473   3.771  16.688  0.00  0.00    +0.000 C 
ATOM      4  N   UNL     1       3.003   3.594  18.696  0.00  0.00    +0.000 N 
ATOM      5  C   UNL     1       2.903   2.210  18.592  0.00  0.00    +0.000 C 
ATOM      6  O   UNL     1       3.444   1.480  17.765  0.00  0.00    +0.000 OA
ATOM      7  C   UNL     1       2.066   1.614  19.699  0.00  0.00    +0.000 C 
ATOM      8  S   UNL     1       1.244   2.988  20.506  0.00  0.00    +0.000 S 
ATOM      9  C   UNL     1       2.255   4.144  19.698  0.00  0.00    +0.000 C 
ATOM     10  N   UNL     1       2.234   5.366  20.063  0.00  0.00    +0.000 NA
ATOM     11  C   UNL     1       3.139   6.306  19.389  0.00  0.00    +0.000 C 
ENDROOT
BRANCH  11  12
ATOM     12  C   UNL     1       2.376   7.607  19.148  0.00  0.00    +0.000 A 
ATOM     13  C   UNL     1       2.324   8.229  17.877  0.00  0.00    +0.000 A 
ATOM     14  C   UNL     1       1.661   9.449  17.698  0.00  0.00    +0.000 A 
ATOM     15  C   UNL     1       1.033  10.007  18.791  0.00  0.00    +0.000 A 
ATOM     16  C   UNL     1       1.041   9.393  20.021  0.00  0.00    +0.000 A 
ATOM     17  C   UNL     1       1.693   8.199  20.229  0.00  0.00    +0.000 A 
ATOM     18  O   UNL     1       0.363  10.102  20.961  0.00  0.00    +0.000 OA
ATOM     19  C   UNL     1      -0.070  11.237  20.182  0.00  0.00    +0.000 C 
ATOM     20  O   UNL     1       0.354  11.184  18.804  0.00  0.00    +0.000 OA
ENDBRANCH  11  12
BRANCH   1  21
ATOM     21  C   UNL     1       4.626   6.712  17.360  0.00  0.00    +0.000 C 
ATOM     22  O   UNL     1       4.301   7.104  16.250  0.00  0.00    +0.000 OA
BRANCH  21  24
ATOM     23  C   UNL     1       6.969   6.703  17.529  0.00  0.00    +0.000 C 
ATOM     24  O   UNL     1       5.711   7.135  18.056  0.00  0.00    +0.000 OA
ENDBRANCH  21  24
ENDBRANCH   1  21
TORSDOF 3
ENDMDL
MODEL 3
REMARK VINA RESULT:      -6.6      2.810      6.515
REMARK  Name = 
REMARK  5 active torsions:
REMARK  status: ('A' for Active; 'I' for Inactive)
REMARK    1  A    between atoms: C_1  and  O_2
REMARK    2  A    between atoms: O_2  and  C_3
REMARK    3  A    between atoms: C_3  and  C_5
REMARK    4  A    between atoms: C_6  and  C_7
REMARK    5  A    between atoms: C_15  and  C_16
REMARK                            x       y       z     vdW  Elec       q    Type
REMARK                         _______ _______ _______ _____ _____    ______ ____
ROOT
ATOM      1  C   UNL     1       3.190   5.568  18.076  0.00  0.00    +0.000 C 
ATOM      2  C   UNL     1       4.370   4.928  18.259  0.00  0.00    +0.000 C 
ATOM      3  C   UNL     1       4.514   3.498  18.726  0.00  0.00    +0.000 C 
ATOM      4  N   UNL     1       5.545   5.643  17.979  0.00  0.00    +0.000 N 
ATOM      5  C   UNL     1       6.834   5.118  18.005  0.00  0.00    +0.000 C 
ATOM      6  O   UNL     1       7.169   3.970  18.284  0.00  0.00    +0.000 OA
ATOM      7  C   UNL     1       7.869   6.127  17.568  0.00  0.00    +0.000 C 
ATOM      8  S   UNL     1       7.040   7.716  17.526  0.00  0.00    +0.000 S 
ATOM      9  C   UNL     1       5.479   6.972  17.669  0.00  0.00    +0.000 C 
ATOM     10  N   UNL     1       4.427   7.671  17.491  0.00  0.00    +0.000 NA
ATOM     11  C   UNL     1       3.125   6.997  17.572  0.00  0.00    +0.000 C 
ENDROOT
BRANCH  11  12
ATOM     12  C   UNL     1       2.164   7.912  18.327  0.00  0.00    +0.000 A 
ATOM     13  C   UNL     1       1.340   8.855  17.665  0.00  0.00    +0.000 A 
ATOM     14  C   UNL     1       0.507   9.718  18.387  0.00  0.00    +0.000 A 
ATOM     15  C   UNL     1       0.490   9.596  19.760  0.00  0.00    +0.000 A 
ATOM     16  C   UNL     1       1.254   8.658  20.412  0.00  0.00    +0.000 A 
ATOM     17  C   UNL     1       2.090   7.803  19.730  0.00  0.00    +0.000 A 
ATOM     18  O   UNL     1       1.089   8.699  21.761  0.00  0.00    +0.000 OA
ATOM     19  C   UNL     1       0.137   9.776  21.883  0.00  0.00    +0.000 C 
ATOM     20  O   UNL     1      -0.246  10.351  20.617  0.00  0.00    +0.000 OA
ENDBRANCH  11  12
BRANCH   1  21
ATOM     21  C   UNL     1       1.874   4.916  18.345  0.00  0.00    +0.000 C 
ATOM     22  O   UNL     1       1.121   4.495  17.481  0.00  0.00    +0.000 OA
BRANCH  21  24
ATOM     23  C   UNL     1       0.989   3.629  20.100  0.00  0.00    +0.000 C 
ATOM     24  O   UNL     1       1.668   4.816  19.682  0.00  0.00    +0.000 OA
ENDBRANCH  21  24
ENDBRANCH   1  21
TORSDOF 3
ENDMDL
MODEL 4
REMARK VINA RESULT:      -6.6      4.093      7.200
REMARK  Name = 
REMARK  5 active torsions:
REMARK  status: ('A' for Active; 'I' for Inactive)
REMARK    1  A    between atoms: C_1  and  O_2
REMARK    2  A    between atoms: O_2  and  C_3
REMARK    3  A    between atoms: C_3  and  C_5
REMARK    4  A    between atoms: C_6  and  C_7
REMARK    5  A    between atoms: C_15  and  C_16
REMARK                            x       y       z     vdW  Elec       q    Type
REMARK                         _______ _______ _______ _____ _____    ______ ____
ROOT
ATOM      1  C   UNL     1      -0.061  11.392  19.629  0.00  0.00    +0.000 C 
ATOM      2  C   UNL     1      -1.307  11.872  19.860  0.00  0.00    +0.000 C 
ATOM      3  C   UNL     1      -1.680  12.797  20.995  0.00  0.00    +0.000 C 
ATOM      4  N   UNL     1      -2.323  11.492  18.969  0.00  0.00    +0.000 N 
ATOM      5  C   UNL     1      -3.630  11.970  18.986  0.00  0.00    +0.000 C 
ATOM      6  O   UNL     1      -4.123  12.777  19.771  0.00  0.00    +0.000 OA
ATOM      7  C   UNL     1      -4.449  11.429  17.838  0.00  0.00    +0.000 C 
ATOM      8  S   UNL     1      -3.487  10.103  17.112  0.00  0.00    +0.000 S 
ATOM      9  C   UNL     1      -2.069  10.566  17.998  0.00  0.00    +0.000 C 
ATOM     10  N   UNL     1      -0.944  10.041  17.708  0.00  0.00    +0.000 NA
ATOM     11  C   UNL     1       0.242  10.493  18.446  0.00  0.00    +0.000 C 
ENDROOT
BRANCH  11  12
ATOM     12  C   UNL     1       1.100   9.269  18.761  0.00  0.00    +0.000 A 
ATOM     13  C   UNL     1       0.997   8.569  19.988  0.00  0.00    +0.000 A 
ATOM     14  C   UNL     1       1.833   7.482  20.270  0.00  0.00    +0.000 A 
ATOM     15  C   UNL     1       2.735   7.095  19.302  0.00  0.00    +0.000 A 
ATOM     16  C   UNL     1       2.817   7.740  18.091  0.00  0.00    +0.000 A 
ATOM     17  C   UNL     1       2.015   8.818  17.789  0.00  0.00    +0.000 A 
ATOM     18  O   UNL     1       3.763   7.202  17.278  0.00  0.00    +0.000 OA
ATOM     19  C   UNL     1       4.273   6.147  18.119  0.00  0.00    +0.000 C 
ATOM     20  O   UNL     1       3.625   6.075  19.406  0.00  0.00    +0.000 OA
ENDBRANCH  11  12
BRANCH   1  21
ATOM     21  C   UNL     1       1.100  11.720  20.508  0.00  0.00    +0.000 C 
ATOM     22  O   UNL     1       1.263  11.275  21.633  0.00  0.00    +0.000 OA
BRANCH  21  24
ATOM     23  C   UNL     1       2.515  13.590  20.648  0.00  0.00    +0.000 C 
ATOM     24  O   UNL     1       1.963  12.537  19.854  0.00  0.00    +0.000 OA
ENDBRANCH  21  24
ENDBRANCH   1  21
TORSDOF 3
ENDMDL
MODEL 5
REMARK VINA RESULT:      -6.5      2.752      6.495
REMARK  Name = 
REMARK  5 active torsions:
REMARK  status: ('A' for Active; 'I' for Inactive)
REMARK    1  A    between atoms: C_1  and  O_2
REMARK    2  A    between atoms: O_2  and  C_3
REMARK    3  A    between atoms: C_3  and  C_5
REMARK    4  A    between atoms: C_6  and  C_7
REMARK    5  A    between atoms: C_15  and  C_16
REMARK                            x       y       z     vdW  Elec       q    Type
REMARK                         _______ _______ _______ _____ _____    ______ ____
ROOT
ATOM      1  C   UNL     1       3.142   5.481  18.790  0.00  0.00    +0.000 C 
ATOM      2  C   UNL     1       4.374   4.919  18.818  0.00  0.00    +0.000 C 
ATOM      3  C   UNL     1       4.707   3.599  19.474  0.00  0.00    +0.000 C 
ATOM      4  N   UNL     1       5.416   5.607  18.176  0.00  0.00    +0.000 N 
ATOM      5  C   UNL     1       6.714   5.133  18.011  0.00  0.00    +0.000 C 
ATOM      6  O   UNL     1       7.175   4.062  18.398  0.00  0.00    +0.000 OA
ATOM      7  C   UNL     1       7.567   6.079  17.199  0.00  0.00    +0.000 C 
ATOM      8  S   UNL     1       6.644   7.610  17.073  0.00  0.00    +0.000 S 
ATOM      9  C   UNL     1       5.199   6.858  17.670  0.00  0.00    +0.000 C 
ATOM     10  N   UNL     1       4.090   7.483  17.609  0.00  0.00    +0.000 NA
ATOM     11  C   UNL     1       2.880   6.796  18.080  0.00  0.00    +0.000 C 
ENDROOT
BRANCH  11  12
ATOM     12  C   UNL     1       2.037   7.802  18.862  0.00  0.00    +0.000 A 
ATOM     13  C   UNL     1       1.916   7.753  20.272  0.00  0.00    +0.000 A 
ATOM     14  C   UNL     1       1.094   8.656  20.957  0.00  0.00    +0.000 A 
ATOM     15  C   UNL     1       0.434   9.614  20.217  0.00  0.00    +0.000 A 
ATOM     16  C   UNL     1       0.575   9.698  18.852  0.00  0.00    +0.000 A 
ATOM     17  C   UNL     1       1.368   8.818  18.151  0.00  0.00    +0.000 A 
ATOM     18  O   UNL     1      -0.153  10.712  18.315  0.00  0.00    +0.000 OA
ATOM     19  C   UNL     1      -0.775  11.253  19.499  0.00  0.00    +0.000 C 
ATOM     20  O   UNL     1      -0.407  10.560  20.710  0.00  0.00    +0.000 OA
ENDBRANCH  11  12
BRANCH   1  21
ATOM     21  C   UNL     1       1.957   4.849  19.440  0.00  0.00    +0.000 C 
ATOM     22  O   UNL     1       1.722   4.888  20.637  0.00  0.00    +0.000 OA
BRANCH  21  24
ATOM     23  C   UNL     1       1.156   2.846  18.510  0.00  0.00    +0.000 C 
ATOM     24  O   UNL     1       1.162   4.276  18.502  0.00  0.00    +0.000 OA
ENDBRANCH  21  24
ENDBRANCH   1  21
TORSDOF 3
ENDMDL
MODEL 6
REMARK VINA RESULT:      -6.3      4.338      7.508
REMARK  Name = 
REMARK  5 active torsions:
REMARK  status: ('A' for Active; 'I' for Inactive)
REMARK    1  A    between atoms: C_1  and  O_2
REMARK    2  A    between atoms: O_2  and  C_3
REMARK    3  A    between atoms: C_3  and  C_5
REMARK    4  A    between atoms: C_6  and  C_7
REMARK    5  A    between atoms: C_15  and  C_16
REMARK                            x       y       z     vdW  Elec       q    Type
REMARK                         _______ _______ _______ _____ _____    ______ ____
ROOT
ATOM      1  C   UNL     1      -0.033  11.444  19.684  0.00  0.00    +0.000 C 
ATOM      2  C   UNL     1      -1.275  11.884  19.998  0.00  0.00    +0.000 C 
ATOM      3  C   UNL     1      -1.615  12.716  21.212  0.00  0.00    +0.000 C 
ATOM      4  N   UNL     1      -2.320  11.554  19.121  0.00  0.00    +0.000 N 
ATOM      5  C   UNL     1      -3.632  12.006  19.224  0.00  0.00    +0.000 C 
ATOM      6  O   UNL     1      -4.105  12.745  20.085  0.00  0.00    +0.000 OA
ATOM      7  C   UNL     1      -4.488  11.538  18.071  0.00  0.00    +0.000 C 
ATOM      8  S   UNL     1      -3.537  10.286  17.211  0.00  0.00    +0.000 S 
ATOM      9  C   UNL     1      -2.092  10.707  18.074  0.00  0.00    +0.000 C 
ATOM     10  N   UNL     1      -0.972  10.223  17.702  0.00  0.00    +0.000 NA
ATOM     11  C   UNL     1       0.237  10.640  18.426  0.00  0.00    +0.000 C 
ENDROOT
BRANCH  11  12
ATOM     12  C   UNL     1       1.123   9.411  18.615  0.00  0.00    +0.000 A 
ATOM     13  C   UNL     1       2.163   9.082  17.712  0.00  0.00    +0.000 A 
ATOM     14  C   UNL     1       2.925   7.921  17.881  0.00  0.00    +0.000 A 
ATOM     15  C   UNL     1       2.653   7.126  18.974  0.00  0.00    +0.000 A 
ATOM     16  C   UNL     1       1.673   7.454  19.881  0.00  0.00    +0.000 A 
ATOM     17  C   UNL     1       0.901   8.585  19.735  0.00  0.00    +0.000 A 
ATOM     18  O   UNL     1       1.568   6.545  20.885  0.00  0.00    +0.000 OA
ATOM     19  C   UNL     1       2.590   5.602  20.503  0.00  0.00    +0.000 C 
ATOM     20  O   UNL     1       3.282   5.964  19.290  0.00  0.00    +0.000 OA
ENDBRANCH  11  12
BRANCH   1  21
ATOM     21  C   UNL     1       1.158  11.726  20.539  0.00  0.00    +0.000 C 
ATOM     22  O   UNL     1       1.358  11.224  21.634  0.00  0.00    +0.000 OA
BRANCH  21  24
ATOM     23  C   UNL     1       2.537  13.620  20.714  0.00  0.00    +0.000 C 
ATOM     24  O   UNL     1       2.001  12.574  19.899  0.00  0.00    +0.000 OA
ENDBRANCH  21  24
ENDBRANCH   1  21
TORSDOF 3
ENDMDL
MODEL 7
REMARK VINA RESULT:      -6.2      0.683      1.182
REMARK  Name = 
REMARK  5 active torsions:
REMARK  status: ('A' for Active; 'I' for Inactive)
REMARK    1  A    between atoms: C_1  and  O_2
REMARK    2  A    between atoms: O_2  and  C_3
REMARK    3  A    between atoms: C_3  and  C_5
REMARK    4  A    between atoms: C_6  and  C_7
REMARK    5  A    between atoms: C_15  and  C_16
REMARK                            x       y       z     vdW  Elec       q    Type
REMARK                         _______ _______ _______ _____ _____    ______ ____
ROOT
ATOM      1  C   UNL     1       4.563   5.351  18.808  0.00  0.00    +0.000 C 
ATOM      2  C   UNL     1       3.500   5.689  19.577  0.00  0.00    +0.000 C 
ATOM      3  C   UNL     1       3.005   4.895  20.764  0.00  0.00    +0.000 C 
ATOM      4  N   UNL     1       2.816   6.872  19.255  0.00  0.00    +0.000 N 
ATOM      5  C   UNL     1       1.776   7.429  19.993  0.00  0.00    +0.000 C 
ATOM      6  O   UNL     1       1.271   6.991  21.024  0.00  0.00    +0.000 OA
ATOM      7  C   UNL     1       1.319   8.752  19.425  0.00  0.00    +0.000 C 
ATOM      8  S   UNL     1       2.080   8.897  17.808  0.00  0.00    +0.000 S 
ATOM      9  C   UNL     1       3.145   7.565  18.124  0.00  0.00    +0.000 C 
ATOM     10  N   UNL     1       4.110   7.325  17.325  0.00  0.00    +0.000 NA
ATOM     11  C   UNL     1       5.020   6.219  17.651  0.00  0.00    +0.000 C 
ENDROOT
BRANCH  11  12
ATOM     12  C   UNL     1       5.336   5.469  16.359  0.00  0.00    +0.000 A 
ATOM     13  C   UNL     1       4.598   4.332  15.944  0.00  0.00    +0.000 A 
ATOM     14  C   UNL     1       4.944   3.634  14.782  0.00  0.00    +0.000 A 
ATOM     15  C   UNL     1       6.003   4.106  14.037  0.00  0.00    +0.000 A 
ATOM     16  C   UNL     1       6.702   5.231  14.407  0.00  0.00    +0.000 A 
ATOM     17  C   UNL     1       6.391   5.933  15.550  0.00  0.00    +0.000 A 
ATOM     18  O   UNL     1       7.702   5.531  13.537  0.00  0.00    +0.000 OA
ATOM     19  C   UNL     1       7.557   4.461  12.580  0.00  0.00    +0.000 C 
ATOM     20  O   UNL     1       6.482   3.552  12.893  0.00  0.00    +0.000 OA
ENDBRANCH  11  12
BRANCH   1  21
ATOM     21  C   UNL     1       5.366   4.115  19.047  0.00  0.00    +0.000 C 
ATOM     22  O   UNL     1       4.891   3.023  19.316  0.00  0.00    +0.000 OA
BRANCH  21  24
ATOM     23  C   UNL     1       7.199   5.448  19.666  0.00  0.00    +0.000 C 
ATOM     24  O   UNL     1       6.685   4.376  18.871  0.00  0.00    +0.000 OA
ENDBRANCH  21  24
ENDBRANCH   1  21
TORSDOF 3
ENDMDL
MODEL 8
REMARK VINA RESULT:      -6.2      8.031     10.653
REMARK  Name = 
REMARK  5 active torsions:
REMARK  status: ('A' for Active; 'I' for Inactive)
REMARK    1  A    between atoms: C_1  and  O_2
REMARK    2  A    between atoms: O_2  and  C_3
REMARK    3  A    between atoms: C_3  and  C_5
REMARK    4  A    between atoms: C_6  and  C_7
REMARK    5  A    between atoms: C_15  and  C_16
REMARK                            x       y       z     vdW  Elec       q    Type
REMARK                         _______ _______ _______ _____ _____    ______ ____
ROOT
ATOM      1  C   UNL     1      -2.758  13.126  22.279  0.00  0.00    +0.000 C 
ATOM      2  C   UNL     1      -3.923  12.784  22.880  0.00  0.00    +0.000 C 
ATOM      3  C   UNL     1      -4.098  12.567  24.365  0.00  0.00    +0.000 C 
ATOM      4  N   UNL     1      -5.054  12.634  22.063  0.00  0.00    +0.000 N 
ATOM      5  C   UNL     1      -6.348  12.393  22.513  0.00  0.00    +0.000 C 
ATOM      6  O   UNL     1      -6.724  12.258  23.676  0.00  0.00    +0.000 OA
ATOM      7  C   UNL     1      -7.351  12.373  21.384  0.00  0.00    +0.000 C 
ATOM      8  S   UNL     1      -6.400  12.321  19.865  0.00  0.00    +0.000 S 
ATOM      9  C   UNL     1      -4.929  12.701  20.704  0.00  0.00    +0.000 C 
ATOM     10  N   UNL     1      -3.882  12.996  20.039  0.00  0.00    +0.000 NA
ATOM     11  C   UNL     1      -2.668  13.359  20.783  0.00  0.00    +0.000 C 
ENDROOT
BRANCH  11  12
ATOM     12  C   UNL     1      -1.474  12.705  20.091  0.00  0.00    +0.000 A 
ATOM     13  C   UNL     1      -1.377  11.302  19.917  0.00  0.00    +0.000 A 
ATOM     14  C   UNL     1      -0.246  10.726  19.327  0.00  0.00    +0.000 A 
ATOM     15  C   UNL     1       0.752  11.570  18.890  0.00  0.00    +0.000 A 
ATOM     16  C   UNL     1       0.652  12.935  19.016  0.00  0.00    +0.000 A 
ATOM     17  C   UNL     1      -0.443  13.530  19.602  0.00  0.00    +0.000 A 
ATOM     18  O   UNL     1       1.738  13.585  18.521  0.00  0.00    +0.000 OA
ATOM     19  C   UNL     1       2.537  12.470  18.073  0.00  0.00    +0.000 C 
ATOM     20  O   UNL     1       1.918  11.189  18.306  0.00  0.00    +0.000 OA
ENDBRANCH  11  12
BRANCH   1  21
ATOM     21  C   UNL     1      -1.486  13.309  23.040  0.00  0.00    +0.000 C 
ATOM     22  O   UNL     1      -0.732  12.403  23.354  0.00  0.00    +0.000 OA
BRANCH  21  24
ATOM     23  C   UNL     1      -1.322  15.004  24.659  0.00  0.00    +0.000 C 
ATOM     24  O   UNL     1      -1.274  14.627  23.281  0.00  0.00    +0.000 OA
ENDBRANCH  21  24
ENDBRANCH   1  21
TORSDOF 3
ENDMDL
MODEL 9
REMARK VINA RESULT:      -6.2      4.543      7.961
REMARK  Name = 
REMARK  5 active torsions:
REMARK  status: ('A' for Active; 'I' for Inactive)
REMARK    1  A    between atoms: C_1  and  O_2
REMARK    2  A    between atoms: O_2  and  C_3
REMARK    3  A    between atoms: C_3  and  C_5
REMARK    4  A    between atoms: C_6  and  C_7
REMARK    5  A    between atoms: C_15  and  C_16
REMARK                            x       y       z     vdW  Elec       q    Type
REMARK                         _______ _______ _______ _____ _____    ______ ____
ROOT
ATOM      1  C   UNL     1      -0.919  11.695  20.445  0.00  0.00    +0.000 C 
ATOM      2  C   UNL     1      -2.213  12.080  20.556  0.00  0.00    +0.000 C 
ATOM      3  C   UNL     1      -2.830  12.691  21.793  0.00  0.00    +0.000 C 
ATOM      4  N   UNL     1      -3.037  11.914  19.432  0.00  0.00    +0.000 N 
ATOM      5  C   UNL     1      -4.355  12.349  19.326  0.00  0.00    +0.000 C 
ATOM      6  O   UNL     1      -5.022  12.930  20.179  0.00  0.00    +0.000 OA
ATOM      7  C   UNL     1      -4.931  12.094  17.954  0.00  0.00    +0.000 C 
ATOM      8  S   UNL     1      -3.780  11.005  17.117  0.00  0.00    +0.000 S 
ATOM      9  C   UNL     1      -2.565  11.261  18.329  0.00  0.00    +0.000 C 
ATOM     10  N   UNL     1      -1.377  10.842  18.130  0.00  0.00    +0.000 NA
ATOM     11  C   UNL     1      -0.364  11.120  19.157  0.00  0.00    +0.000 C 
ENDROOT
BRANCH  11  12
ATOM     12  C   UNL     1       0.501   9.871  19.319  0.00  0.00    +0.000 A 
ATOM     13  C   UNL     1       0.525   9.118  20.518  0.00  0.00    +0.000 A 
ATOM     14  C   UNL     1       1.366   8.008  20.656  0.00  0.00    +0.000 A 
ATOM     15  C   UNL     1       2.146   7.654  19.576  0.00  0.00    +0.000 A 
ATOM     16  C   UNL     1       2.103   8.352  18.393  0.00  0.00    +0.000 A 
ATOM     17  C   UNL     1       1.292   9.453  18.231  0.00  0.00    +0.000 A 
ATOM     18  O   UNL     1       2.942   7.838  17.455  0.00  0.00    +0.000 OA
ATOM     19  C   UNL     1       3.523   6.739  18.186  0.00  0.00    +0.000 C 
ATOM     20  O   UNL     1       3.024   6.617  19.534  0.00  0.00    +0.000 OA
ENDBRANCH  11  12
BRANCH   1  21
ATOM     21  C   UNL     1       0.053  11.816  21.572  0.00  0.00    +0.000 C 
ATOM     22  O   UNL     1      -0.061  11.251  22.648  0.00  0.00    +0.000 OA
BRANCH  21  24
ATOM     23  C   UNL     1       0.900  14.001  21.404  0.00  0.00    +0.000 C 
ATOM     24  O   UNL     1       1.098  12.599  21.203  0.00  0.00    +0.000 OA
ENDBRANCH  21  24
ENDBRANCH   1  21
TORSDOF 3
ENDMDL
