MODEL 1
REMARK VINA RESULT:      -8.1      0.000      0.000
REMARK  Name = 
REMARK  4 active torsions:
REMARK  status: ('A' for Active; 'I' for Inactive)
REMARK    1  A    between atoms: C_5  and  N_6
REMARK    2  A    between atoms: C_13  and  C_14
REMARK    3  A    between atoms: C_14  and  N_15
REMARK    4  A    between atoms: N_27  and  C_28
REMARK                            x       y       z     vdW  Elec       q    Type
REMARK                         _______ _______ _______ _____ _____    ______ ____
ROOT
ATOM      1  O   UNL     1       2.792   3.263  16.122  0.00  0.00    +0.000 OA
ATOM      2  C   UNL     1       3.685   3.918  16.659  0.00  0.00    +0.000 A 
ATOM      3  C   UNL     1       4.817   4.272  15.775  0.00  0.00    +0.000 A 
ATOM      4  C   UNL     1       5.088   3.589  14.578  0.00  0.00    +0.000 A 
ATOM      5  C   UNL     1       6.157   4.014  13.770  0.00  0.00    +0.000 A 
ATOM      6  C   UNL     1       6.918   5.131  14.130  0.00  0.00    +0.000 A 
ATOM      7  C   UNL     1       6.621   5.797  15.322  0.00  0.00    +0.000 A 
ATOM      8  C   UNL     1       5.586   5.354  16.158  0.00  0.00    +0.000 A 
ATOM      9  N   UNL     1       5.275   6.075  17.302  0.00  0.00    +0.000 NA
ATOM     10  C   UNL     1       4.354   5.653  18.125  0.00  0.00    +0.000 A 
ATOM     11  N   UNL     1       3.693   4.432  17.971  0.00  0.00    +0.000 N 
ENDROOT
BRANCH  11  12
ATOM     12  C   UNL     1       2.975   3.696  19.042  0.00  0.00    +0.000 A 
ATOM     13  C   UNL     1       3.656   3.138  20.152  0.00  0.00    +0.000 A 
ATOM     14  C   UNL     1       3.002   2.506  21.230  0.00  0.00    +0.000 A 
ATOM     15  C   UNL     1       1.624   2.396  21.254  0.00  0.00    +0.000 A 
ATOM     16  C   UNL     1       0.906   2.940  20.199  0.00  0.00    +0.000 A 
ATOM     17  C   UNL     1       1.567   3.589  19.135  0.00  0.00    +0.000 A 
ATOM     18  F   UNL     1       0.758   4.176  18.249  0.00  0.00    +0.000 F 
ENDBRANCH  11  12
BRANCH   5  19
ATOM     19  N   UNL     1       6.477   3.294  12.529  0.00  0.00    +0.000 N 
ATOM     20  O   UNL     1       7.459   3.683  11.879  0.00  0.00    +0.000 OA
ATOM     21  O   UNL     1       5.740   2.355  12.199  0.00  0.00    +0.000 OA
ENDBRANCH   5  19
BRANCH  10  22
ATOM     22  C   UNL     1       3.943   6.667  19.225  0.00  0.00    +0.000 C 
BRANCH  22  23
ATOM     23  N   UNL     1       2.493   6.942  19.181  0.00  0.00    +0.000 NA
ATOM     24  C   UNL     1       1.833   7.216  20.460  0.00  0.00    +0.000 C 
ATOM     25  C   UNL     1       1.298   8.640  20.787  0.00  0.00    +0.000 C 
ATOM     26  N   UNL     1       0.975   9.454  19.616  0.00  0.00    +0.000 N 
ATOM     27  C   UNL     1       0.294  10.664  19.717  0.00  0.00    +0.000 A 
ATOM     28  C   UNL     1      -0.254  11.138  20.911  0.00  0.00    +0.000 A 
ATOM     29  C   UNL     1      -1.055  12.282  20.918  0.00  0.00    +0.000 A 
ATOM     30  C   UNL     1      -1.301  12.953  19.733  0.00  0.00    +0.000 A 
ATOM     31  C   UNL     1      -0.695  12.467  18.595  0.00  0.00    +0.000 A 
ATOM     32  N   UNL     1       0.090  11.367  18.575  0.00  0.00    +0.000 NA
ATOM     33  C   UNL     1       1.845   9.300  18.445  0.00  0.00    +0.000 C 
ATOM     34  C   UNL     1       2.066   7.820  18.093  0.00  0.00    +0.000 C 
ENDBRANCH  22  23
ENDBRANCH  10  22
TORSDOF 4
ENDMDL
MODEL 2
REMARK VINA RESULT:      -8.0      5.287      9.691
REMARK  Name = 
REMARK  4 active torsions:
REMARK  status: ('A' for Active; 'I' for Inactive)
REMARK    1  A    between atoms: C_5  and  N_6
REMARK    2  A    between atoms: C_13  and  C_14
REMARK    3  A    between atoms: C_14  and  N_15
REMARK    4  A    between atoms: N_27  and  C_28
REMARK                            x       y       z     vdW  Elec       q    Type
REMARK                         _______ _______ _______ _____ _____    ______ ____
ROOT
ATOM      1  O   UNL     1      -1.023  14.285  19.335  0.00  0.00    +0.000 OA
ATOM      2  C   UNL     1      -0.288  13.450  18.810  0.00  0.00    +0.000 A 
ATOM      3  C   UNL     1       1.105  13.898  18.588  0.00  0.00    +0.000 A 
ATOM      4  C   UNL     1       1.472  15.253  18.563  0.00  0.00    +0.000 A 
ATOM      5  C   UNL     1       2.824  15.597  18.389  0.00  0.00    +0.000 A 
ATOM      6  C   UNL     1       3.801  14.603  18.287  0.00  0.00    +0.000 A 
ATOM      7  C   UNL     1       3.409  13.262  18.324  0.00  0.00    +0.000 A 
ATOM      8  C   UNL     1       2.059  12.907  18.450  0.00  0.00    +0.000 A 
ATOM      9  N   UNL     1       1.709  11.568  18.548  0.00  0.00    +0.000 NA
ATOM     10  C   UNL     1       0.455  11.210  18.610  0.00  0.00    +0.000 A 
ATOM     11  N   UNL     1      -0.604  12.114  18.494  0.00  0.00    +0.000 N 
ENDROOT
BRANCH  11  12
ATOM     12  C   UNL     1      -2.001  11.766  18.131  0.00  0.00    +0.000 A 
ATOM     13  C   UNL     1      -2.335  11.240  16.859  0.00  0.00    +0.000 A 
ATOM     14  C   UNL     1      -3.634  10.820  16.505  0.00  0.00    +0.000 A 
ATOM     15  C   UNL     1      -4.675  10.907  17.410  0.00  0.00    +0.000 A 
ATOM     16  C   UNL     1      -4.400  11.400  18.677  0.00  0.00    +0.000 A 
ATOM     17  C   UNL     1      -3.094  11.799  19.029  0.00  0.00    +0.000 A 
ATOM     18  F   UNL     1      -2.938  12.137  20.312  0.00  0.00    +0.000 F 
ENDBRANCH  11  12
BRANCH   5  19
ATOM     19  N   UNL     1       3.225  17.011  18.329  0.00  0.00    +0.000 N 
ATOM     20  O   UNL     1       3.619  17.539  19.379  0.00  0.00    +0.000 OA
ATOM     21  O   UNL     1       3.131  17.591  17.239  0.00  0.00    +0.000 OA
ENDBRANCH   5  19
BRANCH  10  22
ATOM     22  C   UNL     1       0.216   9.717  18.957  0.00  0.00    +0.000 C 
BRANCH  22  23
ATOM     23  N   UNL     1       1.442   9.092  19.492  0.00  0.00    +0.000 NA
ATOM     24  C   UNL     1       1.324   8.394  20.775  0.00  0.00    +0.000 C 
ATOM     25  C   UNL     1       1.441   6.845  20.849  0.00  0.00    +0.000 C 
ATOM     26  N   UNL     1       2.213   6.239  19.764  0.00  0.00    +0.000 N 
ATOM     27  C   UNL     1       2.596   4.901  19.781  0.00  0.00    +0.000 A 
ATOM     28  C   UNL     1       2.399   4.062  20.879  0.00  0.00    +0.000 A 
ATOM     29  C   UNL     1       2.940   2.774  20.893  0.00  0.00    +0.000 A 
ATOM     30  C   UNL     1       3.670   2.327  19.806  0.00  0.00    +0.000 A 
ATOM     31  C   UNL     1       3.789   3.181  18.731  0.00  0.00    +0.000 A 
ATOM     32  N   UNL     1       3.263   4.425  18.701  0.00  0.00    +0.000 NA
ATOM     33  C   UNL     1       2.083   6.855  18.438  0.00  0.00    +0.000 C 
ATOM     34  C   UNL     1       2.252   8.382  18.504  0.00  0.00    +0.000 C 
ENDBRANCH  22  23
ENDBRANCH  10  22
TORSDOF 4
ENDMDL
MODEL 3
REMARK VINA RESULT:      -8.0      0.877      1.187
REMARK  Name = 
REMARK  4 active torsions:
REMARK  status: ('A' for Active; 'I' for Inactive)
REMARK    1  A    between atoms: C_5  and  N_6
REMARK    2  A    between atoms: C_13  and  C_14
REMARK    3  A    between atoms: C_14  and  N_15
REMARK    4  A    between atoms: N_27  and  C_28
REMARK                            x       y       z     vdW  Elec       q    Type
REMARK                         _______ _______ _______ _____ _____    ______ ____
ROOT
ATOM      1  O   UNL     1       2.669   3.319  16.405  0.00  0.00    +0.000 OA
ATOM      2  C   UNL     1       3.551   4.037  16.874  0.00  0.00    +0.000 A 
ATOM      3  C   UNL     1       4.641   4.380  15.936  0.00  0.00    +0.000 A 
ATOM      4  C   UNL     1       4.903   3.638  14.772  0.00  0.00    +0.000 A 
ATOM      5  C   UNL     1       5.930   4.054  13.907  0.00  0.00    +0.000 A 
ATOM      6  C   UNL     1       6.657   5.218  14.178  0.00  0.00    +0.000 A 
ATOM      7  C   UNL     1       6.370   5.942  15.338  0.00  0.00    +0.000 A 
ATOM      8  C   UNL     1       5.379   5.511  16.231  0.00  0.00    +0.000 A 
ATOM      9  N   UNL     1       5.074   6.286  17.340  0.00  0.00    +0.000 NA
ATOM     10  C   UNL     1       4.195   5.879  18.216  0.00  0.00    +0.000 A 
ATOM     11  N   UNL     1       3.577   4.627  18.153  0.00  0.00    +0.000 N 
ENDROOT
BRANCH  11  12
ATOM     12  C   UNL     1       2.921   3.930  19.287  0.00  0.00    +0.000 A 
ATOM     13  C   UNL     1       1.520   3.987  19.491  0.00  0.00    +0.000 A 
ATOM     14  C   UNL     1       0.850   3.272  20.506  0.00  0.00    +0.000 A 
ATOM     15  C   UNL     1       1.550   2.460  21.378  0.00  0.00    +0.000 A 
ATOM     16  C   UNL     1       2.923   2.353  21.212  0.00  0.00    +0.000 A 
ATOM     17  C   UNL     1       3.583   3.056  20.182  0.00  0.00    +0.000 A 
ATOM     18  F   UNL     1       4.882   2.772  20.054  0.00  0.00    +0.000 F 
ENDBRANCH  11  12
BRANCH   5  19
ATOM     19  N   UNL     1       6.242   3.275  12.700  0.00  0.00    +0.000 N 
ATOM     20  O   UNL     1       7.352   3.449  12.178  0.00  0.00    +0.000 OA
ATOM     21  O   UNL     1       5.372   2.506  12.269  0.00  0.00    +0.000 OA
ENDBRANCH   5  19
BRANCH  10  22
ATOM     22  C   UNL     1       3.777   6.940  19.267  0.00  0.00    +0.000 C 
BRANCH  22  23
ATOM     23  N   UNL     1       2.342   7.266  19.154  0.00  0.00    +0.000 NA
ATOM     24  C   UNL     1       1.620   7.517  20.404  0.00  0.00    +0.000 C 
ATOM     25  C   UNL     1       1.114   8.946  20.755  0.00  0.00    +0.000 C 
ATOM     26  N   UNL     1       0.884   9.813  19.600  0.00  0.00    +0.000 N 
ATOM     27  C   UNL     1       0.239  11.041  19.708  0.00  0.00    +0.000 A 
ATOM     28  C   UNL     1      -0.360  11.491  20.888  0.00  0.00    +0.000 A 
ATOM     29  C   UNL     1      -1.122  12.660  20.895  0.00  0.00    +0.000 A 
ATOM     30  C   UNL     1      -1.279  13.382  19.723  0.00  0.00    +0.000 A 
ATOM     31  C   UNL     1      -0.626  12.917  18.603  0.00  0.00    +0.000 A 
ATOM     32  N   UNL     1       0.122  11.792  18.585  0.00  0.00    +0.000 NA
ATOM     33  C   UNL     1       1.814   9.671  18.473  0.00  0.00    +0.000 C 
ATOM     34  C   UNL     1       2.005   8.198  18.078  0.00  0.00    +0.000 C 
ENDBRANCH  22  23
ENDBRANCH  10  22
TORSDOF 4
ENDMDL
MODEL 4
REMARK VINA RESULT:      -8.0      5.187      9.793
REMARK  Name = 
REMARK  4 active torsions:
REMARK  status: ('A' for Active; 'I' for Inactive)
REMARK    1  A    between atoms: C_5  and  N_6
REMARK    2  A    between atoms: C_13  and  C_14
REMARK    3  A    between atoms: C_14  and  N_15
REMARK    4  A    between atoms: N_27  and  C_28
REMARK                            x       y       z     vdW  Elec       q    Type
REMARK                         _______ _______ _______ _____ _____    ______ ____
ROOT
ATOM      1  O   UNL     1      -1.259  14.255  19.704  0.00  0.00    +0.000 OA
ATOM      2  C   UNL     1      -0.547  13.469  19.080  0.00  0.00    +0.000 A 
ATOM      3  C   UNL     1       0.805  13.975  18.755  0.00  0.00    +0.000 A 
ATOM      4  C   UNL     1       1.124  15.343  18.757  0.00  0.00    +0.000 A 
ATOM      5  C   UNL     1       2.443  15.742  18.480  0.00  0.00    +0.000 A 
ATOM      6  C   UNL     1       3.439  14.788  18.248  0.00  0.00    +0.000 A 
ATOM      7  C   UNL     1       3.095  13.433  18.261  0.00  0.00    +0.000 A 
ATOM      8  C   UNL     1       1.774  13.026  18.491  0.00  0.00    +0.000 A 
ATOM      9  N   UNL     1       1.478  11.672  18.561  0.00  0.00    +0.000 NA
ATOM     10  C   UNL     1       0.247  11.267  18.718  0.00  0.00    +0.000 A 
ATOM     11  N   UNL     1      -0.847  12.136  18.735  0.00  0.00    +0.000 N 
ENDROOT
BRANCH  11  12
ATOM     12  C   UNL     1      -2.259  11.754  18.483  0.00  0.00    +0.000 A 
ATOM     13  C   UNL     1      -3.302  12.113  19.371  0.00  0.00    +0.000 A 
ATOM     14  C   UNL     1      -4.665  11.841  19.125  0.00  0.00    +0.000 A 
ATOM     15  C   UNL     1      -5.057  11.188  17.971  0.00  0.00    +0.000 A 
ATOM     16  C   UNL     1      -4.077  10.829  17.058  0.00  0.00    +0.000 A 
ATOM     17  C   UNL     1      -2.720  11.123  17.303  0.00  0.00    +0.000 A 
ATOM     18  F   UNL     1      -1.894  10.835  16.292  0.00  0.00    +0.000 F 
ENDBRANCH  11  12
BRANCH   5  19
ATOM     19  N   UNL     1       2.792  17.170  18.446  0.00  0.00    +0.000 N 
ATOM     20  O   UNL     1       3.165  17.693  19.506  0.00  0.00    +0.000 OA
ATOM     21  O   UNL     1       2.677  17.766  17.367  0.00  0.00    +0.000 OA
ENDBRANCH   5  19
BRANCH  10  22
ATOM     22  C   UNL     1       0.088   9.754  19.019  0.00  0.00    +0.000 C 
BRANCH  22  23
ATOM     23  N   UNL     1       1.363   9.165  19.475  0.00  0.00    +0.000 NA
ATOM     24  C   UNL     1       1.334   8.418  20.734  0.00  0.00    +0.000 C 
ATOM     25  C   UNL     1       1.521   6.874  20.746  0.00  0.00    +0.000 C 
ATOM     26  N   UNL     1       2.265   6.341  19.605  0.00  0.00    +0.000 N 
ATOM     27  C   UNL     1       2.705   5.021  19.556  0.00  0.00    +0.000 A 
ATOM     28  C   UNL     1       2.596   4.136  20.631  0.00  0.00    +0.000 A 
ATOM     29  C   UNL     1       3.191   2.874  20.573  0.00  0.00    +0.000 A 
ATOM     30  C   UNL     1       3.887   2.497  19.437  0.00  0.00    +0.000 A 
ATOM     31  C   UNL     1       3.919   3.392  18.391  0.00  0.00    +0.000 A 
ATOM     32  N   UNL     1       3.340   4.612  18.430  0.00  0.00    +0.000 NA
ATOM     33  C   UNL     1       2.047   6.996  18.311  0.00  0.00    +0.000 C 
ATOM     34  C   UNL     1       2.155   8.525  18.425  0.00  0.00    +0.000 C 
ENDBRANCH  22  23
ENDBRANCH  10  22
TORSDOF 4
ENDMDL
MODEL 5
REMARK VINA RESULT:      -7.6      5.389      9.867
REMARK  Name = 
REMARK  4 active torsions:
REMARK  status: ('A' for Active; 'I' for Inactive)
REMARK    1  A    between atoms: C_5  and  N_6
REMARK    2  A    between atoms: C_13  and  C_14
REMARK    3  A    between atoms: C_14  and  N_15
REMARK    4  A    between atoms: N_27  and  C_28
REMARK                            x       y       z     vdW  Elec       q    Type
REMARK                         _______ _______ _______ _____ _____    ______ ____
ROOT
ATOM      1  O   UNL     1      -1.115  15.245  19.809  0.00  0.00    +0.000 OA
ATOM      2  C   UNL     1      -0.452  14.215  19.689  0.00  0.00    +0.000 A 
ATOM      3  C   UNL     1       0.973  14.427  19.352  0.00  0.00    +0.000 A 
ATOM      4  C   UNL     1       1.452  15.624  18.796  0.00  0.00    +0.000 A 
ATOM      5  C   UNL     1       2.828  15.764  18.543  0.00  0.00    +0.000 A 
ATOM      6  C   UNL     1       3.718  14.740  18.883  0.00  0.00    +0.000 A 
ATOM      7  C   UNL     1       3.216  13.563  19.444  0.00  0.00    +0.000 A 
ATOM      8  C   UNL     1       1.841  13.395  19.657  0.00  0.00    +0.000 A 
ATOM      9  N   UNL     1       1.381  12.241  20.274  0.00  0.00    +0.000 NA
ATOM     10  C   UNL     1       0.101  12.036  20.434  0.00  0.00    +0.000 A 
ATOM     11  N   UNL     1      -0.879  12.894  19.928  0.00  0.00    +0.000 N 
ENDROOT
BRANCH  11  12
ATOM     12  C   UNL     1      -2.300  12.538  19.690  0.00  0.00    +0.000 A 
ATOM     13  C   UNL     1      -3.323  12.886  20.606  0.00  0.00    +0.000 A 
ATOM     14  C   UNL     1      -4.693  12.640  20.377  0.00  0.00    +0.000 A 
ATOM     15  C   UNL     1      -5.114  12.025  19.212  0.00  0.00    +0.000 A 
ATOM     16  C   UNL     1      -4.155  11.677  18.273  0.00  0.00    +0.000 A 
ATOM     17  C   UNL     1      -2.790  11.946  18.501  0.00  0.00    +0.000 A 
ATOM     18  F   UNL     1      -1.986  11.675  17.469  0.00  0.00    +0.000 F 
ENDBRANCH  11  12
BRANCH   5  19
ATOM     19  N   UNL     1       3.346  16.996  17.932  0.00  0.00    +0.000 N 
ATOM     20  O   UNL     1       4.471  17.380  18.285  0.00  0.00    +0.000 OA
ATOM     21  O   UNL     1       2.624  17.584  17.116  0.00  0.00    +0.000 OA
ENDBRANCH   5  19
BRANCH  10  22
ATOM     22  C   UNL     1      -0.262  10.834  21.344  0.00  0.00    +0.000 C 
BRANCH  22  23
ATOM     23  N   UNL     1      -0.335   9.580  20.568  0.00  0.00    +0.000 NA
ATOM     24  C   UNL     1       0.031   9.657  19.152  0.00  0.00    +0.000 C 
ATOM     25  C   UNL     1       1.333   8.983  18.631  0.00  0.00    +0.000 C 
ATOM     26  N   UNL     1       1.805   7.860  19.441  0.00  0.00    +0.000 N 
ATOM     27  C   UNL     1       2.825   7.015  19.017  0.00  0.00    +0.000 A 
ATOM     28  C   UNL     1       3.391   7.076  17.741  0.00  0.00    +0.000 A 
ATOM     29  C   UNL     1       4.303   6.105  17.323  0.00  0.00    +0.000 A 
ATOM     30  C   UNL     1       4.652   5.078  18.183  0.00  0.00    +0.000 A 
ATOM     31  C   UNL     1       4.100   5.097  19.445  0.00  0.00    +0.000 A 
ATOM     32  N   UNL     1       3.225   6.035  19.866  0.00  0.00    +0.000 NA
ATOM     33  C   UNL     1       1.623   7.972  20.893  0.00  0.00    +0.000 C 
ATOM     34  C   UNL     1       0.191   8.400  21.253  0.00  0.00    +0.000 C 
ENDBRANCH  22  23
ENDBRANCH  10  22
TORSDOF 4
ENDMDL
MODEL 6
REMARK VINA RESULT:      -7.5      8.278      9.946
REMARK  Name = 
REMARK  4 active torsions:
REMARK  status: ('A' for Active; 'I' for Inactive)
REMARK    1  A    between atoms: C_5  and  N_6
REMARK    2  A    between atoms: C_13  and  C_14
REMARK    3  A    between atoms: C_14  and  N_15
REMARK    4  A    between atoms: N_27  and  C_28
REMARK                            x       y       z     vdW  Elec       q    Type
REMARK                         _______ _______ _______ _____ _____    ______ ____
ROOT
ATOM      1  O   UNL     1      -0.522  14.637  18.481  0.00  0.00    +0.000 OA
ATOM      2  C   UNL     1       0.156  13.832  19.119  0.00  0.00    +0.000 A 
ATOM      3  C   UNL     1       1.522  14.292  19.451  0.00  0.00    +0.000 A 
ATOM      4  C   UNL     1       2.160  15.337  18.763  0.00  0.00    +0.000 A 
ATOM      5  C   UNL     1       3.443  15.744  19.167  0.00  0.00    +0.000 A 
ATOM      6  C   UNL     1       4.062  15.148  20.269  0.00  0.00    +0.000 A 
ATOM      7  C   UNL     1       3.401  14.117  20.942  0.00  0.00    +0.000 A 
ATOM      8  C   UNL     1       2.141  13.671  20.520  0.00  0.00    +0.000 A 
ATOM      9  N   UNL     1       1.484  12.690  21.247  0.00  0.00    +0.000 NA
ATOM     10  C   UNL     1       0.335  12.218  20.844  0.00  0.00    +0.000 A 
ATOM     11  N   UNL     1      -0.260  12.589  19.634  0.00  0.00    +0.000 N 
ENDROOT
BRANCH  11  12
ATOM     12  C   UNL     1      -1.304  11.818  18.914  0.00  0.00    +0.000 A 
ATOM     13  C   UNL     1      -0.989  10.675  18.139  0.00  0.00    +0.000 A 
ATOM     14  C   UNL     1      -1.960   9.868  17.508  0.00  0.00    +0.000 A 
ATOM     15  C   UNL     1      -3.305  10.167  17.618  0.00  0.00    +0.000 A 
ATOM     16  C   UNL     1      -3.671  11.266  18.380  0.00  0.00    +0.000 A 
ATOM     17  C   UNL     1      -2.695  12.055  19.023  0.00  0.00    +0.000 A 
ATOM     18  F   UNL     1      -3.184  13.008  19.823  0.00  0.00    +0.000 F 
ENDBRANCH  11  12
BRANCH   5  19
ATOM     19  N   UNL     1       4.142  16.815  18.440  0.00  0.00    +0.000 N 
ATOM     20  O   UNL     1       5.223  17.208  18.901  0.00  0.00    +0.000 OA
ATOM     21  O   UNL     1       3.602  17.270  17.423  0.00  0.00    +0.000 OA
ENDBRANCH   5  19
BRANCH  10  22
ATOM     22  C   UNL     1      -0.397  11.311  21.866  0.00  0.00    +0.000 C 
BRANCH  22  23
ATOM     23  N   UNL     1      -0.967  12.105  22.972  0.00  0.00    +0.000 NA
ATOM     24  C   UNL     1      -0.839  13.561  22.875  0.00  0.00    +0.000 C 
ATOM     25  C   UNL     1      -2.090  14.454  22.631  0.00  0.00    +0.000 C 
ATOM     26  N   UNL     1      -3.354  13.866  23.074  0.00  0.00    +0.000 N 
ATOM     27  C   UNL     1      -4.536  14.599  23.127  0.00  0.00    +0.000 A 
ATOM     28  C   UNL     1      -4.595  15.975  22.896  0.00  0.00    +0.000 A 
ATOM     29  C   UNL     1      -5.781  16.680  23.113  0.00  0.00    +0.000 A 
ATOM     30  C   UNL     1      -6.907  16.005  23.553  0.00  0.00    +0.000 A 
ATOM     31  C   UNL     1      -6.802  14.642  23.717  0.00  0.00    +0.000 A 
ATOM     32  N   UNL     1      -5.664  13.947  23.502  0.00  0.00    +0.000 NA
ATOM     33  C   UNL     1      -3.502  12.416  22.906  0.00  0.00    +0.000 C 
ATOM     34  C   UNL     1      -2.277  11.656  23.441  0.00  0.00    +0.000 C 
ENDBRANCH  22  23
ENDBRANCH  10  22
TORSDOF 4
ENDMDL
MODEL 7
REMARK VINA RESULT:      -7.4      5.496      9.792
REMARK  Name = 
REMARK  4 active torsions:
REMARK  status: ('A' for Active; 'I' for Inactive)
REMARK    1  A    between atoms: C_5  and  N_6
REMARK    2  A    between atoms: C_13  and  C_14
REMARK    3  A    between atoms: C_14  and  N_15
REMARK    4  A    between atoms: N_27  and  C_28
REMARK                            x       y       z     vdW  Elec       q    Type
REMARK                         _______ _______ _______ _____ _____    ______ ____
ROOT
ATOM      1  O   UNL     1       1.860  14.087  22.065  0.00  0.00    +0.000 OA
ATOM      2  C   UNL     1       1.670  13.704  20.911  0.00  0.00    +0.000 A 
ATOM      3  C   UNL     1       2.562  14.311  19.898  0.00  0.00    +0.000 A 
ATOM      4  C   UNL     1       3.260  15.509  20.122  0.00  0.00    +0.000 A 
ATOM      5  C   UNL     1       4.122  16.000  19.126  0.00  0.00    +0.000 A 
ATOM      6  C   UNL     1       4.319  15.282  17.942  0.00  0.00    +0.000 A 
ATOM      7  C   UNL     1       3.619  14.087  17.750  0.00  0.00    +0.000 A 
ATOM      8  C   UNL     1       2.722  13.613  18.716  0.00  0.00    +0.000 A 
ATOM      9  N   UNL     1       2.092  12.392  18.523  0.00  0.00    +0.000 NA
ATOM     10  C   UNL     1       1.210  11.955  19.382  0.00  0.00    +0.000 A 
ATOM     11  N   UNL     1       0.778  12.702  20.481  0.00  0.00    +0.000 N 
ENDROOT
BRANCH  11  12
ATOM     12  C   UNL     1      -0.482  12.481  21.234  0.00  0.00    +0.000 A 
ATOM     13  C   UNL     1      -0.550  11.590  22.333  0.00  0.00    +0.000 A 
ATOM     14  C   UNL     1      -1.704  11.416  23.126  0.00  0.00    +0.000 A 
ATOM     15  C   UNL     1      -2.859  12.126  22.856  0.00  0.00    +0.000 A 
ATOM     16  C   UNL     1      -2.842  13.026  21.801  0.00  0.00    +0.000 A 
ATOM     17  C   UNL     1      -1.678  13.209  21.027  0.00  0.00    +0.000 A 
ATOM     18  F   UNL     1      -1.755  14.190  20.123  0.00  0.00    +0.000 F 
ENDBRANCH  11  12
BRANCH   5  19
ATOM     19  N   UNL     1       4.837  17.268  19.326  0.00  0.00    +0.000 N 
ATOM     20  O   UNL     1       5.865  17.457  18.658  0.00  0.00    +0.000 OA
ATOM     21  O   UNL     1       4.382  18.063  20.159  0.00  0.00    +0.000 OA
ENDBRANCH   5  19
BRANCH  10  22
ATOM     22  C   UNL     1       0.766  10.484  19.173  0.00  0.00    +0.000 C 
BRANCH  22  23
ATOM     23  N   UNL     1       1.805   9.543  19.637  0.00  0.00    +0.000 NA
ATOM     24  C   UNL     1       1.533   8.817  20.880  0.00  0.00    +0.000 C 
ATOM     25  C   UNL     1       1.263   7.285  20.861  0.00  0.00    +0.000 C 
ATOM     26  N   UNL     1       1.846   6.576  19.722  0.00  0.00    +0.000 N 
ATOM     27  C   UNL     1       1.885   5.187  19.652  0.00  0.00    +0.000 A 
ATOM     28  C   UNL     1       1.501   4.355  20.705  0.00  0.00    +0.000 A 
ATOM     29  C   UNL     1       1.705   2.976  20.631  0.00  0.00    +0.000 A 
ATOM     30  C   UNL     1       2.288   2.431  19.499  0.00  0.00    +0.000 A 
ATOM     31  C   UNL     1       2.601   3.294  18.472  0.00  0.00    +0.000 A 
ATOM     32  N   UNL     1       2.400   4.629  18.528  0.00  0.00    +0.000 NA
ATOM     33  C   UNL     1       1.856   7.287  18.438  0.00  0.00    +0.000 C 
ATOM     34  C   UNL     1       2.401   8.717  18.587  0.00  0.00    +0.000 C 
ENDBRANCH  22  23
ENDBRANCH  10  22
TORSDOF 4
ENDMDL
MODEL 8
REMARK VINA RESULT:      -7.3      5.512      9.889
REMARK  Name = 
REMARK  4 active torsions:
REMARK  status: ('A' for Active; 'I' for Inactive)
REMARK    1  A    between atoms: C_5  and  N_6
REMARK    2  A    between atoms: C_13  and  C_14
REMARK    3  A    between atoms: C_14  and  N_15
REMARK    4  A    between atoms: N_27  and  C_28
REMARK                            x       y       z     vdW  Elec       q    Type
REMARK                         _______ _______ _______ _____ _____    ______ ____
ROOT
ATOM      1  O   UNL     1      -1.014  15.277  19.575  0.00  0.00    +0.000 OA
ATOM      2  C   UNL     1      -0.349  14.242  19.548  0.00  0.00    +0.000 A 
ATOM      3  C   UNL     1       1.104  14.439  19.351  0.00  0.00    +0.000 A 
ATOM      4  C   UNL     1       1.644  15.620  18.817  0.00  0.00    +0.000 A 
ATOM      5  C   UNL     1       3.040  15.747  18.702  0.00  0.00    +0.000 A 
ATOM      6  C   UNL     1       3.884  14.729  19.154  0.00  0.00    +0.000 A 
ATOM      7  C   UNL     1       3.319  13.568  19.690  0.00  0.00    +0.000 A 
ATOM      8  C   UNL     1       1.929  13.411  19.767  0.00  0.00    +0.000 A 
ATOM      9  N   UNL     1       1.401  12.275  20.363  0.00  0.00    +0.000 NA
ATOM     10  C   UNL     1       0.110  12.080  20.397  0.00  0.00    +0.000 A 
ATOM     11  N   UNL     1      -0.808  12.929  19.774  0.00  0.00    +0.000 N 
ENDROOT
BRANCH  11  12
ATOM     12  C   UNL     1      -2.200  12.573  19.402  0.00  0.00    +0.000 A 
ATOM     13  C   UNL     1      -2.500  11.876  18.206  0.00  0.00    +0.000 A 
ATOM     14  C   UNL     1      -3.798  11.447  17.858  0.00  0.00    +0.000 A 
ATOM     15  C   UNL     1      -4.872  11.697  18.693  0.00  0.00    +0.000 A 
ATOM     16  C   UNL     1      -4.632  12.362  19.886  0.00  0.00    +0.000 A 
ATOM     17  C   UNL     1      -3.327  12.770  20.235  0.00  0.00    +0.000 A 
ATOM     18  F   UNL     1      -3.212  13.288  21.462  0.00  0.00    +0.000 F 
ENDBRANCH  11  12
BRANCH   5  19
ATOM     19  N   UNL     1       3.625  16.962  18.116  0.00  0.00    +0.000 N 
ATOM     20  O   UNL     1       3.049  17.461  17.139  0.00  0.00    +0.000 OA
ATOM     21  O   UNL     1       4.666  17.403  18.622  0.00  0.00    +0.000 OA
ENDBRANCH   5  19
BRANCH  10  22
ATOM     22  C   UNL     1      -0.351  10.902  21.296  0.00  0.00    +0.000 C 
BRANCH  22  23
ATOM     23  N   UNL     1      -0.393   9.637  20.536  0.00  0.00    +0.000 NA
ATOM     24  C   UNL     1      -0.023   9.703  19.120  0.00  0.00    +0.000 C 
ATOM     25  C   UNL     1       1.297   9.053  18.614  0.00  0.00    +0.000 C 
ATOM     26  N   UNL     1       1.791   7.952  19.440  0.00  0.00    +0.000 N 
ATOM     27  C   UNL     1       2.832   7.124  19.031  0.00  0.00    +0.000 A 
ATOM     28  C   UNL     1       3.401   7.181  17.757  0.00  0.00    +0.000 A 
ATOM     29  C   UNL     1       4.337   6.226  17.355  0.00  0.00    +0.000 A 
ATOM     30  C   UNL     1       4.706   5.219  18.231  0.00  0.00    +0.000 A 
ATOM     31  C   UNL     1       4.149   5.242  19.490  0.00  0.00    +0.000 A 
ATOM     32  N   UNL     1       3.250   6.166  19.895  0.00  0.00    +0.000 NA
ATOM     33  C   UNL     1       1.601   8.079  20.890  0.00  0.00    +0.000 C 
ATOM     34  C   UNL     1       0.158   8.479  21.239  0.00  0.00    +0.000 C 
ENDBRANCH  22  23
ENDBRANCH  10  22
TORSDOF 4
ENDMDL
MODEL 9
REMARK VINA RESULT:      -7.3      5.477     10.270
REMARK  Name = 
REMARK  4 active torsions:
REMARK  status: ('A' for Active; 'I' for Inactive)
REMARK    1  A    between atoms: C_5  and  N_6
REMARK    2  A    between atoms: C_13  and  C_14
REMARK    3  A    between atoms: C_14  and  N_15
REMARK    4  A    between atoms: N_27  and  C_28
REMARK                            x       y       z     vdW  Elec       q    Type
REMARK                         _______ _______ _______ _____ _____    ______ ____
ROOT
ATOM      1  O   UNL     1      -0.819  15.559  21.481  0.00  0.00    +0.000 OA
ATOM      2  C   UNL     1      -0.453  14.543  20.893  0.00  0.00    +0.000 A 
ATOM      3  C   UNL     1       0.597  14.756  19.873  0.00  0.00    +0.000 A 
ATOM      4  C   UNL     1       0.858  16.013  19.304  0.00  0.00    +0.000 A 
ATOM      5  C   UNL     1       1.901  16.144  18.371  0.00  0.00    +0.000 A 
ATOM      6  C   UNL     1       2.701  15.044  18.045  0.00  0.00    +0.000 A 
ATOM      7  C   UNL     1       2.425  13.807  18.633  0.00  0.00    +0.000 A 
ATOM      8  C   UNL     1       1.358  13.655  19.529  0.00  0.00    +0.000 A 
ATOM      9  N   UNL     1       1.150  12.430  20.144  0.00  0.00    +0.000 NA
ATOM     10  C   UNL     1       0.131  12.247  20.939  0.00  0.00    +0.000 A 
ATOM     11  N   UNL     1      -0.853  13.217  21.154  0.00  0.00    +0.000 N 
ENDROOT
BRANCH  11  12
ATOM     12  C   UNL     1      -2.219  12.961  21.675  0.00  0.00    +0.000 A 
ATOM     13  C   UNL     1      -2.514  13.015  23.059  0.00  0.00    +0.000 A 
ATOM     14  C   UNL     1      -3.814  12.860  23.586  0.00  0.00    +0.000 A 
ATOM     15  C   UNL     1      -4.893  12.639  22.750  0.00  0.00    +0.000 A 
ATOM     16  C   UNL     1      -4.662  12.594  21.383  0.00  0.00    +0.000 A 
ATOM     17  C   UNL     1      -3.363  12.770  20.864  0.00  0.00    +0.000 A 
ATOM     18  F   UNL     1      -3.296  12.827  19.531  0.00  0.00    +0.000 F 
ENDBRANCH  11  12
BRANCH   5  19
ATOM     19  N   UNL     1       2.171  17.444  17.740  0.00  0.00    +0.000 N 
ATOM     20  O   UNL     1       1.654  18.447  18.253  0.00  0.00    +0.000 OA
ATOM     21  O   UNL     1       2.883  17.457  16.727  0.00  0.00    +0.000 OA
ENDBRANCH   5  19
BRANCH  10  22
ATOM     22  C   UNL     1       0.153  10.920  21.740  0.00  0.00    +0.000 C 
BRANCH  22  23
ATOM     23  N   UNL     1      -0.097   9.762  20.859  0.00  0.00    +0.000 NA
ATOM     24  C   UNL     1       0.315   9.894  19.460  0.00  0.00    +0.000 C 
ATOM     25  C   UNL     1       1.507   9.066  18.902  0.00  0.00    +0.000 C 
ATOM     26  N   UNL     1       1.773   7.819  19.620  0.00  0.00    +0.000 N 
ATOM     27  C   UNL     1       2.658   6.858  19.139  0.00  0.00    +0.000 A 
ATOM     28  C   UNL     1       3.260   6.932  17.881  0.00  0.00    +0.000 A 
ATOM     29  C   UNL     1       4.017   5.865  17.394  0.00  0.00    +0.000 A 
ATOM     30  C   UNL     1       4.176   4.729  18.169  0.00  0.00    +0.000 A 
ATOM     31  C   UNL     1       3.600   4.733  19.420  0.00  0.00    +0.000 A 
ATOM     32  N   UNL     1       2.873   5.762  19.907  0.00  0.00    +0.000 NA
ATOM     33  C   UNL     1       1.572   7.840  21.073  0.00  0.00    +0.000 C 
ATOM     34  C   UNL     1       0.216   8.461  21.448  0.00  0.00    +0.000 C 
ENDBRANCH  22  23
ENDBRANCH  10  22
TORSDOF 4
ENDMDL
