MODEL 1
REMARK VINA RESULT:      -6.9      0.000      0.000
REMARK  Name = 
REMARK  4 active torsions:
REMARK  status: ('A' for Active; 'I' for Inactive)
REMARK    1  A    between atoms: C_1  and  S_2
REMARK    2  A    between atoms: S_2  and  C_3
REMARK    3  A    between atoms: C_9  and  C_10
REMARK    4  A    between atoms: N_13  and  C_14
REMARK                            x       y       z     vdW  Elec       q    Type
REMARK                         _______ _______ _______ _____ _____    ______ ____
ROOT
ATOM      1  C   UNL     1       2.407   3.327  18.524  0.00  0.00    +0.000 A 
ATOM      2  C   UNL     1       3.497   2.866  17.780  0.00  0.00    +0.000 A 
ATOM      3  C   UNL     1       4.380   3.756  17.155  0.00  0.00    +0.000 A 
ATOM      4  C   UNL     1       4.127   5.126  17.298  0.00  0.00    +0.000 A 
ATOM      5  N   UNL     1       4.814   6.211  16.808  0.00  0.00    +0.000 N 
ATOM      6  C   UNL     1       4.207   7.379  17.203  0.00  0.00    +0.000 A 
ATOM      7  C   UNL     1       3.108   7.041  17.953  0.00  0.00    +0.000 A 
ATOM      8  C   UNL     1       3.041   5.618  18.024  0.00  0.00    +0.000 A 
ATOM      9  C   UNL     1       2.164   4.700  18.637  0.00  0.00    +0.000 A 
ATOM     10  H   UNL     1       5.652   6.155  16.242  0.00  0.00    +0.000 HD
ENDROOT
BRANCH   7  11
ATOM     11  C   UNL     1       2.222   7.979  18.563  0.00  0.00    +0.000 C 
ATOM     12  C   UNL     1       1.624   8.971  17.892  0.00  0.00    +0.000 C 
ATOM     13  C   UNL     1       0.711   9.974  18.512  0.00  0.00    +0.000 C 
ATOM     14  N   UNL     1       0.572   9.954  19.961  0.00  0.00    +0.000 NA
ATOM     15  C   UNL     1       0.966  11.195  20.602  0.00  0.00    +0.000 C 
ATOM     16  C   UNL     1       1.000   8.755  20.679  0.00  0.00    +0.000 C 
ATOM     17  C   UNL     1       2.008   7.787  20.032  0.00  0.00    +0.000 C 
ENDBRANCH   7  11
BRANCH   1  19
ATOM     18  C   UNL     1       1.266   2.810  20.973  0.00  0.00    +0.000 C 
ATOM     19  S   UNL     1       1.313   2.138  19.290  0.00  0.00    +0.000 S 
ENDBRANCH   1  19
TORSDOF 2
ENDMDL
MODEL 2
REMARK VINA RESULT:      -6.9      0.600      1.307
REMARK  Name = 
REMARK  4 active torsions:
REMARK  status: ('A' for Active; 'I' for Inactive)
REMARK    1  A    between atoms: C_1  and  S_2
REMARK    2  A    between atoms: S_2  and  C_3
REMARK    3  A    between atoms: C_9  and  C_10
REMARK    4  A    between atoms: N_13  and  C_14
REMARK                            x       y       z     vdW  Elec       q    Type
REMARK                         _______ _______ _______ _____ _____    ______ ____
ROOT
ATOM      1  C   UNL     1       2.163   3.350  18.570  0.00  0.00    +0.000 A 
ATOM      2  C   UNL     1       3.182   2.799  17.789  0.00  0.00    +0.000 A 
ATOM      3  C   UNL     1       4.116   3.610  17.133  0.00  0.00    +0.000 A 
ATOM      4  C   UNL     1       3.988   4.996  17.283  0.00  0.00    +0.000 A 
ATOM      5  N   UNL     1       4.748   6.019  16.768  0.00  0.00    +0.000 N 
ATOM      6  C   UNL     1       4.258   7.234  17.184  0.00  0.00    +0.000 A 
ATOM      7  C   UNL     1       3.161   6.991  17.973  0.00  0.00    +0.000 A 
ATOM      8  C   UNL     1       2.974   5.579  18.047  0.00  0.00    +0.000 A 
ATOM      9  C   UNL     1       2.043   4.739  18.691  0.00  0.00    +0.000 A 
ATOM     10  H   UNL     1       5.557   5.892  16.173  0.00  0.00    +0.000 HD
ENDROOT
BRANCH   7  11
ATOM     11  C   UNL     1       2.382   8.000  18.613  0.00  0.00    +0.000 C 
ATOM     12  C   UNL     1       1.940   7.901  19.873  0.00  0.00    +0.000 C 
ATOM     13  C   UNL     1       1.108   8.933  20.555  0.00  0.00    +0.000 C 
ATOM     14  N   UNL     1       0.632  10.053  19.754  0.00  0.00    +0.000 NA
ATOM     15  C   UNL     1      -0.814  10.161  19.705  0.00  0.00    +0.000 C 
ATOM     16  C   UNL     1       1.289  10.315  18.475  0.00  0.00    +0.000 C 
ATOM     17  C   UNL     1       2.072   9.195  17.766  0.00  0.00    +0.000 C 
ENDBRANCH   7  11
BRANCH   1  19
ATOM     18  C   UNL     1       1.309   2.705  21.105  0.00  0.00    +0.000 C 
ATOM     19  S   UNL     1       0.999   2.258  19.377  0.00  0.00    +0.000 S 
ENDBRANCH   1  19
TORSDOF 2
ENDMDL
MODEL 3
REMARK VINA RESULT:      -6.7      3.937      6.041
REMARK  Name = 
REMARK  4 active torsions:
REMARK  status: ('A' for Active; 'I' for Inactive)
REMARK    1  A    between atoms: C_1  and  S_2
REMARK    2  A    between atoms: S_2  and  C_3
REMARK    3  A    between atoms: C_9  and  C_10
REMARK    4  A    between atoms: N_13  and  C_14
REMARK                            x       y       z     vdW  Elec       q    Type
REMARK                         _______ _______ _______ _____ _____    ______ ____
ROOT
ATOM      1  C   UNL     1       5.975   3.523  12.719  0.00  0.00    +0.000 A 
ATOM      2  C   UNL     1       7.165   4.205  12.448  0.00  0.00    +0.000 A 
ATOM      3  C   UNL     1       7.746   5.059  13.393  0.00  0.00    +0.000 A 
ATOM      4  C   UNL     1       7.088   5.210  14.620  0.00  0.00    +0.000 A 
ATOM      5  N   UNL     1       7.422   5.966  15.718  0.00  0.00    +0.000 N 
ATOM      6  C   UNL     1       6.484   5.806  16.711  0.00  0.00    +0.000 A 
ATOM      7  C   UNL     1       5.527   4.940  16.241  0.00  0.00    +0.000 A 
ATOM      8  C   UNL     1       5.893   4.552  14.918  0.00  0.00    +0.000 A 
ATOM      9  C   UNL     1       5.326   3.703  13.945  0.00  0.00    +0.000 A 
ATOM     10  H   UNL     1       8.245   6.550  15.787  0.00  0.00    +0.000 HD
ENDROOT
BRANCH   7  11
ATOM     11  C   UNL     1       4.390   4.505  16.985  0.00  0.00    +0.000 C 
ATOM     12  C   UNL     1       3.464   5.342  17.471  0.00  0.00    +0.000 C 
ATOM     13  C   UNL     1       2.279   4.912  18.268  0.00  0.00    +0.000 C 
ATOM     14  N   UNL     1       2.201   3.511  18.657  0.00  0.00    +0.000 NA
ATOM     15  C   UNL     1       2.159   3.306  20.093  0.00  0.00    +0.000 C 
ATOM     16  C   UNL     1       3.041   2.549  17.947  0.00  0.00    +0.000 C 
ATOM     17  C   UNL     1       4.302   3.027  17.203  0.00  0.00    +0.000 C 
ENDBRANCH   7  11
BRANCH   1  19
ATOM     18  C   UNL     1       3.803   3.406  11.035  0.00  0.00    +0.000 C 
ATOM     19  S   UNL     1       5.282   2.452  11.466  0.00  0.00    +0.000 S 
ENDBRANCH   1  19
TORSDOF 2
ENDMDL
MODEL 4
REMARK VINA RESULT:      -6.6      3.951      6.162
REMARK  Name = 
REMARK  4 active torsions:
REMARK  status: ('A' for Active; 'I' for Inactive)
REMARK    1  A    between atoms: C_1  and  S_2
REMARK    2  A    between atoms: S_2  and  C_3
REMARK    3  A    between atoms: C_9  and  C_10
REMARK    4  A    between atoms: N_13  and  C_14
REMARK                            x       y       z     vdW  Elec       q    Type
REMARK                         _______ _______ _______ _____ _____    ______ ____
ROOT
ATOM      1  C   UNL     1       5.913   3.482  12.662  0.00  0.00    +0.000 A 
ATOM      2  C   UNL     1       7.065   4.177  12.285  0.00  0.00    +0.000 A 
ATOM      3  C   UNL     1       7.724   5.034  13.176  0.00  0.00    +0.000 A 
ATOM      4  C   UNL     1       7.182   5.173  14.460  0.00  0.00    +0.000 A 
ATOM      5  N   UNL     1       7.609   5.927  15.526  0.00  0.00    +0.000 N 
ATOM      6  C   UNL     1       6.769   5.754  16.601  0.00  0.00    +0.000 A 
ATOM      7  C   UNL     1       5.782   4.880  16.218  0.00  0.00    +0.000 A 
ATOM      8  C   UNL     1       6.027   4.501  14.865  0.00  0.00    +0.000 A 
ATOM      9  C   UNL     1       5.380   3.651  13.945  0.00  0.00    +0.000 A 
ATOM     10  H   UNL     1       8.429   6.520  15.521  0.00  0.00    +0.000 HD
ENDROOT
BRANCH   7  11
ATOM     11  C   UNL     1       4.724   4.430  17.062  0.00  0.00    +0.000 C 
ATOM     12  C   UNL     1       4.578   3.155  17.446  0.00  0.00    +0.000 C 
ATOM     13  C   UNL     1       3.470   2.659  18.311  0.00  0.00    +0.000 C 
ATOM     14  N   UNL     1       2.405   3.595  18.645  0.00  0.00    +0.000 NA
ATOM     15  C   UNL     1       1.091   3.167  18.199  0.00  0.00    +0.000 C 
ATOM     16  C   UNL     1       2.657   5.022  18.458  0.00  0.00    +0.000 C 
ATOM     17  C   UNL     1       3.760   5.492  17.492  0.00  0.00    +0.000 C 
ENDBRANCH   7  11
BRANCH   1  19
ATOM     18  C   UNL     1       3.717   3.462  11.005  0.00  0.00    +0.000 C 
ATOM     19  S   UNL     1       5.117   2.409  11.474  0.00  0.00    +0.000 S 
ENDBRANCH   1  19
TORSDOF 2
ENDMDL
MODEL 5
REMARK VINA RESULT:      -6.5      4.238      5.793
REMARK  Name = 
REMARK  4 active torsions:
REMARK  status: ('A' for Active; 'I' for Inactive)
REMARK    1  A    between atoms: C_1  and  S_2
REMARK    2  A    between atoms: S_2  and  C_3
REMARK    3  A    between atoms: C_9  and  C_10
REMARK    4  A    between atoms: N_13  and  C_14
REMARK                            x       y       z     vdW  Elec       q    Type
REMARK                         _______ _______ _______ _____ _____    ______ ____
ROOT
ATOM      1  C   UNL     1       5.615   3.920  13.445  0.00  0.00    +0.000 A 
ATOM      2  C   UNL     1       6.910   4.433  13.332  0.00  0.00    +0.000 A 
ATOM      3  C   UNL     1       7.618   4.876  14.456  0.00  0.00    +0.000 A 
ATOM      4  C   UNL     1       6.979   4.792  15.698  0.00  0.00    +0.000 A 
ATOM      5  N   UNL     1       7.424   5.143  16.951  0.00  0.00    +0.000 N 
ATOM      6  C   UNL     1       6.457   4.880  17.892  0.00  0.00    +0.000 A 
ATOM      7  C   UNL     1       5.370   4.359  17.234  0.00  0.00    +0.000 A 
ATOM      8  C   UNL     1       5.682   4.296  15.844  0.00  0.00    +0.000 A 
ATOM      9  C   UNL     1       4.989   3.863  14.695  0.00  0.00    +0.000 A 
ATOM     10  H   UNL     1       8.336   5.533  17.150  0.00  0.00    +0.000 HD
ENDROOT
BRANCH   7  11
ATOM     11  C   UNL     1       4.162   3.939  17.868  0.00  0.00    +0.000 C 
ATOM     12  C   UNL     1       2.943   4.264  17.419  0.00  0.00    +0.000 C 
ATOM     13  C   UNL     1       1.669   3.855  18.076  0.00  0.00    +0.000 C 
ATOM     14  N   UNL     1       1.761   3.175  19.361  0.00  0.00    +0.000 NA
ATOM     15  C   UNL     1       1.086   3.873  20.440  0.00  0.00    +0.000 C 
ATOM     16  C   UNL     1       3.047   2.596  19.745  0.00  0.00    +0.000 C 
ATOM     17  C   UNL     1       4.347   3.106  19.098  0.00  0.00    +0.000 C 
ENDBRANCH   7  11
BRANCH   1  19
ATOM     18  C   UNL     1       5.810   1.970  11.514  0.00  0.00    +0.000 C 
ATOM     19  S   UNL     1       4.763   3.378  11.969  0.00  0.00    +0.000 S 
ENDBRANCH   1  19
TORSDOF 2
ENDMDL
MODEL 6
REMARK VINA RESULT:      -6.5      3.890      5.598
REMARK  Name = 
REMARK  4 active torsions:
REMARK  status: ('A' for Active; 'I' for Inactive)
REMARK    1  A    between atoms: C_1  and  S_2
REMARK    2  A    between atoms: S_2  and  C_3
REMARK    3  A    between atoms: C_9  and  C_10
REMARK    4  A    between atoms: N_13  and  C_14
REMARK                            x       y       z     vdW  Elec       q    Type
REMARK                         _______ _______ _______ _____ _____    ______ ____
ROOT
ATOM      1  C   UNL     1       5.763   4.206  14.584  0.00  0.00    +0.000 A 
ATOM      2  C   UNL     1       7.026   4.805  14.574  0.00  0.00    +0.000 A 
ATOM      3  C   UNL     1       7.601   5.311  15.746  0.00  0.00    +0.000 A 
ATOM      4  C   UNL     1       6.862   5.199  16.930  0.00  0.00    +0.000 A 
ATOM      5  N   UNL     1       7.171   5.595  18.210  0.00  0.00    +0.000 N 
ATOM      6  C   UNL     1       6.145   5.277  19.069  0.00  0.00    +0.000 A 
ATOM      7  C   UNL     1       5.158   4.674  18.329  0.00  0.00    +0.000 A 
ATOM      8  C   UNL     1       5.594   4.615  16.973  0.00  0.00    +0.000 A 
ATOM      9  C   UNL     1       5.036   4.121  15.776  0.00  0.00    +0.000 A 
ATOM     10  H   UNL     1       8.033   6.050  18.480  0.00  0.00    +0.000 HD
ENDROOT
BRANCH   7  11
ATOM     11  C   UNL     1       3.931   4.179  18.864  0.00  0.00    +0.000 C 
ATOM     12  C   UNL     1       2.941   4.973  19.293  0.00  0.00    +0.000 C 
ATOM     13  C   UNL     1       1.660   4.479  19.873  0.00  0.00    +0.000 C 
ATOM     14  N   UNL     1       1.536   3.049  20.115  0.00  0.00    +0.000 NA
ATOM     15  C   UNL     1       1.296   2.710  21.506  0.00  0.00    +0.000 C 
ATOM     16  C   UNL     1       2.472   2.152  19.441  0.00  0.00    +0.000 C 
ATOM     17  C   UNL     1       3.821   2.688  18.927  0.00  0.00    +0.000 C 
ENDBRANCH   7  11
BRANCH   1  19
ATOM     18  C   UNL     1       6.604   3.458  12.073  0.00  0.00    +0.000 C 
ATOM     19  S   UNL     1       5.083   3.586  13.051  0.00  0.00    +0.000 S 
ENDBRANCH   1  19
TORSDOF 2
ENDMDL
MODEL 7
REMARK VINA RESULT:      -6.4      2.705      6.081
REMARK  Name = 
REMARK  4 active torsions:
REMARK  status: ('A' for Active; 'I' for Inactive)
REMARK    1  A    between atoms: C_1  and  S_2
REMARK    2  A    between atoms: S_2  and  C_3
REMARK    3  A    between atoms: C_9  and  C_10
REMARK    4  A    between atoms: N_13  and  C_14
REMARK                            x       y       z     vdW  Elec       q    Type
REMARK                         _______ _______ _______ _____ _____    ______ ____
ROOT
ATOM      1  C   UNL     1       0.545   9.406  21.495  0.00  0.00    +0.000 A 
ATOM      2  C   UNL     1       0.310  10.506  20.666  0.00  0.00    +0.000 A 
ATOM      3  C   UNL     1       0.763  10.530  19.341  0.00  0.00    +0.000 A 
ATOM      4  C   UNL     1       1.465   9.411  18.877  0.00  0.00    +0.000 A 
ATOM      5  N   UNL     1       2.014   9.157  17.643  0.00  0.00    +0.000 N 
ATOM      6  C   UNL     1       2.610   7.918  17.631  0.00  0.00    +0.000 A 
ATOM      7  C   UNL     1       2.449   7.369  18.879  0.00  0.00    +0.000 A 
ATOM      8  C   UNL     1       1.726   8.300  19.682  0.00  0.00    +0.000 A 
ATOM      9  C   UNL     1       1.265   8.306  21.015  0.00  0.00    +0.000 A 
ATOM     10  H   UNL     1       1.977   9.791  16.855  0.00  0.00    +0.000 HD
ENDROOT
BRANCH   7  11
ATOM     11  C   UNL     1       2.915   6.077  19.264  0.00  0.00    +0.000 C 
ATOM     12  C   UNL     1       4.152   5.633  19.006  0.00  0.00    +0.000 C 
ATOM     13  C   UNL     1       4.654   4.280  19.380  0.00  0.00    +0.000 C 
ATOM     14  N   UNL     1       3.696   3.335  19.937  0.00  0.00    +0.000 NA
ATOM     15  C   UNL     1       3.555   2.119  19.157  0.00  0.00    +0.000 C 
ATOM     16  C   UNL     1       2.432   3.857  20.452  0.00  0.00    +0.000 C 
ATOM     17  C   UNL     1       1.911   5.226  19.977  0.00  0.00    +0.000 C 
ENDBRANCH   7  11
BRANCH   1  19
ATOM     18  C   UNL     1      -1.162  10.872  23.077  0.00  0.00    +0.000 C 
ATOM     19  S   UNL     1      -0.053   9.442  23.180  0.00  0.00    +0.000 S 
ENDBRANCH   1  19
TORSDOF 2
ENDMDL
MODEL 8
REMARK VINA RESULT:      -6.4      4.025      5.976
REMARK  Name = 
REMARK  4 active torsions:
REMARK  status: ('A' for Active; 'I' for Inactive)
REMARK    1  A    between atoms: C_1  and  S_2
REMARK    2  A    between atoms: S_2  and  C_3
REMARK    3  A    between atoms: C_9  and  C_10
REMARK    4  A    between atoms: N_13  and  C_14
REMARK                            x       y       z     vdW  Elec       q    Type
REMARK                         _______ _______ _______ _____ _____    ______ ____
ROOT
ATOM      1  C   UNL     1       5.589   3.885  13.395  0.00  0.00    +0.000 A 
ATOM      2  C   UNL     1       6.866   4.414  13.182  0.00  0.00    +0.000 A 
ATOM      3  C   UNL     1       7.623   4.936  14.239  0.00  0.00    +0.000 A 
ATOM      4  C   UNL     1       7.052   4.913  15.517  0.00  0.00    +0.000 A 
ATOM      5  N   UNL     1       7.555   5.346  16.721  0.00  0.00    +0.000 N 
ATOM      6  C   UNL     1       6.645   5.121  17.727  0.00  0.00    +0.000 A 
ATOM      7  C   UNL     1       5.537   4.542  17.160  0.00  0.00    +0.000 A 
ATOM      8  C   UNL     1       5.776   4.403  15.761  0.00  0.00    +0.000 A 
ATOM      9  C   UNL     1       5.032   3.890  14.679  0.00  0.00    +0.000 A 
ATOM     10  H   UNL     1       8.468   5.764  16.847  0.00  0.00    +0.000 HD
ENDROOT
BRANCH   7  11
ATOM     11  C   UNL     1       4.374   4.138  17.882  0.00  0.00    +0.000 C 
ATOM     12  C   UNL     1       4.364   3.120  18.753  0.00  0.00    +0.000 C 
ATOM     13  C   UNL     1       3.157   2.668  19.503  0.00  0.00    +0.000 C 
ATOM     14  N   UNL     1       1.882   3.284  19.163  0.00  0.00    +0.000 NA
ATOM     15  C   UNL     1       0.883   2.340  18.696  0.00  0.00    +0.000 C 
ATOM     16  C   UNL     1       1.900   4.541  18.418  0.00  0.00    +0.000 C 
ATOM     17  C   UNL     1       3.139   4.931  17.591  0.00  0.00    +0.000 C 
ENDBRANCH   7  11
BRANCH   1  19
ATOM     18  C   UNL     1       5.809   1.933  11.469  0.00  0.00    +0.000 C 
ATOM     19  S   UNL     1       4.672   3.240  12.002  0.00  0.00    +0.000 S 
ENDBRANCH   1  19
TORSDOF 2
ENDMDL
MODEL 9
REMARK VINA RESULT:      -6.3      2.938      5.544
REMARK  Name = 
REMARK  4 active torsions:
REMARK  status: ('A' for Active; 'I' for Inactive)
REMARK    1  A    between atoms: C_1  and  S_2
REMARK    2  A    between atoms: S_2  and  C_3
REMARK    3  A    between atoms: C_9  and  C_10
REMARK    4  A    between atoms: N_13  and  C_14
REMARK                            x       y       z     vdW  Elec       q    Type
REMARK                         _______ _______ _______ _____ _____    ______ ____
ROOT
ATOM      1  C   UNL     1       1.553   5.277  20.291  0.00  0.00    +0.000 A 
ATOM      2  C   UNL     1       0.699   4.178  20.421  0.00  0.00    +0.000 A 
ATOM      3  C   UNL     1       0.974   2.963  19.781  0.00  0.00    +0.000 A 
ATOM      4  C   UNL     1       2.134   2.891  19.000  0.00  0.00    +0.000 A 
ATOM      5  N   UNL     1       2.649   1.845  18.273  0.00  0.00    +0.000 N 
ATOM      6  C   UNL     1       3.821   2.221  17.660  0.00  0.00    +0.000 A 
ATOM      7  C   UNL     1       4.060   3.532  17.992  0.00  0.00    +0.000 A 
ATOM      8  C   UNL     1       3.001   3.973  18.840  0.00  0.00    +0.000 A 
ATOM      9  C   UNL     1       2.697   5.187  19.490  0.00  0.00    +0.000 A 
ATOM     10  H   UNL     1       2.228   0.927  18.205  0.00  0.00    +0.000 HD
ENDROOT
BRANCH   7  11
ATOM     11  C   UNL     1       5.195   4.284  17.565  0.00  0.00    +0.000 C 
ATOM     12  C   UNL     1       6.313   4.407  18.292  0.00  0.00    +0.000 C 
ATOM     13  C   UNL     1       7.502   5.203  17.875  0.00  0.00    +0.000 C 
ATOM     14  N   UNL     1       7.386   6.007  16.667  0.00  0.00    +0.000 NA
ATOM     15  C   UNL     1       7.591   7.427  16.889  0.00  0.00    +0.000 C 
ATOM     16  C   UNL     1       6.298   5.705  15.739  0.00  0.00    +0.000 C 
ATOM     17  C   UNL     1       5.050   4.949  16.233  0.00  0.00    +0.000 C 
ENDBRANCH   7  11
BRANCH   1  19
ATOM     18  C   UNL     1       1.853   7.992  19.962  0.00  0.00    +0.000 C 
ATOM     19  S   UNL     1       1.141   6.802  21.129  0.00  0.00    +0.000 S 
ENDBRANCH   1  19
TORSDOF 2
ENDMDL
