MODEL 1
REMARK VINA RESULT:      -8.3      0.000      0.000
REMARK  Name = 
REMARK  11 active torsions:
REMARK  status: ('A' for Active; 'I' for Inactive)
REMARK    1  A    between atoms: N_1  and  CA_2
REMARK    2  A    between atoms: CA_2  and  C_3
REMARK    3  A    between atoms: CA_2  and  C_10
REMARK    4  A    between atoms: C_3  and  C_4
REMARK    5  A    between atoms: N_12  and  CA_13
REMARK    6  A    between atoms: CA_13  and  C_14
REMARK    7  A    between atoms: CA_13  and  C_17
REMARK    8  A    between atoms: C_14  and  OXT_16
REMARK    9  A    between atoms: C_19  and  N_20
REMARK   10  A    between atoms: C_28  and  O_29
REMARK   11  A    between atoms: C_30  and  O_31
REMARK                            x       y       z     vdW  Elec       q    Type
REMARK                         _______ _______ _______ _____ _____    ______ ____
ROOT
ATOM      1  CA  UNL     1       4.550   2.884  18.752  0.00  0.00    +0.000 C 
ENDROOT
BRANCH   1   2
ATOM      2  C   UNL     1       3.989   3.395  20.105  0.00  0.00    +0.000 C 
ATOM      3  O   UNL     1       3.967   4.852  20.119  0.00  0.00    +0.000 OA
ATOM      4  C   UNL     1       2.612   5.334  20.263  0.00  0.00    +0.000 C 
ATOM      5  C   UNL     1       1.713   4.151  19.885  0.00  0.00    +0.000 C 
ATOM      6  C   UNL     1       2.544   2.976  20.388  0.00  0.00    +0.000 C 
BRANCH   4   7
ATOM      7  N   UNL     1       2.398   6.551  19.473  0.00  0.00    +0.000 N 
ATOM      8  C   UNL     1       2.857   6.665  18.174  0.00  0.00    +0.000 A 
ATOM      9  C   UNL     1       2.749   7.801  17.479  0.00  0.00    +0.000 A 
ATOM     10  C   UNL     1       2.118   8.967  18.114  0.00  0.00    +0.000 A 
ATOM     11  O   UNL     1       2.100  10.062  17.562  0.00  0.00    +0.000 OA
ATOM     12  N   UNL     1       1.573   8.744  19.344  0.00  0.00    +0.000 N 
ATOM     13  C   UNL     1       1.736   7.609  20.096  0.00  0.00    +0.000 A 
ATOM     14  O   UNL     1       1.338   7.583  21.260  0.00  0.00    +0.000 OA
ATOM     15  H   UNL     1       1.148   9.530  19.808  0.00  0.00    +0.000 HD
ENDBRANCH   4   7
BRANCH   5  16
ATOM     16  O   UNL     1       0.426   4.161  20.489  0.00  0.00    +0.000 OA
ATOM     17  H   UNL     1       0.535   3.804  21.394  0.00  0.00    +0.000 HD
ENDBRANCH   5  16
BRANCH   6  18
ATOM     18  O   UNL     1       2.310   2.832  21.804  0.00  0.00    +0.000 OA
ATOM     19  H   UNL     1       2.571   1.936  22.089  0.00  0.00    +0.000 HD
ENDBRANCH   6  18
ENDBRANCH   1   2
BRANCH   1  22
ATOM     20  C   UNL     1       6.098   4.649  17.719  0.00  0.00    +0.000 C 
ATOM     21  O   UNL     1       6.952   4.504  18.589  0.00  0.00    +0.000 OA
ATOM     22  N   UNL     1       4.923   3.934  17.772  0.00  0.00    +0.000 N 
ATOM     23  H   UNL     1       4.195   4.315  17.166  0.00  0.00    +0.000 HD
BRANCH  20  24
ATOM     24  CA  UNL     1       6.194   5.654  16.533  0.00  0.00    +0.000 C 
BRANCH  24  25
ATOM     25  N   UNL     1       6.293   7.029  17.093  0.00  0.00    +0.000 NA
ATOM     26  H1  UNL     1       5.348   7.428  17.113  0.00  0.00    +0.000 HD
ATOM     27  H2  UNL     1       6.793   7.623  16.425  0.00  0.00    +0.000 HD
ENDBRANCH  24  25
BRANCH  24  28
ATOM     28  C   UNL     1       7.369   5.309  15.587  0.00  0.00    +0.000 C 
BRANCH  28  29
ATOM     29  C   UNL     1       6.969   4.725  14.249  0.00  0.00    +0.000 A 
ATOM     30  C   UNL     1       5.854   3.894  14.101  0.00  0.00    +0.000 A 
ATOM     31  C   UNL     1       5.529   3.379  12.846  0.00  0.00    +0.000 A 
ATOM     32  C   UNL     1       6.333   3.707  11.769  0.00  0.00    +0.000 A 
ATOM     33  N   UNL     1       7.425   4.491  11.872  0.00  0.00    +0.000 NA
ATOM     34  C   UNL     1       7.724   4.967  13.103  0.00  0.00    +0.000 A 
ENDBRANCH  28  29
ENDBRANCH  24  28
ENDBRANCH  20  24
ENDBRANCH   1  22
BRANCH   1  35
ATOM     35  C   UNL     1       3.609   1.791  18.196  0.00  0.00    +0.000 C 
ATOM     36  O   UNL     1       2.635   2.043  17.497  0.00  0.00    +0.000 OA
BRANCH  35  37
ATOM     37  OXT UNL     1       3.952   0.516  18.475  0.00  0.00    +0.000 OA
ATOM     38  HXT UNL     1       4.062  -0.040  17.674  0.00  0.00    +0.000 HD
ENDBRANCH  35  37
ENDBRANCH   1  35
TORSDOF 11
ENDMDL
MODEL 2
REMARK VINA RESULT:      -7.5      3.663      6.065
REMARK  Name = 
REMARK  11 active torsions:
REMARK  status: ('A' for Active; 'I' for Inactive)
REMARK    1  A    between atoms: N_1  and  CA_2
REMARK    2  A    between atoms: CA_2  and  C_3
REMARK    3  A    between atoms: CA_2  and  C_10
REMARK    4  A    between atoms: C_3  and  C_4
REMARK    5  A    between atoms: N_12  and  CA_13
REMARK    6  A    between atoms: CA_13  and  C_14
REMARK    7  A    between atoms: CA_13  and  C_17
REMARK    8  A    between atoms: C_14  and  OXT_16
REMARK    9  A    between atoms: C_19  and  N_20
REMARK   10  A    between atoms: C_28  and  O_29
REMARK   11  A    between atoms: C_30  and  O_31
REMARK                            x       y       z     vdW  Elec       q    Type
REMARK                         _______ _______ _______ _____ _____    ______ ____
ROOT
ATOM      1  CA  UNL     1       1.387   8.684  19.324  0.00  0.00    +0.000 C 
ENDROOT
BRANCH   1   2
ATOM      2  C   UNL     1       1.673   9.574  20.562  0.00  0.00    +0.000 C 
ATOM      3  O   UNL     1       0.906  10.809  20.479  0.00  0.00    +0.000 OA
ATOM      4  C   UNL     1      -0.013  10.908  21.590  0.00  0.00    +0.000 C 
ATOM      5  C   UNL     1      -0.138   9.485  22.148  0.00  0.00    +0.000 C 
ATOM      6  C   UNL     1       1.267   8.946  21.899  0.00  0.00    +0.000 C 
BRANCH   4   7
ATOM      7  N   UNL     1      -1.277  11.524  21.177  0.00  0.00    +0.000 N 
ATOM      8  C   UNL     1      -1.667  11.566  19.851  0.00  0.00    +0.000 A 
ATOM      9  C   UNL     1      -2.771  12.206  19.455  0.00  0.00    +0.000 A 
ATOM     10  C   UNL     1      -3.601  12.884  20.460  0.00  0.00    +0.000 A 
ATOM     11  O   UNL     1      -4.557  13.579  20.134  0.00  0.00    +0.000 OA
ATOM     12  N   UNL     1      -3.229  12.690  21.758  0.00  0.00    +0.000 N 
ATOM     13  C   UNL     1      -2.065  12.098  22.175  0.00  0.00    +0.000 A 
ATOM     14  O   UNL     1      -1.756  12.127  23.365  0.00  0.00    +0.000 OA
ATOM     15  H   UNL     1      -3.772  13.157  22.466  0.00  0.00    +0.000 HD
ENDBRANCH   4   7
BRANCH   5  16
ATOM     16  O   UNL     1      -0.475   9.411  23.527  0.00  0.00    +0.000 OA
ATOM     17  H   UNL     1       0.363   9.279  24.016  0.00  0.00    +0.000 HD
ENDBRANCH   5  16
BRANCH   6  18
ATOM     18  O   UNL     1       2.121   9.399  22.970  0.00  0.00    +0.000 OA
ATOM     19  H   UNL     1       1.896   8.924  23.791  0.00  0.00    +0.000 HD
ENDBRANCH   6  18
ENDBRANCH   1   2
BRANCH   1  22
ATOM     20  C   UNL     1       2.544   6.404  19.520  0.00  0.00    +0.000 C 
ATOM     21  O   UNL     1       1.782   6.019  20.401  0.00  0.00    +0.000 OA
ATOM     22  N   UNL     1       2.425   7.674  19.003  0.00  0.00    +0.000 N 
ATOM     23  H   UNL     1       3.250   7.973  18.481  0.00  0.00    +0.000 HD
BRANCH  20  24
ATOM     24  CA  UNL     1       3.729   5.575  18.939  0.00  0.00    +0.000 C 
BRANCH  24  25
ATOM     25  N   UNL     1       3.834   4.307  19.710  0.00  0.00    +0.000 NA
ATOM     26  H1  UNL     1       3.716   4.535  20.704  0.00  0.00    +0.000 HD
ATOM     27  H2  UNL     1       4.797   3.964  19.652  0.00  0.00    +0.000 HD
ENDBRANCH  24  25
BRANCH  24  28
ATOM     28  C   UNL     1       3.565   5.337  17.418  0.00  0.00    +0.000 C 
BRANCH  28  29
ATOM     29  C   UNL     1       4.859   5.176  16.649  0.00  0.00    +0.000 A 
ATOM     30  C   UNL     1       5.069   4.122  15.756  0.00  0.00    +0.000 A 
ATOM     31  C   UNL     1       6.281   4.017  15.073  0.00  0.00    +0.000 A 
ATOM     32  C   UNL     1       7.256   4.971  15.305  0.00  0.00    +0.000 A 
ATOM     33  N   UNL     1       7.098   5.994  16.169  0.00  0.00    +0.000 NA
ATOM     34  C   UNL     1       5.918   6.065  16.828  0.00  0.00    +0.000 A 
ENDBRANCH  28  29
ENDBRANCH  24  28
ENDBRANCH  20  24
ENDBRANCH   1  22
BRANCH   1  35
ATOM     35  C   UNL     1       0.979   9.587  18.138  0.00  0.00    +0.000 C 
ATOM     36  O   UNL     1      -0.159   9.619  17.684  0.00  0.00    +0.000 OA
BRANCH  35  37
ATOM     37  OXT UNL     1       1.942  10.400  17.653  0.00  0.00    +0.000 OA
ATOM     38  HXT UNL     1       2.834   9.989  17.657  0.00  0.00    +0.000 HD
ENDBRANCH  35  37
ENDBRANCH   1  35
TORSDOF 11
ENDMDL
MODEL 3
REMARK VINA RESULT:      -7.5      1.555      2.005
REMARK  Name = 
REMARK  11 active torsions:
REMARK  status: ('A' for Active; 'I' for Inactive)
REMARK    1  A    between atoms: N_1  and  CA_2
REMARK    2  A    between atoms: CA_2  and  C_3
REMARK    3  A    between atoms: CA_2  and  C_10
REMARK    4  A    between atoms: C_3  and  C_4
REMARK    5  A    between atoms: N_12  and  CA_13
REMARK    6  A    between atoms: CA_13  and  C_14
REMARK    7  A    between atoms: CA_13  and  C_17
REMARK    8  A    between atoms: C_14  and  OXT_16
REMARK    9  A    between atoms: C_19  and  N_20
REMARK   10  A    between atoms: C_28  and  O_29
REMARK   11  A    between atoms: C_30  and  O_31
REMARK                            x       y       z     vdW  Elec       q    Type
REMARK                         _______ _______ _______ _____ _____    ______ ____
ROOT
ATOM      1  CA  UNL     1       4.828   2.723  20.305  0.00  0.00    +0.000 C 
ENDROOT
BRANCH   1   2
ATOM      2  C   UNL     1       3.277   2.681  20.277  0.00  0.00    +0.000 C 
ATOM      3  O   UNL     1       2.738   4.028  20.413  0.00  0.00    +0.000 OA
ATOM      4  C   UNL     1       1.975   4.387  19.239  0.00  0.00    +0.000 C 
ATOM      5  C   UNL     1       2.416   3.405  18.147  0.00  0.00    +0.000 C 
ATOM      6  C   UNL     1       2.684   2.149  18.969  0.00  0.00    +0.000 C 
BRANCH   4   7
ATOM      7  N   UNL     1       2.154   5.803  18.906  0.00  0.00    +0.000 N 
ATOM      8  C   UNL     1       2.736   6.204  17.718  0.00  0.00    +0.000 A 
ATOM      9  C   UNL     1       2.988   7.487  17.446  0.00  0.00    +0.000 A 
ATOM     10  C   UNL     1       2.631   8.509  18.441  0.00  0.00    +0.000 A 
ATOM     11  O   UNL     1       2.946   9.684  18.290  0.00  0.00    +0.000 OA
ATOM     12  N   UNL     1       1.944   8.056  19.529  0.00  0.00    +0.000 N 
ATOM     13  C   UNL     1       1.741   6.739  19.854  0.00  0.00    +0.000 A 
ATOM     14  O   UNL     1       1.252   6.446  20.944  0.00  0.00    +0.000 OA
ATOM     15  H   UNL     1       1.702   8.733  20.234  0.00  0.00    +0.000 HD
ENDBRANCH   4   7
BRANCH   5  16
ATOM     16  O   UNL     1       1.446   3.157  17.138  0.00  0.00    +0.000 OA
ATOM     17  H   UNL     1       1.758   3.610  16.328  0.00  0.00    +0.000 HD
ENDBRANCH   5  16
BRANCH   6  18
ATOM     18  O   UNL     1       1.425   1.484  19.200  0.00  0.00    +0.000 OA
ATOM     19  H   UNL     1       0.751   2.140  19.457  0.00  0.00    +0.000 HD
ENDBRANCH   6  18
ENDBRANCH   1   2
BRANCH   1  22
ATOM     20  C   UNL     1       5.887   4.531  18.827  0.00  0.00    +0.000 C 
ATOM     21  O   UNL     1       5.654   5.423  19.637  0.00  0.00    +0.000 OA
ATOM     22  N   UNL     1       5.480   3.240  19.077  0.00  0.00    +0.000 N 
ATOM     23  H   UNL     1       5.490   2.649  18.245  0.00  0.00    +0.000 HD
BRANCH  20  24
ATOM     24  CA  UNL     1       6.582   4.737  17.448  0.00  0.00    +0.000 C 
BRANCH  24  25
ATOM     25  N   UNL     1       7.947   4.147  17.520  0.00  0.00    +0.000 NA
ATOM     26  H1  UNL     1       7.937   3.425  18.249  0.00  0.00    +0.000 HD
ATOM     27  H2  UNL     1       8.593   4.852  17.885  0.00  0.00    +0.000 HD
ENDBRANCH  24  25
BRANCH  24  28
ATOM     28  C   UNL     1       5.739   4.148  16.291  0.00  0.00    +0.000 C 
BRANCH  28  29
ATOM     29  C   UNL     1       6.322   4.340  14.907  0.00  0.00    +0.000 A 
ATOM     30  C   UNL     1       5.910   3.575  13.812  0.00  0.00    +0.000 A 
ATOM     31  C   UNL     1       6.481   3.788  12.557  0.00  0.00    +0.000 A 
ATOM     32  C   UNL     1       7.455   4.764  12.431  0.00  0.00    +0.000 A 
ATOM     33  N   UNL     1       7.890   5.512  13.465  0.00  0.00    +0.000 NA
ATOM     34  C   UNL     1       7.329   5.276  14.673  0.00  0.00    +0.000 A 
ENDBRANCH  28  29
ENDBRANCH  24  28
ENDBRANCH  20  24
ENDBRANCH   1  22
BRANCH   1  35
ATOM     35  C   UNL     1       5.360   1.355  20.789  0.00  0.00    +0.000 C 
ATOM     36  O   UNL     1       5.703   1.145  21.947  0.00  0.00    +0.000 OA
BRANCH  35  37
ATOM     37  OXT UNL     1       5.375   0.366  19.870  0.00  0.00    +0.000 OA
ATOM     38  HXT UNL     1       6.260  -0.043  19.755  0.00  0.00    +0.000 HD
ENDBRANCH  35  37
ENDBRANCH   1  35
TORSDOF 11
ENDMDL
MODEL 4
REMARK VINA RESULT:      -7.5      1.774      2.992
REMARK  Name = 
REMARK  11 active torsions:
REMARK  status: ('A' for Active; 'I' for Inactive)
REMARK    1  A    between atoms: N_1  and  CA_2
REMARK    2  A    between atoms: CA_2  and  C_3
REMARK    3  A    between atoms: CA_2  and  C_10
REMARK    4  A    between atoms: C_3  and  C_4
REMARK    5  A    between atoms: N_12  and  CA_13
REMARK    6  A    between atoms: CA_13  and  C_14
REMARK    7  A    between atoms: CA_13  and  C_17
REMARK    8  A    between atoms: C_14  and  OXT_16
REMARK    9  A    between atoms: C_19  and  N_20
REMARK   10  A    between atoms: C_28  and  O_29
REMARK   11  A    between atoms: C_30  and  O_31
REMARK                            x       y       z     vdW  Elec       q    Type
REMARK                         _______ _______ _______ _____ _____    ______ ____
ROOT
ATOM      1  CA  UNL     1       6.034   5.602  18.498  0.00  0.00    +0.000 C 
ENDROOT
BRANCH   1   2
ATOM      2  C   UNL     1       4.892   5.104  19.423  0.00  0.00    +0.000 C 
ATOM      3  O   UNL     1       4.124   6.235  19.924  0.00  0.00    +0.000 OA
ATOM      4  C   UNL     1       2.751   6.149  19.481  0.00  0.00    +0.000 C 
ATOM      5  C   UNL     1       2.761   5.167  18.303  0.00  0.00    +0.000 C 
ATOM      6  C   UNL     1       3.865   4.205  18.730  0.00  0.00    +0.000 C 
BRANCH   4   7
ATOM      7  N   UNL     1       2.210   7.477  19.175  0.00  0.00    +0.000 N 
ATOM      8  C   UNL     1       2.412   8.079  17.948  0.00  0.00    +0.000 A 
ATOM      9  C   UNL     1       2.004   9.325  17.692  0.00  0.00    +0.000 A 
ATOM     10  C   UNL     1       1.313  10.080  18.748  0.00  0.00    +0.000 A 
ATOM     11  O   UNL     1       1.024  11.262  18.601  0.00  0.00    +0.000 OA
ATOM     12  N   UNL     1       1.034   9.379  19.884  0.00  0.00    +0.000 N 
ATOM     13  C   UNL     1       1.505   8.128  20.188  0.00  0.00    +0.000 A 
ATOM     14  O   UNL     1       1.325   7.662  21.311  0.00  0.00    +0.000 OA
ATOM     15  H   UNL     1       0.575   9.877  20.629  0.00  0.00    +0.000 HD
ENDBRANCH   4   7
BRANCH   5  16
ATOM     16  O   UNL     1       1.537   4.477  18.090  0.00  0.00    +0.000 OA
ATOM     17  H   UNL     1       1.170   4.806  17.244  0.00  0.00    +0.000 HD
ENDBRANCH   5  16
BRANCH   6  18
ATOM     18  O   UNL     1       3.300   3.250  19.652  0.00  0.00    +0.000 OA
ATOM     19  H   UNL     1       3.303   2.363  19.247  0.00  0.00    +0.000 HD
ENDBRANCH   6  18
ENDBRANCH   1   2
BRANCH   1  22
ATOM     20  C   UNL     1       6.929   5.201  16.129  0.00  0.00    +0.000 C 
ATOM     21  O   UNL     1       7.371   6.342  16.032  0.00  0.00    +0.000 OA
ATOM     22  N   UNL     1       6.251   4.812  17.261  0.00  0.00    +0.000 N 
ATOM     23  H   UNL     1       5.713   3.954  17.131  0.00  0.00    +0.000 HD
BRANCH  20  24
ATOM     24  CA  UNL     1       7.014   4.113  15.016  0.00  0.00    +0.000 C 
BRANCH  24  25
ATOM     25  N   UNL     1       6.127   2.982  15.401  0.00  0.00    +0.000 NA
ATOM     26  H1  UNL     1       5.156   3.307  15.330  0.00  0.00    +0.000 HD
ATOM     27  H2  UNL     1       6.247   2.792  16.400  0.00  0.00    +0.000 HD
ENDBRANCH  24  25
BRANCH  24  28
ATOM     28  C   UNL     1       6.669   4.694  13.624  0.00  0.00    +0.000 C 
BRANCH  28  29
ATOM     29  C   UNL     1       6.127   3.694  12.625  0.00  0.00    +0.000 A 
ATOM     30  C   UNL     1       6.935   2.719  12.034  0.00  0.00    +0.000 A 
ATOM     31  C   UNL     1       6.388   1.822  11.116  0.00  0.00    +0.000 A 
ATOM     32  C   UNL     1       5.042   1.927  10.810  0.00  0.00    +0.000 A 
ATOM     33  N   UNL     1       4.233   2.863  11.346  0.00  0.00    +0.000 NA
ATOM     34  C   UNL     1       4.792   3.728  12.224  0.00  0.00    +0.000 A 
ENDBRANCH  28  29
ENDBRANCH  24  28
ENDBRANCH  20  24
ENDBRANCH   1  22
BRANCH   1  35
ATOM     35  C   UNL     1       7.306   5.831  19.346  0.00  0.00    +0.000 C 
ATOM     36  O   UNL     1       7.567   5.175  20.347  0.00  0.00    +0.000 OA
BRANCH  35  37
ATOM     37  OXT UNL     1       8.162   6.769  18.888  0.00  0.00    +0.000 OA
ATOM     38  HXT UNL     1       8.386   7.451  19.558  0.00  0.00    +0.000 HD
ENDBRANCH  35  37
ENDBRANCH   1  35
TORSDOF 11
ENDMDL
MODEL 5
REMARK VINA RESULT:      -7.4      4.804      8.127
REMARK  Name = 
REMARK  11 active torsions:
REMARK  status: ('A' for Active; 'I' for Inactive)
REMARK    1  A    between atoms: N_1  and  CA_2
REMARK    2  A    between atoms: CA_2  and  C_3
REMARK    3  A    between atoms: CA_2  and  C_10
REMARK    4  A    between atoms: C_3  and  C_4
REMARK    5  A    between atoms: N_12  and  CA_13
REMARK    6  A    between atoms: CA_13  and  C_14
REMARK    7  A    between atoms: CA_13  and  C_17
REMARK    8  A    between atoms: C_14  and  OXT_16
REMARK    9  A    between atoms: C_19  and  N_20
REMARK   10  A    between atoms: C_28  and  O_29
REMARK   11  A    between atoms: C_30  and  O_31
REMARK                            x       y       z     vdW  Elec       q    Type
REMARK                         _______ _______ _______ _____ _____    ______ ____
ROOT
ATOM      1  CA  UNL     1       0.767  10.063  19.849  0.00  0.00    +0.000 C 
ENDROOT
BRANCH   1   2
ATOM      2  C   UNL     1      -0.773  10.115  19.667  0.00  0.00    +0.000 C 
ATOM      3  O   UNL     1      -1.327  11.235  20.417  0.00  0.00    +0.000 OA
ATOM      4  C   UNL     1      -1.970  12.171  19.523  0.00  0.00    +0.000 C 
ATOM      5  C   UNL     1      -1.419  11.852  18.129  0.00  0.00    +0.000 C 
ATOM      6  C   UNL     1      -1.231  10.342  18.224  0.00  0.00    +0.000 C 
BRANCH   4   7
ATOM      7  N   UNL     1      -1.763  13.553  19.968  0.00  0.00    +0.000 N 
ATOM      8  C   UNL     1      -0.658  14.285  19.579  0.00  0.00    +0.000 A 
ATOM      9  C   UNL     1      -0.413  15.510  20.053  0.00  0.00    +0.000 A 
ATOM     10  C   UNL     1      -1.352  16.101  21.018  0.00  0.00    +0.000 A 
ATOM     11  O   UNL     1      -1.111  17.170  21.568  0.00  0.00    +0.000 OA
ATOM     12  N   UNL     1      -2.484  15.378  21.255  0.00  0.00    +0.000 N 
ATOM     13  C   UNL     1      -2.716  14.094  20.833  0.00  0.00    +0.000 A 
ATOM     14  O   UNL     1      -3.699  13.482  21.246  0.00  0.00    +0.000 OA
ATOM     15  H   UNL     1      -3.136  15.753  21.924  0.00  0.00    +0.000 HD
ENDBRANCH   4   7
BRANCH   5  16
ATOM     16  O   UNL     1      -2.284  12.191  17.052  0.00  0.00    +0.000 OA
ATOM     17  H   UNL     1      -1.725  12.601  16.359  0.00  0.00    +0.000 HD
ENDBRANCH   5  16
BRANCH   6  18
ATOM     18  O   UNL     1      -2.505   9.712  17.975  0.00  0.00    +0.000 OA
ATOM     19  H   UNL     1      -2.530   8.841  18.412  0.00  0.00    +0.000 HD
ENDBRANCH   6  18
ENDBRANCH   1   2
BRANCH   1  22
ATOM     20  C   UNL     1       2.085   8.572  18.232  0.00  0.00    +0.000 C 
ATOM     21  O   UNL     1       2.117   9.434  17.359  0.00  0.00    +0.000 OA
ATOM     22  N   UNL     1       1.423   8.805  19.416  0.00  0.00    +0.000 N 
ATOM     23  H   UNL     1       1.240   7.952  19.946  0.00  0.00    +0.000 HD
BRANCH  20  24
ATOM     24  CA  UNL     1       2.704   7.148  18.103  0.00  0.00    +0.000 C 
BRANCH  24  25
ATOM     25  N   UNL     1       4.090   7.286  17.580  0.00  0.00    +0.000 NA
ATOM     26  H1  UNL     1       4.090   8.047  16.891  0.00  0.00    +0.000 HD
ATOM     27  H2  UNL     1       4.319   6.457  17.025  0.00  0.00    +0.000 HD
ENDBRANCH  24  25
BRANCH  24  28
ATOM     28  C   UNL     1       2.646   6.379  19.444  0.00  0.00    +0.000 C 
BRANCH  28  29
ATOM     29  C   UNL     1       2.007   5.008  19.374  0.00  0.00    +0.000 A 
ATOM     30  C   UNL     1       1.619   4.307  20.519  0.00  0.00    +0.000 A 
ATOM     31  C   UNL     1       1.036   3.045  20.401  0.00  0.00    +0.000 A 
ATOM     32  C   UNL     1       0.860   2.514  19.135  0.00  0.00    +0.000 A 
ATOM     33  N   UNL     1       1.235   3.151  18.007  0.00  0.00    +0.000 NA
ATOM     34  C   UNL     1       1.809   4.368  18.151  0.00  0.00    +0.000 A 
ENDBRANCH  28  29
ENDBRANCH  24  28
ENDBRANCH  20  24
ENDBRANCH   1  22
BRANCH   1  35
ATOM     35  C   UNL     1       1.120  10.512  21.285  0.00  0.00    +0.000 C 
ATOM     36  O   UNL     1       1.386   9.722  22.184  0.00  0.00    +0.000 OA
BRANCH  35  37
ATOM     37  OXT UNL     1       1.182  11.844  21.492  0.00  0.00    +0.000 OA
ATOM     38  HXT UNL     1       1.197  12.089  22.442  0.00  0.00    +0.000 HD
ENDBRANCH  35  37
ENDBRANCH   1  35
TORSDOF 11
ENDMDL
MODEL 6
REMARK VINA RESULT:      -7.4      2.326      6.417
REMARK  Name = 
REMARK  11 active torsions:
REMARK  status: ('A' for Active; 'I' for Inactive)
REMARK    1  A    between atoms: N_1  and  CA_2
REMARK    2  A    between atoms: CA_2  and  C_3
REMARK    3  A    between atoms: CA_2  and  C_10
REMARK    4  A    between atoms: C_3  and  C_4
REMARK    5  A    between atoms: N_12  and  CA_13
REMARK    6  A    between atoms: CA_13  and  C_14
REMARK    7  A    between atoms: CA_13  and  C_17
REMARK    8  A    between atoms: C_14  and  OXT_16
REMARK    9  A    between atoms: C_19  and  N_20
REMARK   10  A    between atoms: C_28  and  O_29
REMARK   11  A    between atoms: C_30  and  O_31
REMARK                            x       y       z     vdW  Elec       q    Type
REMARK                         _______ _______ _______ _____ _____    ______ ____
ROOT
ATOM      1  CA  UNL     1       1.422   4.036  18.288  0.00  0.00    +0.000 C 
ENDROOT
BRANCH   1   2
ATOM      2  C   UNL     1       2.386   2.913  17.822  0.00  0.00    +0.000 C 
ATOM      3  O   UNL     1       3.480   3.482  17.048  0.00  0.00    +0.000 OA
ATOM      4  C   UNL     1       4.745   3.227  17.699  0.00  0.00    +0.000 C 
ATOM      5  C   UNL     1       4.395   2.870  19.149  0.00  0.00    +0.000 C 
ATOM      6  C   UNL     1       3.065   2.149  18.963  0.00  0.00    +0.000 C 
BRANCH   4   7
ATOM      7  N   UNL     1       5.657   4.365  17.545  0.00  0.00    +0.000 N 
ATOM      8  C   UNL     1       6.243   4.981  18.635  0.00  0.00    +0.000 A 
ATOM      9  C   UNL     1       7.000   6.074  18.512  0.00  0.00    +0.000 A 
ATOM     10  C   UNL     1       7.222   6.640  17.173  0.00  0.00    +0.000 A 
ATOM     11  O   UNL     1       7.811   7.704  17.021  0.00  0.00    +0.000 OA
ATOM     12  N   UNL     1       6.725   5.907  16.136  0.00  0.00    +0.000 N 
ATOM     13  C   UNL     1       5.890   4.826  16.249  0.00  0.00    +0.000 A 
ATOM     14  O   UNL     1       5.370   4.346  15.243  0.00  0.00    +0.000 OA
ATOM     15  H   UNL     1       6.850   6.280  15.209  0.00  0.00    +0.000 HD
ENDBRANCH   4   7
BRANCH   5  16
ATOM     16  O   UNL     1       5.341   2.034  19.804  0.00  0.00    +0.000 OA
ATOM     17  H   UNL     1       4.884   1.643  20.577  0.00  0.00    +0.000 HD
ENDBRANCH   5  16
BRANCH   6  18
ATOM     18  O   UNL     1       3.339   0.784  18.586  0.00  0.00    +0.000 OA
ATOM     19  H   UNL     1       4.243   0.720  18.226  0.00  0.00    +0.000 HD
ENDBRANCH   6  18
ENDBRANCH   1   2
BRANCH   1  22
ATOM     20  C   UNL     1       2.765   6.163  18.786  0.00  0.00    +0.000 C 
ATOM     21  O   UNL     1       3.213   5.714  19.837  0.00  0.00    +0.000 OA
ATOM     22  N   UNL     1       1.881   5.424  18.034  0.00  0.00    +0.000 N 
ATOM     23  H   UNL     1       1.384   5.981  17.338  0.00  0.00    +0.000 HD
BRANCH  20  24
ATOM     24  CA  UNL     1       3.072   7.582  18.219  0.00  0.00    +0.000 C 
BRANCH  24  25
ATOM     25  N   UNL     1       3.940   7.428  17.020  0.00  0.00    +0.000 NA
ATOM     26  H1  UNL     1       3.487   7.919  16.241  0.00  0.00    +0.000 HD
ATOM     27  H2  UNL     1       3.929   6.447  16.728  0.00  0.00    +0.000 HD
ENDBRANCH  24  25
BRANCH  24  28
ATOM     28  C   UNL     1       1.773   8.368  17.918  0.00  0.00    +0.000 C 
BRANCH  28  29
ATOM     29  C   UNL     1       1.368   9.371  18.978  0.00  0.00    +0.000 A 
ATOM     30  C   UNL     1       1.037   8.987  20.280  0.00  0.00    +0.000 A 
ATOM     31  C   UNL     1       0.667   9.950  21.219  0.00  0.00    +0.000 A 
ATOM     32  C   UNL     1       0.634  11.277  20.827  0.00  0.00    +0.000 A 
ATOM     33  N   UNL     1       0.930  11.687  19.577  0.00  0.00    +0.000 NA
ATOM     34  C   UNL     1       1.274  10.730  18.683  0.00  0.00    +0.000 A 
ENDBRANCH  28  29
ENDBRANCH  24  28
ENDBRANCH  20  24
ENDBRANCH   1  22
BRANCH   1  35
ATOM     35  C   UNL     1       0.992   3.758  19.746  0.00  0.00    +0.000 C 
ATOM     36  O   UNL     1       0.905   2.628  20.212  0.00  0.00    +0.000 OA
BRANCH  35  37
ATOM     37  OXT UNL     1       0.768   4.845  20.516  0.00  0.00    +0.000 OA
ATOM     38  HXT UNL     1       0.349   5.586  20.028  0.00  0.00    +0.000 HD
ENDBRANCH  35  37
ENDBRANCH   1  35
TORSDOF 11
ENDMDL
MODEL 7
REMARK VINA RESULT:      -7.4      3.000      5.744
REMARK  Name = 
REMARK  11 active torsions:
REMARK  status: ('A' for Active; 'I' for Inactive)
REMARK    1  A    between atoms: N_1  and  CA_2
REMARK    2  A    between atoms: CA_2  and  C_3
REMARK    3  A    between atoms: CA_2  and  C_10
REMARK    4  A    between atoms: C_3  and  C_4
REMARK    5  A    between atoms: N_12  and  CA_13
REMARK    6  A    between atoms: CA_13  and  C_14
REMARK    7  A    between atoms: CA_13  and  C_17
REMARK    8  A    between atoms: C_14  and  OXT_16
REMARK    9  A    between atoms: C_19  and  N_20
REMARK   10  A    between atoms: C_28  and  O_29
REMARK   11  A    between atoms: C_30  and  O_31
REMARK                            x       y       z     vdW  Elec       q    Type
REMARK                         _______ _______ _______ _____ _____    ______ ____
ROOT
ATOM      1  CA  UNL     1       2.052   7.407  19.419  0.00  0.00    +0.000 C 
ENDROOT
BRANCH   1   2
ATOM      2  C   UNL     1       2.022   8.670  20.320  0.00  0.00    +0.000 C 
ATOM      3  O   UNL     1       1.306   9.746  19.650  0.00  0.00    +0.000 OA
ATOM      4  C   UNL     1       0.138  10.126  20.412  0.00  0.00    +0.000 C 
ATOM      5  C   UNL     1      -0.129   8.954  21.364  0.00  0.00    +0.000 C 
ATOM      6  C   UNL     1       1.290   8.478  21.652  0.00  0.00    +0.000 C 
BRANCH   4   7
ATOM      7  N   UNL     1      -0.980  10.471  19.528  0.00  0.00    +0.000 N 
ATOM      8  C   UNL     1      -1.152   9.860  18.300  0.00  0.00    +0.000 A 
ATOM      9  C   UNL     1      -2.112  10.234  17.449  0.00  0.00    +0.000 A 
ATOM     10  C   UNL     1      -3.017  11.327  17.830  0.00  0.00    +0.000 A 
ATOM     11  O   UNL     1      -3.836  11.782  17.040  0.00  0.00    +0.000 OA
ATOM     12  N   UNL     1      -2.873  11.792  19.104  0.00  0.00    +0.000 N 
ATOM     13  C   UNL     1      -1.852  11.470  19.962  0.00  0.00    +0.000 A 
ATOM     14  O   UNL     1      -1.731  12.077  21.024  0.00  0.00    +0.000 OA
ATOM     15  H   UNL     1      -3.470  12.552  19.386  0.00  0.00    +0.000 HD
ENDBRANCH   4   7
BRANCH   5  16
ATOM     16  O   UNL     1      -0.803   9.303  22.567  0.00  0.00    +0.000 OA
ATOM     17  H   UNL     1      -1.624   9.769  22.306  0.00  0.00    +0.000 HD
ENDBRANCH   5  16
BRANCH   6  18
ATOM     18  O   UNL     1       1.849   9.319  22.681  0.00  0.00    +0.000 OA
ATOM     19  H   UNL     1       1.131   9.780  23.153  0.00  0.00    +0.000 HD
ENDBRANCH   6  18
ENDBRANCH   1   2
BRANCH   1  22
ATOM     20  C   UNL     1       1.954   5.027  20.366  0.00  0.00    +0.000 C 
ATOM     21  O   UNL     1       0.738   4.947  20.216  0.00  0.00    +0.000 OA
ATOM     22  N   UNL     1       2.620   6.186  20.041  0.00  0.00    +0.000 N 
ATOM     23  H   UNL     1       3.558   6.234  20.440  0.00  0.00    +0.000 HD
BRANCH  20  24
ATOM     24  CA  UNL     1       2.854   3.908  20.971  0.00  0.00    +0.000 C 
BRANCH  24  25
ATOM     25  N   UNL     1       2.101   3.245  22.069  0.00  0.00    +0.000 NA
ATOM     26  H1  UNL     1       1.720   3.980  22.676  0.00  0.00    +0.000 HD
ATOM     27  H2  UNL     1       2.763   2.751  22.673  0.00  0.00    +0.000 HD
ENDBRANCH  24  25
BRANCH  24  28
ATOM     28  C   UNL     1       3.328   2.910  19.886  0.00  0.00    +0.000 C 
BRANCH  28  29
ATOM     29  C   UNL     1       4.230   3.497  18.821  0.00  0.00    +0.000 A 
ATOM     30  C   UNL     1       5.409   4.178  19.136  0.00  0.00    +0.000 A 
ATOM     31  C   UNL     1       6.205   4.703  18.118  0.00  0.00    +0.000 A 
ATOM     32  C   UNL     1       5.795   4.537  16.806  0.00  0.00    +0.000 A 
ATOM     33  N   UNL     1       4.657   3.902  16.462  0.00  0.00    +0.000 NA
ATOM     34  C   UNL     1       3.898   3.412  17.470  0.00  0.00    +0.000 A 
ENDBRANCH  28  29
ENDBRANCH  24  28
ENDBRANCH  20  24
ENDBRANCH   1  22
BRANCH   1  35
ATOM     35  C   UNL     1       2.670   7.779  18.052  0.00  0.00    +0.000 C 
ATOM     36  O   UNL     1       3.681   7.246  17.610  0.00  0.00    +0.000 OA
BRANCH  35  37
ATOM     37  OXT UNL     1       1.995   8.696  17.326  0.00  0.00    +0.000 OA
ATOM     38  HXT UNL     1       1.710   8.363  16.448  0.00  0.00    +0.000 HD
ENDBRANCH  35  37
ENDBRANCH   1  35
TORSDOF 11
ENDMDL
MODEL 8
REMARK VINA RESULT:      -7.4      1.669      2.438
REMARK  Name = 
REMARK  11 active torsions:
REMARK  status: ('A' for Active; 'I' for Inactive)
REMARK    1  A    between atoms: N_1  and  CA_2
REMARK    2  A    between atoms: CA_2  and  C_3
REMARK    3  A    between atoms: CA_2  and  C_10
REMARK    4  A    between atoms: C_3  and  C_4
REMARK    5  A    between atoms: N_12  and  CA_13
REMARK    6  A    between atoms: CA_13  and  C_14
REMARK    7  A    between atoms: CA_13  and  C_17
REMARK    8  A    between atoms: C_14  and  OXT_16
REMARK    9  A    between atoms: C_19  and  N_20
REMARK   10  A    between atoms: C_28  and  O_29
REMARK   11  A    between atoms: C_30  and  O_31
REMARK                            x       y       z     vdW  Elec       q    Type
REMARK                         _______ _______ _______ _____ _____    ______ ____
ROOT
ATOM      1  CA  UNL     1       4.643   2.651  20.088  0.00  0.00    +0.000 C 
ENDROOT
BRANCH   1   2
ATOM      2  C   UNL     1       3.099   2.504  20.030  0.00  0.00    +0.000 C 
ATOM      3  O   UNL     1       2.463   3.682  20.606  0.00  0.00    +0.000 OA
ATOM      4  C   UNL     1       1.658   4.356  19.613  0.00  0.00    +0.000 C 
ATOM      5  C   UNL     1       2.154   3.835  18.259  0.00  0.00    +0.000 C 
ATOM      6  C   UNL     1       2.527   2.399  18.614  0.00  0.00    +0.000 C 
BRANCH   4   7
ATOM      7  N   UNL     1       1.726   5.811  19.778  0.00  0.00    +0.000 N 
ATOM      8  C   UNL     1       1.164   6.447  20.869  0.00  0.00    +0.000 A 
ATOM      9  C   UNL     1       1.139   7.778  20.981  0.00  0.00    +0.000 A 
ATOM     10  C   UNL     1       1.732   8.595  19.912  0.00  0.00    +0.000 A 
ATOM     11  O   UNL     1       1.631   9.816  19.913  0.00  0.00    +0.000 OA
ATOM     12  N   UNL     1       2.382   7.901  18.935  0.00  0.00    +0.000 N 
ATOM     13  C   UNL     1       2.357   6.540  18.769  0.00  0.00    +0.000 A 
ATOM     14  O   UNL     1       2.841   6.037  17.756  0.00  0.00    +0.000 OA
ATOM     15  H   UNL     1       2.784   8.435  18.182  0.00  0.00    +0.000 HD
ENDBRANCH   4   7
BRANCH   5  16
ATOM     16  O   UNL     1       1.189   3.868  17.216  0.00  0.00    +0.000 OA
ATOM     17  H   UNL     1       1.070   4.809  16.971  0.00  0.00    +0.000 HD
ENDBRANCH   5  16
BRANCH   6  18
ATOM     18  O   UNL     1       1.325   1.603  18.594  0.00  0.00    +0.000 OA
ATOM     19  H   UNL     1       1.488   0.777  18.103  0.00  0.00    +0.000 HD
ENDBRANCH   6  18
ENDBRANCH   1   2
BRANCH   1  22
ATOM     20  C   UNL     1       5.797   4.443  18.662  0.00  0.00    +0.000 C 
ATOM     21  O   UNL     1       5.684   5.301  19.531  0.00  0.00    +0.000 OA
ATOM     22  N   UNL     1       5.285   3.181  18.860  0.00  0.00    +0.000 N 
ATOM     23  H   UNL     1       5.203   2.642  17.996  0.00  0.00    +0.000 HD
BRANCH  20  24
ATOM     24  CA  UNL     1       6.447   4.668  17.264  0.00  0.00    +0.000 C 
BRANCH  24  25
ATOM     25  N   UNL     1       7.864   4.219  17.329  0.00  0.00    +0.000 NA
ATOM     26  H1  UNL     1       7.952   3.577  18.125  0.00  0.00    +0.000 HD
ATOM     27  H2  UNL     1       8.451   5.015  17.593  0.00  0.00    +0.000 HD
ENDBRANCH  24  25
BRANCH  24  28
ATOM     28  C   UNL     1       5.648   3.959  16.144  0.00  0.00    +0.000 C 
BRANCH  28  29
ATOM     29  C   UNL     1       6.204   4.134  14.747  0.00  0.00    +0.000 A 
ATOM     30  C   UNL     1       7.211   5.059  14.456  0.00  0.00    +0.000 A 
ATOM     31  C   UNL     1       7.687   5.184  13.150  0.00  0.00    +0.000 A 
ATOM     32  C   UNL     1       7.138   4.381  12.166  0.00  0.00    +0.000 A 
ATOM     33  N   UNL     1       6.156   3.488  12.403  0.00  0.00    +0.000 NA
ATOM     34  C   UNL     1       5.704   3.396  13.675  0.00  0.00    +0.000 A 
ENDBRANCH  28  29
ENDBRANCH  24  28
ENDBRANCH  20  24
ENDBRANCH   1  22
BRANCH   1  35
ATOM     35  C   UNL     1       5.255   1.334  20.617  0.00  0.00    +0.000 C 
ATOM     36  O   UNL     1       5.664   1.203  21.765  0.00  0.00    +0.000 OA
BRANCH  35  37
ATOM     37  OXT UNL     1       5.264   0.296  19.754  0.00  0.00    +0.000 OA
ATOM     38  HXT UNL     1       4.386   0.116  19.355  0.00  0.00    +0.000 HD
ENDBRANCH  35  37
ENDBRANCH   1  35
TORSDOF 11
ENDMDL
MODEL 9
REMARK VINA RESULT:      -7.4      2.252      7.157
REMARK  Name = 
REMARK  11 active torsions:
REMARK  status: ('A' for Active; 'I' for Inactive)
REMARK    1  A    between atoms: N_1  and  CA_2
REMARK    2  A    between atoms: CA_2  and  C_3
REMARK    3  A    between atoms: CA_2  and  C_10
REMARK    4  A    between atoms: C_3  and  C_4
REMARK    5  A    between atoms: N_12  and  CA_13
REMARK    6  A    between atoms: CA_13  and  C_14
REMARK    7  A    between atoms: CA_13  and  C_17
REMARK    8  A    between atoms: C_14  and  OXT_16
REMARK    9  A    between atoms: C_19  and  N_20
REMARK   10  A    between atoms: C_28  and  O_29
REMARK   11  A    between atoms: C_30  and  O_31
REMARK                            x       y       z     vdW  Elec       q    Type
REMARK                         _______ _______ _______ _____ _____    ______ ____
ROOT
ATOM      1  CA  UNL     1       2.061   3.838  18.624  0.00  0.00    +0.000 C 
ENDROOT
BRANCH   1   2
ATOM      2  C   UNL     1       3.341   3.022  18.944  0.00  0.00    +0.000 C 
ATOM      3  O   UNL     1       4.146   2.862  17.741  0.00  0.00    +0.000 OA
ATOM      4  C   UNL     1       5.439   3.486  17.912  0.00  0.00    +0.000 C 
ATOM      5  C   UNL     1       5.277   4.447  19.095  0.00  0.00    +0.000 C 
ATOM      6  C   UNL     1       4.276   3.687  19.959  0.00  0.00    +0.000 C 
BRANCH   4   7
ATOM      7  N   UNL     1       5.893   4.111  16.666  0.00  0.00    +0.000 N 
ATOM      8  C   UNL     1       5.047   4.280  15.586  0.00  0.00    +0.000 A 
ATOM      9  C   UNL     1       5.475   4.763  14.416  0.00  0.00    +0.000 A 
ATOM     10  C   UNL     1       6.891   5.129  14.272  0.00  0.00    +0.000 A 
ATOM     11  O   UNL     1       7.355   5.465  13.188  0.00  0.00    +0.000 OA
ATOM     12  N   UNL     1       7.636   5.059  15.412  0.00  0.00    +0.000 N 
ATOM     13  C   UNL     1       7.231   4.502  16.598  0.00  0.00    +0.000 A 
ATOM     14  O   UNL     1       8.042   4.343  17.509  0.00  0.00    +0.000 OA
ATOM     15  H   UNL     1       8.613   5.289  15.337  0.00  0.00    +0.000 HD
ENDBRANCH   4   7
BRANCH   5  16
ATOM     16  O   UNL     1       6.473   4.713  19.817  0.00  0.00    +0.000 OA
ATOM     17  H   UNL     1       7.209   4.330  19.296  0.00  0.00    +0.000 HD
ENDBRANCH   5  16
BRANCH   6  18
ATOM     18  O   UNL     1       4.998   2.702  20.727  0.00  0.00    +0.000 OA
ATOM     19  H   UNL     1       4.741   1.807  20.435  0.00  0.00    +0.000 HD
ENDBRANCH   6  18
ENDBRANCH   1   2
BRANCH   1  22
ATOM     20  C   UNL     1       2.491   6.360  18.460  0.00  0.00    +0.000 C 
ATOM     21  O   UNL     1       3.032   6.264  17.363  0.00  0.00    +0.000 OA
ATOM     22  N   UNL     1       2.048   5.236  19.119  0.00  0.00    +0.000 N 
ATOM     23  H   UNL     1       1.860   5.401  20.109  0.00  0.00    +0.000 HD
BRANCH  20  24
ATOM     24  CA  UNL     1       2.296   7.692  19.245  0.00  0.00    +0.000 C 
BRANCH  24  25
ATOM     25  N   UNL     1       1.432   8.591  18.432  0.00  0.00    +0.000 NA
ATOM     26  H1  UNL     1       1.960   9.451  18.248  0.00  0.00    +0.000 HD
ATOM     27  H2  UNL     1       0.647   8.906  19.009  0.00  0.00    +0.000 HD
ENDBRANCH  24  25
BRANCH  24  28
ATOM     28  C   UNL     1       1.727   7.440  20.662  0.00  0.00    +0.000 C 
BRANCH  28  29
ATOM     29  C   UNL     1       0.984   8.608  21.275  0.00  0.00    +0.000 A 
ATOM     30  C   UNL     1      -0.265   8.460  21.883  0.00  0.00    +0.000 A 
ATOM     31  C   UNL     1      -0.911   9.569  22.431  0.00  0.00    +0.000 A 
ATOM     32  C   UNL     1      -0.288  10.802  22.352  0.00  0.00    +0.000 A 
ATOM     33  N   UNL     1       0.909  10.990  21.760  0.00  0.00    +0.000 NA
ATOM     34  C   UNL     1       1.507   9.899  21.226  0.00  0.00    +0.000 A 
ENDBRANCH  28  29
ENDBRANCH  24  28
ENDBRANCH  20  24
ENDBRANCH   1  22
BRANCH   1  35
ATOM     35  C   UNL     1       0.820   3.004  19.019  0.00  0.00    +0.000 C 
ATOM     36  O   UNL     1       0.328   2.155  18.286  0.00  0.00    +0.000 OA
BRANCH  35  37
ATOM     37  OXT UNL     1       0.331   3.220  20.258  0.00  0.00    +0.000 OA
ATOM     38  HXT UNL     1       0.354   4.165  20.525  0.00  0.00    +0.000 HD
ENDBRANCH  35  37
ENDBRANCH   1  35
TORSDOF 11
ENDMDL
