MODEL 1
REMARK VINA RESULT:      -8.6      0.000      0.000
REMARK  Name = 
REMARK  5 active torsions:
REMARK  status: ('A' for Active; 'I' for Inactive)
REMARK    1  A    between atoms: N_1  and  C_2
REMARK    2  A    between atoms: C_2  and  C_3
REMARK    3  A    between atoms: C_2  and  C_21
REMARK    4  A    between atoms: C_8  and  N_9
REMARK    5  A    between atoms: N_9  and  C_10
REMARK                            x       y       z     vdW  Elec       q    Type
REMARK                         _______ _______ _______ _____ _____    ______ ____
ROOT
ATOM      1  C   UNL     1       5.428   4.349  16.893  0.00  0.00    +0.000 C 
ATOM      2  O   UNL     1       5.099   3.167  16.719  0.00  0.00    +0.000 OA
ATOM      3  N   UNL     1       4.654   5.213  17.659  0.00  0.00    +0.000 N 
ATOM      4  C   UNL     1       3.526   4.676  18.414  0.00  0.00    +0.000 C 
ATOM      5  C   UNL     1       2.228   5.344  17.981  0.00  0.00    +0.000 C 
ATOM      6  C   UNL     1       2.309   6.873  18.108  0.00  0.00    +0.000 C 
ATOM      7  C   UNL     1       3.522   7.366  17.297  0.00  0.00    +0.000 C 
ATOM      8  C   UNL     1       4.808   6.663  17.737  0.00  0.00    +0.000 C 
ENDROOT
BRANCH   6   9
ATOM      9  N   UNL     1       2.464   7.322  19.502  0.00  0.00    +0.000 N 
ATOM     10  H   UNL     1       3.438   7.472  19.756  0.00  0.00    +0.000 HD
BRANCH   9  11
ATOM     11  C   UNL     1       1.683   8.365  20.021  0.00  0.00    +0.000 A 
ATOM     12  C   UNL     1       1.181   9.412  19.243  0.00  0.00    +0.000 A 
ATOM     13  C   UNL     1       0.338  10.403  19.760  0.00  0.00    +0.000 A 
ATOM     14  C   UNL     1       0.000  10.301  21.108  0.00  0.00    +0.000 A 
ATOM     15  N   UNL     1      -0.781  11.088  21.908  0.00  0.00    +0.000 N 
ATOM     16  N   UNL     1      -0.871  10.653  23.179  0.00  0.00    +0.000 NA
ATOM     17  C   UNL     1      -0.130   9.540  23.183  0.00  0.00    +0.000 A 
ATOM     18  C   UNL     1       0.445   9.270  21.917  0.00  0.00    +0.000 A 
ATOM     19  C   UNL     1       1.274   8.278  21.367  0.00  0.00    +0.000 A 
ATOM     20  H   UNL     1      -1.276  11.934  21.650  0.00  0.00    +0.000 HD
ENDBRANCH   9  11
ENDBRANCH   6   9
BRANCH   1  21
ATOM     21  C   UNL     1       6.737   4.894  16.245  0.00  0.00    +0.000 C 
BRANCH  21  22
ATOM     22  C   UNL     1       6.734   4.678  14.740  0.00  0.00    +0.000 A 
ATOM     23  C   UNL     1       5.816   3.786  14.162  0.00  0.00    +0.000 A 
ATOM     24  C   UNL     1       5.873   3.483  12.802  0.00  0.00    +0.000 A 
ATOM     25  C   UNL     1       6.826   4.093  11.991  0.00  0.00    +0.000 A 
ATOM     26  C   UNL     1       7.709   5.022  12.536  0.00  0.00    +0.000 A 
ATOM     27  C   UNL     1       7.665   5.314  13.902  0.00  0.00    +0.000 A 
ENDBRANCH  21  22
BRANCH  21  28
ATOM     28  N   UNL     1       7.898   4.253  16.897  0.00  0.00    +0.000 NA
ATOM     29  H   UNL     1       8.742   4.766  16.659  0.00  0.00    +0.000 HD
ATOM     30  H   UNL     1       7.988   3.317  16.496  0.00  0.00    +0.000 HD
ENDBRANCH  21  28
ENDBRANCH   1  21
TORSDOF 5
ENDMDL
MODEL 2
REMARK VINA RESULT:      -8.2      0.461      1.408
REMARK  Name = 
REMARK  5 active torsions:
REMARK  status: ('A' for Active; 'I' for Inactive)
REMARK    1  A    between atoms: N_1  and  C_2
REMARK    2  A    between atoms: C_2  and  C_3
REMARK    3  A    between atoms: C_2  and  C_21
REMARK    4  A    between atoms: C_8  and  N_9
REMARK    5  A    between atoms: N_9  and  C_10
REMARK                            x       y       z     vdW  Elec       q    Type
REMARK                         _______ _______ _______ _____ _____    ______ ____
ROOT
ATOM      1  C   UNL     1       5.429   4.355  16.908  0.00  0.00    +0.000 C 
ATOM      2  O   UNL     1       5.082   3.181  16.720  0.00  0.00    +0.000 OA
ATOM      3  N   UNL     1       4.662   5.225  17.674  0.00  0.00    +0.000 N 
ATOM      4  C   UNL     1       3.517   4.700  18.412  0.00  0.00    +0.000 C 
ATOM      5  C   UNL     1       2.236   5.394  17.973  0.00  0.00    +0.000 C 
ATOM      6  C   UNL     1       2.341   6.920  18.115  0.00  0.00    +0.000 C 
ATOM      7  C   UNL     1       3.571   7.400  17.322  0.00  0.00    +0.000 C 
ATOM      8  C   UNL     1       4.840   6.671  17.768  0.00  0.00    +0.000 C 
ENDROOT
BRANCH   6   9
ATOM      9  N   UNL     1       2.489   7.354  19.516  0.00  0.00    +0.000 N 
ATOM     10  H   UNL     1       3.439   7.647  19.732  0.00  0.00    +0.000 HD
BRANCH   9  11
ATOM     11  C   UNL     1       1.580   8.248  20.099  0.00  0.00    +0.000 A 
ATOM     12  C   UNL     1       1.203   8.196  21.444  0.00  0.00    +0.000 A 
ATOM     13  C   UNL     1       0.356   9.144  22.030  0.00  0.00    +0.000 A 
ATOM     14  C   UNL     1      -0.102  10.171  21.208  0.00  0.00    +0.000 A 
ATOM     15  N   UNL     1      -0.929  11.231  21.458  0.00  0.00    +0.000 N 
ATOM     16  N   UNL     1      -1.139  12.024  20.390  0.00  0.00    +0.000 NA
ATOM     17  C   UNL     1      -0.407  11.453  19.428  0.00  0.00    +0.000 A 
ATOM     18  C   UNL     1       0.261  10.288  19.878  0.00  0.00    +0.000 A 
ATOM     19  C   UNL     1       1.129   9.333  19.320  0.00  0.00    +0.000 A 
ATOM     20  H   UNL     1      -1.384  11.468  22.333  0.00  0.00    +0.000 HD
ENDBRANCH   9  11
ENDBRANCH   6   9
BRANCH   1  21
ATOM     21  C   UNL     1       6.754   4.884  16.279  0.00  0.00    +0.000 C 
BRANCH  21  22
ATOM     22  C   UNL     1       6.761   4.688  14.771  0.00  0.00    +0.000 A 
ATOM     23  C   UNL     1       5.848   3.801  14.176  0.00  0.00    +0.000 A 
ATOM     24  C   UNL     1       5.914   3.516  12.812  0.00  0.00    +0.000 A 
ATOM     25  C   UNL     1       6.870   4.140  12.016  0.00  0.00    +0.000 A 
ATOM     26  C   UNL     1       7.748   5.063  12.578  0.00  0.00    +0.000 A 
ATOM     27  C   UNL     1       7.695   5.337  13.947  0.00  0.00    +0.000 A 
ENDBRANCH  21  22
BRANCH  21  28
ATOM     28  N   UNL     1       7.897   4.212  16.933  0.00  0.00    +0.000 NA
ATOM     29  H   UNL     1       8.227   3.458  16.337  0.00  0.00    +0.000 HD
ATOM     30  H   UNL     1       7.544   3.787  17.793  0.00  0.00    +0.000 HD
ENDBRANCH  21  28
ENDBRANCH   1  21
TORSDOF 5
ENDMDL
MODEL 3
REMARK VINA RESULT:      -7.9      1.236      1.488
REMARK  Name = 
REMARK  5 active torsions:
REMARK  status: ('A' for Active; 'I' for Inactive)
REMARK    1  A    between atoms: N_1  and  C_2
REMARK    2  A    between atoms: C_2  and  C_3
REMARK    3  A    between atoms: C_2  and  C_21
REMARK    4  A    between atoms: C_8  and  N_9
REMARK    5  A    between atoms: N_9  and  C_10
REMARK                            x       y       z     vdW  Elec       q    Type
REMARK                         _______ _______ _______ _____ _____    ______ ____
ROOT
ATOM      1  C   UNL     1       5.798   4.635  18.288  0.00  0.00    +0.000 C 
ATOM      2  O   UNL     1       5.662   3.501  18.769  0.00  0.00    +0.000 OA
ATOM      3  N   UNL     1       4.884   5.649  18.549  0.00  0.00    +0.000 N 
ATOM      4  C   UNL     1       3.841   5.426  19.545  0.00  0.00    +0.000 C 
ATOM      5  C   UNL     1       2.463   5.578  18.918  0.00  0.00    +0.000 C 
ATOM      6  C   UNL     1       2.300   6.944  18.234  0.00  0.00    +0.000 C 
ATOM      7  C   UNL     1       3.435   7.114  17.207  0.00  0.00    +0.000 C 
ATOM      8  C   UNL     1       4.807   6.934  17.860  0.00  0.00    +0.000 C 
ENDROOT
BRANCH   6   9
ATOM      9  N   UNL     1       2.357   8.068  19.185  0.00  0.00    +0.000 N 
ATOM     10  H   UNL     1       3.266   8.526  19.190  0.00  0.00    +0.000 HD
BRANCH   9  11
ATOM     11  C   UNL     1       1.347   9.040  19.223  0.00  0.00    +0.000 A 
ATOM     12  C   UNL     1       0.635   9.456  18.095  0.00  0.00    +0.000 A 
ATOM     13  C   UNL     1      -0.424  10.370  18.161  0.00  0.00    +0.000 A 
ATOM     14  C   UNL     1      -0.758  10.854  19.424  0.00  0.00    +0.000 A 
ATOM     15  N   UNL     1      -1.715  11.742  19.830  0.00  0.00    +0.000 N 
ATOM     16  N   UNL     1      -1.731  11.959  21.158  0.00  0.00    +0.000 NA
ATOM     17  C   UNL     1      -0.754  11.168  21.616  0.00  0.00    +0.000 A 
ATOM     18  C   UNL     1      -0.106  10.455  20.578  0.00  0.00    +0.000 A 
ATOM     19  C   UNL     1       0.941   9.522  20.484  0.00  0.00    +0.000 A 
ATOM     20  H   UNL     1      -2.386  12.236  19.252  0.00  0.00    +0.000 HD
ENDBRANCH   9  11
ENDBRANCH   6   9
BRANCH   1  21
ATOM     21  C   UNL     1       7.016   4.946  17.366  0.00  0.00    +0.000 C 
BRANCH  21  22
ATOM     22  C   UNL     1       6.676   4.698  15.905  0.00  0.00    +0.000 A 
ATOM     23  C   UNL     1       5.492   4.022  15.567  0.00  0.00    +0.000 A 
ATOM     24  C   UNL     1       5.217   3.679  14.243  0.00  0.00    +0.000 A 
ATOM     25  C   UNL     1       6.105   4.038  13.232  0.00  0.00    +0.000 A 
ATOM     26  C   UNL     1       7.257   4.757  13.542  0.00  0.00    +0.000 A 
ATOM     27  C   UNL     1       7.543   5.086  14.870  0.00  0.00    +0.000 A 
ENDBRANCH  21  22
BRANCH  21  28
ATOM     28  N   UNL     1       8.173   4.141  17.812  0.00  0.00    +0.000 NA
ATOM     29  H   UNL     1       7.847   3.229  18.121  0.00  0.00    +0.000 HD
ATOM     30  H   UNL     1       8.572   4.613  18.626  0.00  0.00    +0.000 HD
ENDBRANCH  21  28
ENDBRANCH   1  21
TORSDOF 5
ENDMDL
MODEL 4
REMARK VINA RESULT:      -7.8      2.268      9.339
REMARK  Name = 
REMARK  5 active torsions:
REMARK  status: ('A' for Active; 'I' for Inactive)
REMARK    1  A    between atoms: N_1  and  C_2
REMARK    2  A    between atoms: C_2  and  C_3
REMARK    3  A    between atoms: C_2  and  C_21
REMARK    4  A    between atoms: C_8  and  N_9
REMARK    5  A    between atoms: N_9  and  C_10
REMARK                            x       y       z     vdW  Elec       q    Type
REMARK                         _______ _______ _______ _____ _____    ______ ____
ROOT
ATOM      1  C   UNL     1       1.437   8.552  20.271  0.00  0.00    +0.000 C 
ATOM      2  O   UNL     1       1.250   9.425  19.411  0.00  0.00    +0.000 OA
ATOM      3  N   UNL     1       2.093   7.365  19.969  0.00  0.00    +0.000 N 
ATOM      4  C   UNL     1       2.726   7.215  18.662  0.00  0.00    +0.000 C 
ATOM      5  C   UNL     1       2.136   6.026  17.917  0.00  0.00    +0.000 C 
ATOM      6  C   UNL     1       2.241   4.733  18.740  0.00  0.00    +0.000 C 
ATOM      7  C   UNL     1       1.563   4.967  20.103  0.00  0.00    +0.000 C 
ATOM      8  C   UNL     1       2.159   6.181  20.820  0.00  0.00    +0.000 C 
ENDROOT
BRANCH   6   9
ATOM      9  N   UNL     1       3.635   4.318  18.976  0.00  0.00    +0.000 N 
ATOM     10  H   UNL     1       3.711   3.333  19.221  0.00  0.00    +0.000 HD
BRANCH   9  11
ATOM     11  C   UNL     1       4.655   4.653  18.075  0.00  0.00    +0.000 A 
ATOM     12  C   UNL     1       5.830   5.310  18.449  0.00  0.00    +0.000 A 
ATOM     13  C   UNL     1       6.873   5.568  17.552  0.00  0.00    +0.000 A 
ATOM     14  C   UNL     1       6.699   5.127  16.242  0.00  0.00    +0.000 A 
ATOM     15  N   UNL     1       7.504   5.221  15.140  0.00  0.00    +0.000 N 
ATOM     16  N   UNL     1       6.980   4.661  14.034  0.00  0.00    +0.000 NA
ATOM     17  C   UNL     1       5.803   4.183  14.451  0.00  0.00    +0.000 A 
ATOM     18  C   UNL     1       5.569   4.447  15.823  0.00  0.00    +0.000 A 
ATOM     19  C   UNL     1       4.546   4.185  16.750  0.00  0.00    +0.000 A 
ATOM     20  H   UNL     1       8.418   5.655  15.076  0.00  0.00    +0.000 HD
ENDBRANCH   9  11
ENDBRANCH   6   9
BRANCH   1  21
ATOM     21  C   UNL     1       0.930   8.777  21.727  0.00  0.00    +0.000 C 
BRANCH  21  22
ATOM     22  C   UNL     1      -0.112   9.883  21.781  0.00  0.00    +0.000 A 
ATOM     23  C   UNL     1      -0.477  10.559  20.604  0.00  0.00    +0.000 A 
ATOM     24  C   UNL     1      -1.340  11.654  20.648  0.00  0.00    +0.000 A 
ATOM     25  C   UNL     1      -1.879  12.069  21.863  0.00  0.00    +0.000 A 
ATOM     26  C   UNL     1      -1.571  11.377  23.032  0.00  0.00    +0.000 A 
ATOM     27  C   UNL     1      -0.693  10.291  22.993  0.00  0.00    +0.000 A 
ENDBRANCH  21  22
BRANCH  21  28
ATOM     28  N   UNL     1       2.089   9.061  22.600  0.00  0.00    +0.000 NA
ATOM     29  H   UNL     1       2.068   8.434  23.399  0.00  0.00    +0.000 HD
ATOM     30  H   UNL     1       1.971  10.011  22.956  0.00  0.00    +0.000 HD
ENDBRANCH  21  28
ENDBRANCH   1  21
TORSDOF 5
ENDMDL
MODEL 5
REMARK VINA RESULT:      -7.8      1.215      1.480
REMARK  Name = 
REMARK  5 active torsions:
REMARK  status: ('A' for Active; 'I' for Inactive)
REMARK    1  A    between atoms: N_1  and  C_2
REMARK    2  A    between atoms: C_2  and  C_3
REMARK    3  A    between atoms: C_2  and  C_21
REMARK    4  A    between atoms: C_8  and  N_9
REMARK    5  A    between atoms: N_9  and  C_10
REMARK                            x       y       z     vdW  Elec       q    Type
REMARK                         _______ _______ _______ _____ _____    ______ ____
ROOT
ATOM      1  C   UNL     1       5.425   4.399  18.726  0.00  0.00    +0.000 C 
ATOM      2  O   UNL     1       5.311   3.184  18.941  0.00  0.00    +0.000 OA
ATOM      3  N   UNL     1       4.527   5.317  19.256  0.00  0.00    +0.000 N 
ATOM      4  C   UNL     1       3.534   4.862  20.225  0.00  0.00    +0.000 C 
ATOM      5  C   UNL     1       2.127   5.140  19.717  0.00  0.00    +0.000 C 
ATOM      6  C   UNL     1       1.931   6.624  19.372  0.00  0.00    +0.000 C 
ATOM      7  C   UNL     1       3.015   7.035  18.358  0.00  0.00    +0.000 C 
ATOM      8  C   UNL     1       4.417   6.725  18.884  0.00  0.00    +0.000 C 
ENDROOT
BRANCH   6   9
ATOM      9  N   UNL     1       2.038   7.502  20.551  0.00  0.00    +0.000 N 
ATOM     10  H   UNL     1       3.002   7.742  20.771  0.00  0.00    +0.000 HD
BRANCH   9  11
ATOM     11  C   UNL     1       1.233   8.643  20.682  0.00  0.00    +0.000 A 
ATOM     12  C   UNL     1       0.926   9.495  19.618  0.00  0.00    +0.000 A 
ATOM     13  C   UNL     1       0.058  10.586  19.748  0.00  0.00    +0.000 A 
ATOM     14  C   UNL     1      -0.510  10.792  21.003  0.00  0.00    +0.000 A 
ATOM     15  N   UNL     1      -1.375  11.747  21.461  0.00  0.00    +0.000 N 
ATOM     16  N   UNL     1      -1.704  11.609  22.759  0.00  0.00    +0.000 NA
ATOM     17  C   UNL     1      -1.031  10.517  23.138  0.00  0.00    +0.000 A 
ATOM     18  C   UNL     1      -0.263   9.964  22.084  0.00  0.00    +0.000 A 
ATOM     19  C   UNL     1       0.597   8.864  21.920  0.00  0.00    +0.000 A 
ATOM     20  H   UNL     1      -1.776  12.520  20.941  0.00  0.00    +0.000 HD
ENDBRANCH   9  11
ENDBRANCH   6   9
BRANCH   1  21
ATOM     21  C   UNL     1       6.596   4.925  17.842  0.00  0.00    +0.000 C 
BRANCH  21  22
ATOM     22  C   UNL     1       6.302   4.721  16.364  0.00  0.00    +0.000 A 
ATOM     23  C   UNL     1       5.034   4.273  15.958  0.00  0.00    +0.000 A 
ATOM     24  C   UNL     1       4.779   3.966  14.621  0.00  0.00    +0.000 A 
ATOM     25  C   UNL     1       5.776   4.135  13.665  0.00  0.00    +0.000 A 
ATOM     26  C   UNL     1       7.022   4.630  14.041  0.00  0.00    +0.000 A 
ATOM     27  C   UNL     1       7.286   4.921  15.382  0.00  0.00    +0.000 A 
ENDBRANCH  21  22
BRANCH  21  28
ATOM     28  N   UNL     1       7.848   4.256  18.257  0.00  0.00    +0.000 NA
ATOM     29  H   UNL     1       8.528   4.323  17.506  0.00  0.00    +0.000 HD
ATOM     30  H   UNL     1       7.631   3.265  18.384  0.00  0.00    +0.000 HD
ENDBRANCH  21  28
ENDBRANCH   1  21
TORSDOF 5
ENDMDL
MODEL 6
REMARK VINA RESULT:      -7.6      1.159      1.909
REMARK  Name = 
REMARK  5 active torsions:
REMARK  status: ('A' for Active; 'I' for Inactive)
REMARK    1  A    between atoms: N_1  and  C_2
REMARK    2  A    between atoms: C_2  and  C_3
REMARK    3  A    between atoms: C_2  and  C_21
REMARK    4  A    between atoms: C_8  and  N_9
REMARK    5  A    between atoms: N_9  and  C_10
REMARK                            x       y       z     vdW  Elec       q    Type
REMARK                         _______ _______ _______ _____ _____    ______ ____
ROOT
ATOM      1  C   UNL     1       5.710   4.405  18.286  0.00  0.00    +0.000 C 
ATOM      2  O   UNL     1       5.595   3.204  18.565  0.00  0.00    +0.000 OA
ATOM      3  N   UNL     1       4.818   5.352  18.774  0.00  0.00    +0.000 N 
ATOM      4  C   UNL     1       3.830   4.951  19.772  0.00  0.00    +0.000 C 
ATOM      5  C   UNL     1       2.420   5.206  19.259  0.00  0.00    +0.000 C 
ATOM      6  C   UNL     1       2.226   6.671  18.840  0.00  0.00    +0.000 C 
ATOM      7  C   UNL     1       3.303   7.026  17.798  0.00  0.00    +0.000 C 
ATOM      8  C   UNL     1       4.709   6.739  18.330  0.00  0.00    +0.000 C 
ENDROOT
BRANCH   6   9
ATOM      9  N   UNL     1       2.343   7.609  19.971  0.00  0.00    +0.000 N 
ATOM     10  H   UNL     1       3.256   8.057  20.010  0.00  0.00    +0.000 HD
BRANCH   9  11
ATOM     11  C   UNL     1       1.346   8.559  20.232  0.00  0.00    +0.000 A 
ATOM     12  C   UNL     1       0.794   8.768  21.499  0.00  0.00    +0.000 A 
ATOM     13  C   UNL     1      -0.145   9.774  21.760  0.00  0.00    +0.000 A 
ATOM     14  C   UNL     1      -0.512  10.584  20.688  0.00  0.00    +0.000 A 
ATOM     15  N   UNL     1      -1.387  11.631  20.602  0.00  0.00    +0.000 N 
ATOM     16  N   UNL     1      -1.470  12.174  19.373  0.00  0.00    +0.000 NA
ATOM     17  C   UNL     1      -0.604  11.452  18.653  0.00  0.00    +0.000 A 
ATOM     18  C   UNL     1       0.024  10.440  19.420  0.00  0.00    +0.000 A 
ATOM     19  C   UNL     1       0.979   9.435  19.191  0.00  0.00    +0.000 A 
ATOM     20  H   UNL     1      -1.960  12.022  21.342  0.00  0.00    +0.000 HD
ENDBRANCH   9  11
ENDBRANCH   6   9
BRANCH   1  21
ATOM     21  C   UNL     1       6.876   4.881  17.368  0.00  0.00    +0.000 C 
BRANCH  21  22
ATOM     22  C   UNL     1       6.539   4.673  15.900  0.00  0.00    +0.000 A 
ATOM     23  C   UNL     1       5.284   4.155  15.537  0.00  0.00    +0.000 A 
ATOM     24  C   UNL     1       4.997   3.845  14.207  0.00  0.00    +0.000 A 
ATOM     25  C   UNL     1       5.946   4.080  13.216  0.00  0.00    +0.000 A 
ATOM     26  C   UNL     1       7.174   4.644  13.551  0.00  0.00    +0.000 A 
ATOM     27  C   UNL     1       7.471   4.939  14.884  0.00  0.00    +0.000 A 
ENDBRANCH  21  22
BRANCH  21  28
ATOM     28  N   UNL     1       8.114   4.174  17.760  0.00  0.00    +0.000 NA
ATOM     29  H   UNL     1       8.613   3.883  16.924  0.00  0.00    +0.000 HD
ATOM     30  H   UNL     1       7.831   3.325  18.255  0.00  0.00    +0.000 HD
ENDBRANCH  21  28
ENDBRANCH   1  21
TORSDOF 5
ENDMDL
MODEL 7
REMARK VINA RESULT:      -7.6      2.355      3.064
REMARK  Name = 
REMARK  5 active torsions:
REMARK  status: ('A' for Active; 'I' for Inactive)
REMARK    1  A    between atoms: N_1  and  C_2
REMARK    2  A    between atoms: C_2  and  C_3
REMARK    3  A    between atoms: C_2  and  C_21
REMARK    4  A    between atoms: C_8  and  N_9
REMARK    5  A    between atoms: N_9  and  C_10
REMARK                            x       y       z     vdW  Elec       q    Type
REMARK                         _______ _______ _______ _____ _____    ______ ____
ROOT
ATOM      1  C   UNL     1       4.611   3.786  18.715  0.00  0.00    +0.000 C 
ATOM      2  O   UNL     1       4.545   2.638  19.177  0.00  0.00    +0.000 OA
ATOM      3  N   UNL     1       3.900   4.838  19.281  0.00  0.00    +0.000 N 
ATOM      4  C   UNL     1       3.200   4.625  20.544  0.00  0.00    +0.000 C 
ATOM      5  C   UNL     1       1.712   4.894  20.381  0.00  0.00    +0.000 C 
ATOM      6  C   UNL     1       1.448   6.303  19.828  0.00  0.00    +0.000 C 
ATOM      7  C   UNL     1       2.222   6.459  18.505  0.00  0.00    +0.000 C 
ATOM      8  C   UNL     1       3.711   6.161  18.693  0.00  0.00    +0.000 C 
ENDROOT
BRANCH   6   9
ATOM      9  N   UNL     1       1.880   7.368  20.750  0.00  0.00    +0.000 N 
ATOM     10  H   UNL     1       2.873   7.574  20.668  0.00  0.00    +0.000 HD
BRANCH   9  11
ATOM     11  C   UNL     1       1.163   8.568  20.859  0.00  0.00    +0.000 A 
ATOM     12  C   UNL     1       0.990   9.462  19.799  0.00  0.00    +0.000 A 
ATOM     13  C   UNL     1       0.207  10.618  19.902  0.00  0.00    +0.000 A 
ATOM     14  C   UNL     1      -0.418  10.847  21.126  0.00  0.00    +0.000 A 
ATOM     15  N   UNL     1      -1.229  11.861  21.553  0.00  0.00    +0.000 N 
ATOM     16  N   UNL     1      -1.647  11.726  22.826  0.00  0.00    +0.000 NA
ATOM     17  C   UNL     1      -1.089  10.576  23.219  0.00  0.00    +0.000 A 
ATOM     18  C   UNL     1      -0.305   9.981  22.201  0.00  0.00    +0.000 A 
ATOM     19  C   UNL     1       0.473   8.818  22.063  0.00  0.00    +0.000 A 
ATOM     20  H   UNL     1      -1.534  12.673  21.028  0.00  0.00    +0.000 HD
ENDBRANCH   9  11
ENDBRANCH   6   9
BRANCH   1  21
ATOM     21  C   UNL     1       5.506   4.073  17.472  0.00  0.00    +0.000 C 
BRANCH  21  22
ATOM     22  C   UNL     1       6.494   5.193  17.753  0.00  0.00    +0.000 A 
ATOM     23  C   UNL     1       7.292   5.149  18.909  0.00  0.00    +0.000 A 
ATOM     24  C   UNL     1       8.118   6.221  19.248  0.00  0.00    +0.000 A 
ATOM     25  C   UNL     1       8.184   7.339  18.421  0.00  0.00    +0.000 A 
ATOM     26  C   UNL     1       7.442   7.376  17.243  0.00  0.00    +0.000 A 
ATOM     27  C   UNL     1       6.601   6.312  16.910  0.00  0.00    +0.000 A 
ENDBRANCH  21  22
BRANCH  21  28
ATOM     28  N   UNL     1       4.637   4.375  16.314  0.00  0.00    +0.000 NA
ATOM     29  H   UNL     1       3.721   4.661  16.649  0.00  0.00    +0.000 HD
ATOM     30  H   UNL     1       4.512   3.503  15.796  0.00  0.00    +0.000 HD
ENDBRANCH  21  28
ENDBRANCH   1  21
TORSDOF 5
ENDMDL
MODEL 8
REMARK VINA RESULT:      -7.5      2.584      9.090
REMARK  Name = 
REMARK  5 active torsions:
REMARK  status: ('A' for Active; 'I' for Inactive)
REMARK    1  A    between atoms: N_1  and  C_2
REMARK    2  A    between atoms: C_2  and  C_3
REMARK    3  A    between atoms: C_2  and  C_21
REMARK    4  A    between atoms: C_8  and  N_9
REMARK    5  A    between atoms: N_9  and  C_10
REMARK                            x       y       z     vdW  Elec       q    Type
REMARK                         _______ _______ _______ _____ _____    ______ ____
ROOT
ATOM      1  C   UNL     1       1.387   8.453  20.403  0.00  0.00    +0.000 C 
ATOM      2  O   UNL     1       1.172   9.280  19.506  0.00  0.00    +0.000 OA
ATOM      3  N   UNL     1       1.973   7.222  20.130  0.00  0.00    +0.000 N 
ATOM      4  C   UNL     1       2.502   6.968  18.793  0.00  0.00    +0.000 C 
ATOM      5  C   UNL     1       1.814   5.764  18.167  0.00  0.00    +0.000 C 
ATOM      6  C   UNL     1       1.928   4.519  19.060  0.00  0.00    +0.000 C 
ATOM      7  C   UNL     1       1.362   4.862  20.450  0.00  0.00    +0.000 C 
ATOM      8  C   UNL     1       2.055   6.089  21.046  0.00  0.00    +0.000 C 
ENDROOT
BRANCH   6   9
ATOM      9  N   UNL     1       3.319   4.059  19.222  0.00  0.00    +0.000 N 
ATOM     10  H   UNL     1       3.375   3.071  19.462  0.00  0.00    +0.000 HD
BRANCH   9  11
ATOM     11  C   UNL     1       4.300   4.362  18.267  0.00  0.00    +0.000 A 
ATOM     12  C   UNL     1       4.333   3.798  16.989  0.00  0.00    +0.000 A 
ATOM     13  C   UNL     1       5.273   4.170  16.021  0.00  0.00    +0.000 A 
ATOM     14  C   UNL     1       6.193   5.153  16.382  0.00  0.00    +0.000 A 
ATOM     15  N   UNL     1       7.223   5.727  15.690  0.00  0.00    +0.000 N 
ATOM     16  N   UNL     1       7.896   6.661  16.389  0.00  0.00    +0.000 NA
ATOM     17  C   UNL     1       7.261   6.689  17.566  0.00  0.00    +0.000 A 
ATOM     18  C   UNL     1       6.189   5.765  17.623  0.00  0.00    +0.000 A 
ATOM     19  C   UNL     1       5.221   5.386  18.569  0.00  0.00    +0.000 A 
ATOM     20  H   UNL     1       7.520   5.526  14.742  0.00  0.00    +0.000 HD
ENDBRANCH   9  11
ENDBRANCH   6   9
BRANCH   1  21
ATOM     21  C   UNL     1       0.997   8.784  21.875  0.00  0.00    +0.000 C 
BRANCH  21  22
ATOM     22  C   UNL     1      -0.068   9.868  21.929  0.00  0.00    +0.000 A 
ATOM     23  C   UNL     1      -0.355  10.626  20.782  0.00  0.00    +0.000 A 
ATOM     24  C   UNL     1      -1.242  11.701  20.839  0.00  0.00    +0.000 A 
ATOM     25  C   UNL     1      -1.882  12.013  22.035  0.00  0.00    +0.000 A 
ATOM     26  C   UNL     1      -1.652  11.238  23.169  0.00  0.00    +0.000 A 
ATOM     27  C   UNL     1      -0.751  10.172  23.119  0.00  0.00    +0.000 A 
ENDBRANCH  21  22
BRANCH  21  28
ATOM     28  N   UNL     1       2.216   9.166  22.620  0.00  0.00    +0.000 NA
ATOM     29  H   UNL     1       2.932   8.460  22.474  0.00  0.00    +0.000 HD
ATOM     30  H   UNL     1       1.977   9.155  23.613  0.00  0.00    +0.000 HD
ENDBRANCH  21  28
ENDBRANCH   1  21
TORSDOF 5
ENDMDL
MODEL 9
REMARK VINA RESULT:      -7.4      1.333      2.283
REMARK  Name = 
REMARK  5 active torsions:
REMARK  status: ('A' for Active; 'I' for Inactive)
REMARK    1  A    between atoms: N_1  and  C_2
REMARK    2  A    between atoms: C_2  and  C_3
REMARK    3  A    between atoms: C_2  and  C_21
REMARK    4  A    between atoms: C_8  and  N_9
REMARK    5  A    between atoms: N_9  and  C_10
REMARK                            x       y       z     vdW  Elec       q    Type
REMARK                         _______ _______ _______ _____ _____    ______ ____
ROOT
ATOM      1  C   UNL     1       5.384   4.380  18.728  0.00  0.00    +0.000 C 
ATOM      2  O   UNL     1       5.256   3.165  18.933  0.00  0.00    +0.000 OA
ATOM      3  N   UNL     1       4.495   5.303  19.266  0.00  0.00    +0.000 N 
ATOM      4  C   UNL     1       3.496   4.851  20.229  0.00  0.00    +0.000 C 
ATOM      5  C   UNL     1       2.092   5.149  19.721  0.00  0.00    +0.000 C 
ATOM      6  C   UNL     1       1.915   6.639  19.390  0.00  0.00    +0.000 C 
ATOM      7  C   UNL     1       3.004   7.047  18.380  0.00  0.00    +0.000 C 
ATOM      8  C   UNL     1       4.402   6.715  18.906  0.00  0.00    +0.000 C 
ENDROOT
BRANCH   6   9
ATOM      9  N   UNL     1       2.029   7.505  20.576  0.00  0.00    +0.000 N 
ATOM     10  H   UNL     1       2.986   7.808  20.745  0.00  0.00    +0.000 HD
BRANCH   9  11
ATOM     11  C   UNL     1       1.157   8.585  20.774  0.00  0.00    +0.000 A 
ATOM     12  C   UNL     1       0.733   9.012  22.035  0.00  0.00    +0.000 A 
ATOM     13  C   UNL     1      -0.075  10.140  22.221  0.00  0.00    +0.000 A 
ATOM     14  C   UNL     1      -0.444  10.844  21.077  0.00  0.00    +0.000 A 
ATOM     15  N   UNL     1      -1.214  11.962  20.910  0.00  0.00    +0.000 N 
ATOM     16  N   UNL     1      -1.340  12.351  19.627  0.00  0.00    +0.000 NA
ATOM     17  C   UNL     1      -0.612  11.453  18.955  0.00  0.00    +0.000 A 
ATOM     18  C   UNL     1      -0.030  10.483  19.806  0.00  0.00    +0.000 A 
ATOM     19  C   UNL     1       0.797   9.357  19.652  0.00  0.00    +0.000 A 
ATOM     20  H   UNL     1      -1.682  12.504  21.627  0.00  0.00    +0.000 HD
ENDBRANCH   9  11
ENDBRANCH   6   9
BRANCH   1  21
ATOM     21  C   UNL     1       6.562   4.900  17.851  0.00  0.00    +0.000 C 
BRANCH  21  22
ATOM     22  C   UNL     1       6.324   4.601  16.380  0.00  0.00    +0.000 A 
ATOM     23  C   UNL     1       7.357   4.800  15.448  0.00  0.00    +0.000 A 
ATOM     24  C   UNL     1       7.126   4.646  14.081  0.00  0.00    +0.000 A 
ATOM     25  C   UNL     1       5.869   4.257  13.626  0.00  0.00    +0.000 A 
ATOM     26  C   UNL     1       4.848   4.001  14.539  0.00  0.00    +0.000 A 
ATOM     27  C   UNL     1       5.072   4.172  15.907  0.00  0.00    +0.000 A 
ENDBRANCH  21  22
BRANCH  21  28
ATOM     28  N   UNL     1       7.824   4.306  18.342  0.00  0.00    +0.000 NA
ATOM     29  H   UNL     1       8.523   5.037  18.440  0.00  0.00    +0.000 HD
ATOM     30  H   UNL     1       8.155   3.664  17.619  0.00  0.00    +0.000 HD
ENDBRANCH  21  28
ENDBRANCH   1  21
TORSDOF 5
ENDMDL
