MODEL 1
REMARK VINA RESULT:      -7.0      0.000      0.000
REMARK  Name = 
REMARK  6 active torsions:
REMARK  status: ('A' for Active; 'I' for Inactive)
REMARK    1  A    between atoms: C_2  and  O_3
REMARK    2  A    between atoms: C_2  and  C_8
REMARK    3  A    between atoms: O_3  and  C_4
REMARK    4  A    between atoms: C_4  and  C_5
REMARK    5  A    between atoms: C_14  and  C_15
REMARK    6  A    between atoms: C_21  and  C_22
REMARK                            x       y       z     vdW  Elec       q    Type
REMARK                         _______ _______ _______ _____ _____    ______ ____
ROOT
ATOM      1  C   UNL     1       3.236   4.483  19.144  0.00  0.00    +0.000 C 
ATOM      2  C   UNL     1       2.584   3.604  19.928  0.00  0.00    +0.000 C 
ATOM      3  C   UNL     1       1.127   3.511  20.305  0.00  0.00    +0.000 C 
ATOM      4  C   UNL     1       1.203   2.813  21.662  0.00  0.00    +0.000 C 
ATOM      5  C   UNL     1       2.434   1.910  21.567  0.00  0.00    +0.000 C 
ATOM      6  N   UNL     1       3.275   2.615  20.608  0.00  0.00    +0.000 N 
ATOM      7  C   UNL     1       4.620   2.352  20.385  0.00  0.00    +0.000 C 
ATOM      8  N   UNL     1       5.341   3.162  19.668  0.00  0.00    +0.000 NA
ATOM      9  C   UNL     1       4.749   4.395  19.074  0.00  0.00    +0.000 C 
ENDROOT
BRANCH   9  10
ATOM     10  C   UNL     1       5.368   4.548  17.687  0.00  0.00    +0.000 A 
ATOM     11  C   UNL     1       4.733   3.943  16.580  0.00  0.00    +0.000 A 
ATOM     12  C   UNL     1       5.280   4.040  15.299  0.00  0.00    +0.000 A 
ATOM     13  C   UNL     1       6.465   4.735  15.112  0.00  0.00    +0.000 A 
ATOM     14  F   UNL     1       6.983   4.838  13.881  0.00  0.00    +0.000 F 
ATOM     15  C   UNL     1       7.126   5.321  16.182  0.00  0.00    +0.000 A 
ATOM     16  C   UNL     1       6.584   5.225  17.466  0.00  0.00    +0.000 A 
ATOM     17 CL   UNL     1       7.484   5.962  18.745  0.00  0.00    +0.000 Cl
ENDBRANCH   9  10
BRANCH   7  18
ATOM     18  C   UNL     1       5.305   1.144  20.900  0.00  0.00    +0.000 A 
ATOM     19  N   UNL     1       5.915   1.110  22.073  0.00  0.00    +0.000 NA
ATOM     20  C   UNL     1       6.428  -0.153  22.300  0.00  0.00    +0.000 A 
ATOM     21  C   UNL     1       6.215  -1.070  21.295  0.00  0.00    +0.000 A 
ATOM     22  S   UNL     1       5.333  -0.337  20.023  0.00  0.00    +0.000 S 
ENDBRANCH   7  18
BRANCH   1  24
ATOM     23  O   UNL     1       1.700   5.445  17.589  0.00  0.00    +0.000 OA
ATOM     24  C   UNL     1       2.459   5.593  18.537  0.00  0.00    +0.000 C 
BRANCH  24  25
ATOM     25  O   UNL     1       2.812   6.797  19.031  0.00  0.00    +0.000 OA
BRANCH  25  26
ATOM     26  C   UNL     1       2.848   7.884  18.079  0.00  0.00    +0.000 C 
BRANCH  26  27
ATOM     27  C   UNL     1       1.734   8.927  18.124  0.00  0.00    +0.000 C 
ATOM     28  F   UNL     1       1.472   9.271  19.411  0.00  0.00    +0.000 F 
ATOM     29  F   UNL     1       2.188  10.062  17.518  0.00  0.00    +0.000 F 
ENDBRANCH  26  27
ENDBRANCH  25  26
ENDBRANCH  24  25
ENDBRANCH   1  24
TORSDOF 6
ENDMDL
MODEL 2
REMARK VINA RESULT:      -6.6      0.811      1.090
REMARK  Name = 
REMARK  6 active torsions:
REMARK  status: ('A' for Active; 'I' for Inactive)
REMARK    1  A    between atoms: C_2  and  O_3
REMARK    2  A    between atoms: C_2  and  C_8
REMARK    3  A    between atoms: O_3  and  C_4
REMARK    4  A    between atoms: C_4  and  C_5
REMARK    5  A    between atoms: C_14  and  C_15
REMARK    6  A    between atoms: C_21  and  C_22
REMARK                            x       y       z     vdW  Elec       q    Type
REMARK                         _______ _______ _______ _____ _____    ______ ____
ROOT
ATOM      1  C   UNL     1       3.222   4.570  19.161  0.00  0.00    +0.000 C 
ATOM      2  C   UNL     1       2.567   3.684  19.934  0.00  0.00    +0.000 C 
ATOM      3  C   UNL     1       1.112   3.595  20.316  0.00  0.00    +0.000 C 
ATOM      4  C   UNL     1       1.187   2.876  21.662  0.00  0.00    +0.000 C 
ATOM      5  C   UNL     1       2.412   1.966  21.548  0.00  0.00    +0.000 C 
ATOM      6  N   UNL     1       3.254   2.679  20.596  0.00  0.00    +0.000 N 
ATOM      7  C   UNL     1       4.596   2.411  20.364  0.00  0.00    +0.000 C 
ATOM      8  N   UNL     1       5.320   3.227  19.657  0.00  0.00    +0.000 NA
ATOM      9  C   UNL     1       4.734   4.473  19.084  0.00  0.00    +0.000 C 
ENDROOT
BRANCH   9  10
ATOM     10  C   UNL     1       5.349   4.643  17.697  0.00  0.00    +0.000 A 
ATOM     11  C   UNL     1       4.722   4.034  16.587  0.00  0.00    +0.000 A 
ATOM     12  C   UNL     1       5.265   4.146  15.306  0.00  0.00    +0.000 A 
ATOM     13  C   UNL     1       6.439   4.860  15.121  0.00  0.00    +0.000 A 
ATOM     14  F   UNL     1       6.954   4.978  13.890  0.00  0.00    +0.000 F 
ATOM     15  C   UNL     1       7.092   5.451  16.194  0.00  0.00    +0.000 A 
ATOM     16  C   UNL     1       6.554   5.340  17.478  0.00  0.00    +0.000 A 
ATOM     17 CL   UNL     1       7.444   6.083  18.760  0.00  0.00    +0.000 Cl
ENDBRANCH   9  10
BRANCH   7  18
ATOM     18  C   UNL     1       5.276   1.191  20.858  0.00  0.00    +0.000 A 
ATOM     19  N   UNL     1       5.876   1.130  22.035  0.00  0.00    +0.000 NA
ATOM     20  C   UNL     1       6.386  -0.138  22.238  0.00  0.00    +0.000 A 
ATOM     21  C   UNL     1       6.178  -1.033  21.212  0.00  0.00    +0.000 A 
ATOM     22  S   UNL     1       5.306  -0.271  19.950  0.00  0.00    +0.000 S 
ENDBRANCH   7  18
BRANCH   1  24
ATOM     23  O   UNL     1       1.756   5.585  17.573  0.00  0.00    +0.000 OA
ATOM     24  C   UNL     1       2.450   5.695  18.575  0.00  0.00    +0.000 C 
BRANCH  24  25
ATOM     25  O   UNL     1       2.734   6.874  19.162  0.00  0.00    +0.000 OA
BRANCH  25  26
ATOM     26  C   UNL     1       2.111   7.107  20.445  0.00  0.00    +0.000 C 
BRANCH  26  27
ATOM     27  C   UNL     1       1.386   8.432  20.670  0.00  0.00    +0.000 C 
ATOM     28  F   UNL     1       1.280   9.109  19.498  0.00  0.00    +0.000 F 
ATOM     29  F   UNL     1       0.108   8.157  21.061  0.00  0.00    +0.000 F 
ENDBRANCH  26  27
ENDBRANCH  25  26
ENDBRANCH  24  25
ENDBRANCH   1  24
TORSDOF 6
ENDMDL
MODEL 3
REMARK VINA RESULT:      -6.6      1.172      1.247
REMARK  Name = 
REMARK  6 active torsions:
REMARK  status: ('A' for Active; 'I' for Inactive)
REMARK    1  A    between atoms: C_2  and  O_3
REMARK    2  A    between atoms: C_2  and  C_8
REMARK    3  A    between atoms: O_3  and  C_4
REMARK    4  A    between atoms: C_4  and  C_5
REMARK    5  A    between atoms: C_14  and  C_15
REMARK    6  A    between atoms: C_21  and  C_22
REMARK                            x       y       z     vdW  Elec       q    Type
REMARK                         _______ _______ _______ _____ _____    ______ ____
ROOT
ATOM      1  C   UNL     1       3.304   4.340  19.141  0.00  0.00    +0.000 C 
ATOM      2  C   UNL     1       2.654   3.485  19.953  0.00  0.00    +0.000 C 
ATOM      3  C   UNL     1       1.200   3.412  20.344  0.00  0.00    +0.000 C 
ATOM      4  C   UNL     1       1.283   2.748  21.717  0.00  0.00    +0.000 C 
ATOM      5  C   UNL     1       2.508   1.835  21.635  0.00  0.00    +0.000 C 
ATOM      6  N   UNL     1       3.345   2.509  20.651  0.00  0.00    +0.000 N 
ATOM      7  C   UNL     1       4.686   2.233  20.424  0.00  0.00    +0.000 C 
ATOM      8  N   UNL     1       5.406   3.020  19.681  0.00  0.00    +0.000 NA
ATOM      9  C   UNL     1       4.816   4.241  19.061  0.00  0.00    +0.000 C 
ENDROOT
BRANCH   9  10
ATOM     10  C   UNL     1       5.425   4.355  17.665  0.00  0.00    +0.000 A 
ATOM     11  C   UNL     1       4.720   3.825  16.563  0.00  0.00    +0.000 A 
ATOM     12  C   UNL     1       5.253   3.888  15.273  0.00  0.00    +0.000 A 
ATOM     13  C   UNL     1       6.494   4.475  15.074  0.00  0.00    +0.000 A 
ATOM     14  F   UNL     1       7.000   4.546  13.837  0.00  0.00    +0.000 F 
ATOM     15  C   UNL     1       7.222   4.984  16.140  0.00  0.00    +0.000 A 
ATOM     16  C   UNL     1       6.694   4.921  17.432  0.00  0.00    +0.000 A 
ATOM     17 CL   UNL     1       7.678   5.555  18.704  0.00  0.00    +0.000 Cl
ENDBRANCH   9  10
BRANCH   7  18
ATOM     18  C   UNL     1       5.369   1.034  20.964  0.00  0.00    +0.000 A 
ATOM     19  N   UNL     1       5.968   1.019  22.143  0.00  0.00    +0.000 NA
ATOM     20  C   UNL     1       6.481  -0.239  22.394  0.00  0.00    +0.000 A 
ATOM     21  C   UNL     1       6.277  -1.172  21.402  0.00  0.00    +0.000 A 
ATOM     22  S   UNL     1       5.405  -0.461  20.111  0.00  0.00    +0.000 S 
ENDBRANCH   7  18
BRANCH   1  24
ATOM     23  O   UNL     1       1.728   5.265  17.605  0.00  0.00    +0.000 OA
ATOM     24  C   UNL     1       2.529   5.440  18.513  0.00  0.00    +0.000 C 
BRANCH  24  25
ATOM     25  O   UNL     1       2.931   6.656  18.932  0.00  0.00    +0.000 OA
BRANCH  25  26
ATOM     26  C   UNL     1       2.945   7.697  17.929  0.00  0.00    +0.000 C 
BRANCH  26  27
ATOM     27  C   UNL     1       4.207   7.879  17.089  0.00  0.00    +0.000 C 
ATOM     28  F   UNL     1       5.306   7.602  17.837  0.00  0.00    +0.000 F 
ATOM     29  F   UNL     1       4.191   6.951  16.089  0.00  0.00    +0.000 F 
ENDBRANCH  26  27
ENDBRANCH  25  26
ENDBRANCH  24  25
ENDBRANCH   1  24
TORSDOF 6
ENDMDL
MODEL 4
REMARK VINA RESULT:      -6.4      8.818     12.039
REMARK  Name = 
REMARK  6 active torsions:
REMARK  status: ('A' for Active; 'I' for Inactive)
REMARK    1  A    between atoms: C_2  and  O_3
REMARK    2  A    between atoms: C_2  and  C_8
REMARK    3  A    between atoms: O_3  and  C_4
REMARK    4  A    between atoms: C_4  and  C_5
REMARK    5  A    between atoms: C_14  and  C_15
REMARK    6  A    between atoms: C_21  and  C_22
REMARK                            x       y       z     vdW  Elec       q    Type
REMARK                         _______ _______ _______ _____ _____    ______ ____
ROOT
ATOM      1  C   UNL     1      -1.190  13.321  21.406  0.00  0.00    +0.000 C 
ATOM      2  C   UNL     1      -0.917  14.544  21.898  0.00  0.00    +0.000 C 
ATOM      3  C   UNL     1      -0.865  15.046  23.318  0.00  0.00    +0.000 C 
ATOM      4  C   UNL     1      -1.200  16.526  23.135  0.00  0.00    +0.000 C 
ATOM      5  C   UNL     1      -0.637  16.885  21.758  0.00  0.00    +0.000 C 
ATOM      6  N   UNL     1      -0.695  15.614  21.047  0.00  0.00    +0.000 N 
ATOM      7  C   UNL     1      -0.557  15.464  19.674  0.00  0.00    +0.000 C 
ATOM      8  N   UNL     1      -0.830  14.329  19.103  0.00  0.00    +0.000 NA
ATOM      9  C   UNL     1      -1.306  13.163  19.902  0.00  0.00    +0.000 C 
ENDROOT
BRANCH   9  10
ATOM     10  C   UNL     1      -0.642  11.926  19.301  0.00  0.00    +0.000 A 
ATOM     11  C   UNL     1       0.755  11.768  19.426  0.00  0.00    +0.000 A 
ATOM     12  C   UNL     1       1.404  10.663  18.872  0.00  0.00    +0.000 A 
ATOM     13  C   UNL     1       0.667   9.711  18.184  0.00  0.00    +0.000 A 
ATOM     14  F   UNL     1       1.287   8.645  17.662  0.00  0.00    +0.000 F 
ATOM     15  C   UNL     1      -0.705   9.849  18.024  0.00  0.00    +0.000 A 
ATOM     16  C   UNL     1      -1.358  10.954  18.575  0.00  0.00    +0.000 A 
ATOM     17 CL   UNL     1      -3.063  11.061  18.307  0.00  0.00    +0.000 Cl
ENDBRANCH   9  10
BRANCH   7  18
ATOM     18  C   UNL     1      -0.064  16.543  18.787  0.00  0.00    +0.000 A 
ATOM     19  N   UNL     1      -0.860  17.237  17.991  0.00  0.00    +0.000 NA
ATOM     20  C   UNL     1      -0.129  18.195  17.314  0.00  0.00    +0.000 A 
ATOM     21  C   UNL     1       1.219  18.219  17.592  0.00  0.00    +0.000 A 
ATOM     22  S   UNL     1       1.592  17.011  18.747  0.00  0.00    +0.000 S 
ENDBRANCH   7  18
BRANCH   1  24
ATOM     23  O   UNL     1      -2.657  12.091  22.834  0.00  0.00    +0.000 OA
ATOM     24  C   UNL     1      -1.537  12.241  22.365  0.00  0.00    +0.000 C 
BRANCH  24  25
ATOM     25  O   UNL     1      -0.453  11.560  22.786  0.00  0.00    +0.000 OA
BRANCH  25  26
ATOM     26  C   UNL     1      -0.662  10.161  23.083  0.00  0.00    +0.000 C 
BRANCH  26  27
ATOM     27  C   UNL     1       0.173   9.126  22.332  0.00  0.00    +0.000 C 
ATOM     28  F   UNL     1      -0.443   8.784  21.172  0.00  0.00    +0.000 F 
ATOM     29  F   UNL     1       1.353   9.711  21.972  0.00  0.00    +0.000 F 
ENDBRANCH  26  27
ENDBRANCH  25  26
ENDBRANCH  24  25
ENDBRANCH   1  24
TORSDOF 6
ENDMDL
MODEL 5
REMARK VINA RESULT:      -6.4      8.646     11.883
REMARK  Name = 
REMARK  6 active torsions:
REMARK  status: ('A' for Active; 'I' for Inactive)
REMARK    1  A    between atoms: C_2  and  O_3
REMARK    2  A    between atoms: C_2  and  C_8
REMARK    3  A    between atoms: O_3  and  C_4
REMARK    4  A    between atoms: C_4  and  C_5
REMARK    5  A    between atoms: C_14  and  C_15
REMARK    6  A    between atoms: C_21  and  C_22
REMARK                            x       y       z     vdW  Elec       q    Type
REMARK                         _______ _______ _______ _____ _____    ______ ____
ROOT
ATOM      1  C   UNL     1      -1.124  13.240  21.368  0.00  0.00    +0.000 C 
ATOM      2  C   UNL     1      -0.901  14.463  21.882  0.00  0.00    +0.000 C 
ATOM      3  C   UNL     1      -0.868  14.941  23.311  0.00  0.00    +0.000 C 
ATOM      4  C   UNL     1      -1.265  16.408  23.157  0.00  0.00    +0.000 C 
ATOM      5  C   UNL     1      -0.720  16.816  21.786  0.00  0.00    +0.000 C 
ATOM      6  N   UNL     1      -0.726  15.558  21.051  0.00  0.00    +0.000 N 
ATOM      7  C   UNL     1      -0.585  15.440  19.675  0.00  0.00    +0.000 C 
ATOM      8  N   UNL     1      -0.811  14.305  19.083  0.00  0.00    +0.000 NA
ATOM      9  C   UNL     1      -1.236  13.105  19.861  0.00  0.00    +0.000 C 
ENDROOT
BRANCH   9  10
ATOM     10  C   UNL     1      -0.522  11.909  19.236  0.00  0.00    +0.000 A 
ATOM     11  C   UNL     1      -1.279  10.945  18.536  0.00  0.00    +0.000 A 
ATOM     12  C   UNL     1      -0.667   9.825  17.970  0.00  0.00    +0.000 A 
ATOM     13  C   UNL     1       0.703   9.655  18.102  0.00  0.00    +0.000 A 
ATOM     14  F   UNL     1       1.292   8.587  17.549  0.00  0.00    +0.000 F 
ATOM     15  C   UNL     1       1.472  10.572  18.804  0.00  0.00    +0.000 A 
ATOM     16  C   UNL     1       0.864  11.693  19.373  0.00  0.00    +0.000 A 
ATOM     17 CL   UNL     1       1.891  12.772  20.251  0.00  0.00    +0.000 Cl
ENDBRANCH   9  10
BRANCH   7  18
ATOM     18  C   UNL     1      -0.140  16.555  18.808  0.00  0.00    +0.000 A 
ATOM     19  N   UNL     1      -0.983  17.330  18.146  0.00  0.00    +0.000 NA
ATOM     20  C   UNL     1      -0.284  18.302  17.455  0.00  0.00    +0.000 A 
ATOM     21  C   UNL     1       1.085  18.256  17.587  0.00  0.00    +0.000 A 
ATOM     22  S   UNL     1       1.522  16.961  18.619  0.00  0.00    +0.000 S 
ENDBRANCH   7  18
BRANCH   1  24
ATOM     23  O   UNL     1      -2.540  11.908  22.755  0.00  0.00    +0.000 OA
ATOM     24  C   UNL     1      -1.423  12.128  22.306  0.00  0.00    +0.000 C 
BRANCH  24  25
ATOM     25  O   UNL     1      -0.308  11.505  22.736  0.00  0.00    +0.000 OA
BRANCH  25  26
ATOM     26  C   UNL     1      -0.466  10.118  23.115  0.00  0.00    +0.000 C 
BRANCH  26  27
ATOM     27  C   UNL     1       0.201   9.049  22.252  0.00  0.00    +0.000 C 
ATOM     28  F   UNL     1      -0.499   8.877  21.102  0.00  0.00    +0.000 F 
ATOM     29  F   UNL     1       1.430   9.509  21.877  0.00  0.00    +0.000 F 
ENDBRANCH  26  27
ENDBRANCH  25  26
ENDBRANCH  24  25
ENDBRANCH   1  24
TORSDOF 6
ENDMDL
MODEL 6
REMARK VINA RESULT:      -6.3      1.159      1.508
REMARK  Name = 
REMARK  6 active torsions:
REMARK  status: ('A' for Active; 'I' for Inactive)
REMARK    1  A    between atoms: C_2  and  O_3
REMARK    2  A    between atoms: C_2  and  C_8
REMARK    3  A    between atoms: O_3  and  C_4
REMARK    4  A    between atoms: C_4  and  C_5
REMARK    5  A    between atoms: C_14  and  C_15
REMARK    6  A    between atoms: C_21  and  C_22
REMARK                            x       y       z     vdW  Elec       q    Type
REMARK                         _______ _______ _______ _____ _____    ______ ____
ROOT
ATOM      1  C   UNL     1       3.306   4.587  19.301  0.00  0.00    +0.000 C 
ATOM      2  C   UNL     1       2.642   3.705  20.072  0.00  0.00    +0.000 C 
ATOM      3  C   UNL     1       1.190   3.644  20.472  0.00  0.00    +0.000 C 
ATOM      4  C   UNL     1       1.268   2.906  21.808  0.00  0.00    +0.000 C 
ATOM      5  C   UNL     1       2.472   1.972  21.666  0.00  0.00    +0.000 C 
ATOM      6  N   UNL     1       3.316   2.678  20.711  0.00  0.00    +0.000 N 
ATOM      7  C   UNL     1       4.649   2.384  20.458  0.00  0.00    +0.000 C 
ATOM      8  N   UNL     1       5.380   3.192  19.751  0.00  0.00    +0.000 NA
ATOM      9  C   UNL     1       4.814   4.458  19.201  0.00  0.00    +0.000 C 
ENDROOT
BRANCH   9  10
ATOM     10  C   UNL     1       5.415   4.632  17.808  0.00  0.00    +0.000 A 
ATOM     11  C   UNL     1       6.457   5.566  17.621  0.00  0.00    +0.000 A 
ATOM     12  C   UNL     1       7.017   5.772  16.358  0.00  0.00    +0.000 A 
ATOM     13  C   UNL     1       6.539   5.052  15.273  0.00  0.00    +0.000 A 
ATOM     14  F   UNL     1       7.084   5.240  14.064  0.00  0.00    +0.000 F 
ATOM     15  C   UNL     1       5.501   4.143  15.420  0.00  0.00    +0.000 A 
ATOM     16  C   UNL     1       4.936   3.936  16.680  0.00  0.00    +0.000 A 
ATOM     17 CL   UNL     1       3.631   2.805  16.770  0.00  0.00    +0.000 Cl
ENDBRANCH   9  10
BRANCH   7  18
ATOM     18  C   UNL     1       5.308   1.143  20.927  0.00  0.00    +0.000 A 
ATOM     19  N   UNL     1       5.918   1.053  22.097  0.00  0.00    +0.000 NA
ATOM     20  C   UNL     1       6.403  -0.229  22.277  0.00  0.00    +0.000 A 
ATOM     21  C   UNL     1       6.167  -1.104  21.241  0.00  0.00    +0.000 A 
ATOM     22  S   UNL     1       5.300  -0.306  19.998  0.00  0.00    +0.000 S 
ENDBRANCH   7  18
BRANCH   1  24
ATOM     23  O   UNL     1       1.795   5.641  17.782  0.00  0.00    +0.000 OA
ATOM     24  C   UNL     1       2.551   5.736  18.738  0.00  0.00    +0.000 C 
BRANCH  24  25
ATOM     25  O   UNL     1       2.922   6.911  19.285  0.00  0.00    +0.000 OA
BRANCH  25  26
ATOM     26  C   UNL     1       1.925   7.957  19.270  0.00  0.00    +0.000 C 
BRANCH  26  27
ATOM     27  C   UNL     1       1.960   8.979  18.136  0.00  0.00    +0.000 C 
ATOM     28  F   UNL     1       2.812   8.564  17.164  0.00  0.00    +0.000 F 
ATOM     29  F   UNL     1       0.723   9.018  17.560  0.00  0.00    +0.000 F 
ENDBRANCH  26  27
ENDBRANCH  25  26
ENDBRANCH  24  25
ENDBRANCH   1  24
TORSDOF 6
ENDMDL
MODEL 7
REMARK VINA RESULT:      -6.3      1.351      1.762
REMARK  Name = 
REMARK  6 active torsions:
REMARK  status: ('A' for Active; 'I' for Inactive)
REMARK    1  A    between atoms: C_2  and  O_3
REMARK    2  A    between atoms: C_2  and  C_8
REMARK    3  A    between atoms: O_3  and  C_4
REMARK    4  A    between atoms: C_4  and  C_5
REMARK    5  A    between atoms: C_14  and  C_15
REMARK    6  A    between atoms: C_21  and  C_22
REMARK                            x       y       z     vdW  Elec       q    Type
REMARK                         _______ _______ _______ _____ _____    ______ ____
ROOT
ATOM      1  C   UNL     1       3.314   4.598  19.230  0.00  0.00    +0.000 C 
ATOM      2  C   UNL     1       2.643   3.723  20.001  0.00  0.00    +0.000 C 
ATOM      3  C   UNL     1       1.187   3.664  20.387  0.00  0.00    +0.000 C 
ATOM      4  C   UNL     1       1.252   2.938  21.730  0.00  0.00    +0.000 C 
ATOM      5  C   UNL     1       2.457   2.003  21.609  0.00  0.00    +0.000 C 
ATOM      6  N   UNL     1       3.310   2.701  20.657  0.00  0.00    +0.000 N 
ATOM      7  C   UNL     1       4.646   2.406  20.420  0.00  0.00    +0.000 C 
ATOM      8  N   UNL     1       5.385   3.208  19.713  0.00  0.00    +0.000 NA
ATOM      9  C   UNL     1       4.824   4.469  19.147  0.00  0.00    +0.000 C 
ENDROOT
BRANCH   9  10
ATOM     10  C   UNL     1       5.438   4.631  17.758  0.00  0.00    +0.000 A 
ATOM     11  C   UNL     1       6.488   5.557  17.575  0.00  0.00    +0.000 A 
ATOM     12  C   UNL     1       7.061   5.752  16.317  0.00  0.00    +0.000 A 
ATOM     13  C   UNL     1       6.589   5.029  15.231  0.00  0.00    +0.000 A 
ATOM     14  F   UNL     1       7.146   5.207  14.027  0.00  0.00    +0.000 F 
ATOM     15  C   UNL     1       5.543   4.128  15.373  0.00  0.00    +0.000 A 
ATOM     16  C   UNL     1       4.965   3.932  16.630  0.00  0.00    +0.000 A 
ATOM     17 CL   UNL     1       3.652   2.810  16.713  0.00  0.00    +0.000 Cl
ENDBRANCH   9  10
BRANCH   7  18
ATOM     18  C   UNL     1       5.301   1.169  20.906  0.00  0.00    +0.000 A 
ATOM     19  N   UNL     1       5.910   1.093  22.078  0.00  0.00    +0.000 NA
ATOM     20  C   UNL     1       6.391  -0.187  22.276  0.00  0.00    +0.000 A 
ATOM     21  C   UNL     1       6.153  -1.076  21.251  0.00  0.00    +0.000 A 
ATOM     22  S   UNL     1       5.289  -0.293  19.997  0.00  0.00    +0.000 S 
ENDBRANCH   7  18
BRANCH   1  24
ATOM     23  O   UNL     1       1.763   5.625  17.733  0.00  0.00    +0.000 OA
ATOM     24  C   UNL     1       2.564   5.741  18.650  0.00  0.00    +0.000 C 
BRANCH  24  25
ATOM     25  O   UNL     1       2.991   6.928  19.124  0.00  0.00    +0.000 OA
BRANCH  25  26
ATOM     26  C   UNL     1       1.976   7.944  19.288  0.00  0.00    +0.000 C 
BRANCH  26  27
ATOM     27  C   UNL     1       1.452   8.229  20.694  0.00  0.00    +0.000 C 
ATOM     28  F   UNL     1       0.218   8.789  20.626  0.00  0.00    +0.000 F 
ATOM     29  F   UNL     1       1.288   7.036  21.337  0.00  0.00    +0.000 F 
ENDBRANCH  26  27
ENDBRANCH  25  26
ENDBRANCH  24  25
ENDBRANCH   1  24
TORSDOF 6
ENDMDL
MODEL 8
REMARK VINA RESULT:      -6.3      9.488     12.675
REMARK  Name = 
REMARK  6 active torsions:
REMARK  status: ('A' for Active; 'I' for Inactive)
REMARK    1  A    between atoms: C_2  and  O_3
REMARK    2  A    between atoms: C_2  and  C_8
REMARK    3  A    between atoms: O_3  and  C_4
REMARK    4  A    between atoms: C_4  and  C_5
REMARK    5  A    between atoms: C_14  and  C_15
REMARK    6  A    between atoms: C_21  and  C_22
REMARK                            x       y       z     vdW  Elec       q    Type
REMARK                         _______ _______ _______ _____ _____    ______ ____
ROOT
ATOM      1  C   UNL     1      -2.586  12.399  22.275  0.00  0.00    +0.000 C 
ATOM      2  C   UNL     1      -3.704  12.707  22.959  0.00  0.00    +0.000 C 
ATOM      3  C   UNL     1      -4.010  12.629  24.433  0.00  0.00    +0.000 C 
ATOM      4  C   UNL     1      -5.525  12.434  24.425  0.00  0.00    +0.000 C 
ATOM      5  C   UNL     1      -6.007  13.182  23.179  0.00  0.00    +0.000 C 
ATOM      6  N   UNL     1      -4.851  13.110  22.295  0.00  0.00    +0.000 N 
ATOM      7  C   UNL     1      -4.869  13.397  20.937  0.00  0.00    +0.000 C 
ATOM      8  N   UNL     1      -3.848  13.106  20.187  0.00  0.00    +0.000 NA
ATOM      9  C   UNL     1      -2.637  12.450  20.760  0.00  0.00    +0.000 C 
ENDROOT
BRANCH   9  10
ATOM     10  C   UNL     1      -1.433  13.083  20.066  0.00  0.00    +0.000 A 
ATOM     11  C   UNL     1      -1.164  14.454  20.271  0.00  0.00    +0.000 A 
ATOM     12  C   UNL     1      -0.087  15.076  19.637  0.00  0.00    +0.000 A 
ATOM     13  C   UNL     1       0.728  14.338  18.791  0.00  0.00    +0.000 A 
ATOM     14  F   UNL     1       1.768  14.931  18.192  0.00  0.00    +0.000 F 
ATOM     15  C   UNL     1       0.477  12.994  18.551  0.00  0.00    +0.000 A 
ATOM     16  C   UNL     1      -0.601  12.369  19.181  0.00  0.00    +0.000 A 
ATOM     17 CL   UNL     1      -0.856  10.699  18.807  0.00  0.00    +0.000 Cl
ENDBRANCH   9  10
BRANCH   7  18
ATOM     18  C   UNL     1      -6.003  14.074  20.267  0.00  0.00    +0.000 A 
ATOM     19  N   UNL     1      -6.987  13.413  19.679  0.00  0.00    +0.000 NA
ATOM     20  C   UNL     1      -7.916  14.303  19.176  0.00  0.00    +0.000 A 
ATOM     21  C   UNL     1      -7.632  15.635  19.377  0.00  0.00    +0.000 A 
ATOM     22  S   UNL     1      -6.157  15.788  20.232  0.00  0.00    +0.000 S 
ENDBRANCH   7  18
BRANCH   1  24
ATOM     23  O   UNL     1      -0.443  12.525  23.322  0.00  0.00    +0.000 OA
ATOM     24  C   UNL     1      -1.427  11.859  23.030  0.00  0.00    +0.000 C 
BRANCH  24  25
ATOM     25  O   UNL     1      -1.504  10.525  23.204  0.00  0.00    +0.000 OA
BRANCH  25  26
ATOM     26  C   UNL     1      -0.243   9.832  23.345  0.00  0.00    +0.000 C 
BRANCH  26  27
ATOM     27  C   UNL     1       0.386   9.208  22.102  0.00  0.00    +0.000 C 
ATOM     28  F   UNL     1      -0.570   8.603  21.351  0.00  0.00    +0.000 F 
ATOM     29  F   UNL     1       0.890  10.213  21.329  0.00  0.00    +0.000 F 
ENDBRANCH  26  27
ENDBRANCH  25  26
ENDBRANCH  24  25
ENDBRANCH   1  24
TORSDOF 6
ENDMDL
MODEL 9
REMARK VINA RESULT:      -6.3      9.283     12.421
REMARK  Name = 
REMARK  6 active torsions:
REMARK  status: ('A' for Active; 'I' for Inactive)
REMARK    1  A    between atoms: C_2  and  O_3
REMARK    2  A    between atoms: C_2  and  C_8
REMARK    3  A    between atoms: O_3  and  C_4
REMARK    4  A    between atoms: C_4  and  C_5
REMARK    5  A    between atoms: C_14  and  C_15
REMARK    6  A    between atoms: C_21  and  C_22
REMARK                            x       y       z     vdW  Elec       q    Type
REMARK                         _______ _______ _______ _____ _____    ______ ____
ROOT
ATOM      1  C   UNL     1      -1.025  12.226  20.204  0.00  0.00    +0.000 C 
ATOM      2  C   UNL     1      -1.467  11.279  19.356  0.00  0.00    +0.000 C 
ATOM      3  C   UNL     1      -0.757  10.103  18.736  0.00  0.00    +0.000 C 
ATOM      4  C   UNL     1      -1.546   9.911  17.442  0.00  0.00    +0.000 C 
ATOM      5  C   UNL     1      -2.970  10.356  17.786  0.00  0.00    +0.000 C 
ATOM      6  N   UNL     1      -2.754  11.330  18.847  0.00  0.00    +0.000 N 
ATOM      7  C   UNL     1      -3.708  12.227  19.310  0.00  0.00    +0.000 C 
ATOM      8  N   UNL     1      -3.370  13.196  20.108  0.00  0.00    +0.000 NA
ATOM      9  C   UNL     1      -1.955  13.377  20.540  0.00  0.00    +0.000 C 
ENDROOT
BRANCH   9  10
ATOM     10  C   UNL     1      -2.000  13.801  22.006  0.00  0.00    +0.000 A 
ATOM     11  C   UNL     1      -2.961  13.218  22.860  0.00  0.00    +0.000 A 
ATOM     12  C   UNL     1      -3.051  13.595  24.202  0.00  0.00    +0.000 A 
ATOM     13  C   UNL     1      -2.187  14.559  24.700  0.00  0.00    +0.000 A 
ATOM     14  F   UNL     1      -2.265  14.912  25.990  0.00  0.00    +0.000 F 
ATOM     15  C   UNL     1      -1.247  15.168  23.881  0.00  0.00    +0.000 A 
ATOM     16  C   UNL     1      -1.155  14.795  22.538  0.00  0.00    +0.000 A 
ATOM     17 CL   UNL     1       0.027  15.621  21.583  0.00  0.00    +0.000 Cl
ENDBRANCH   9  10
BRANCH   7  18
ATOM     18  C   UNL     1      -5.146  12.126  18.972  0.00  0.00    +0.000 A 
ATOM     19  N   UNL     1      -6.068  11.778  19.854  0.00  0.00    +0.000 NA
ATOM     20  C   UNL     1      -7.318  11.806  19.264  0.00  0.00    +0.000 A 
ATOM     21  C   UNL     1      -7.339  12.165  17.935  0.00  0.00    +0.000 A 
ATOM     22  S   UNL     1      -5.745  12.492  17.400  0.00  0.00    +0.000 S 
ENDBRANCH   7  18
BRANCH   1  24
ATOM     23  O   UNL     1       1.330  12.425  19.864  0.00  0.00    +0.000 OA
ATOM     24  C   UNL     1       0.400  12.186  20.622  0.00  0.00    +0.000 C 
BRANCH  24  25
ATOM     25  O   UNL     1       0.557  11.693  21.866  0.00  0.00    +0.000 OA
BRANCH  25  26
ATOM     26  C   UNL     1       0.748  10.263  21.960  0.00  0.00    +0.000 C 
BRANCH  26  27
ATOM     27  C   UNL     1      -0.222   9.455  22.818  0.00  0.00    +0.000 C 
ATOM     28  F   UNL     1      -1.250  10.243  23.225  0.00  0.00    +0.000 F 
ATOM     29  F   UNL     1      -0.778   8.486  22.035  0.00  0.00    +0.000 F 
ENDBRANCH  26  27
ENDBRANCH  25  26
ENDBRANCH  24  25
ENDBRANCH   1  24
TORSDOF 6
ENDMDL
