MODEL 1
REMARK VINA RESULT:      -6.9      0.000      0.000
REMARK  Name = 
REMARK  13 active torsions:
REMARK  status: ('A' for Active; 'I' for Inactive)
REMARK    1  A    between atoms: C_1  and  O_2
REMARK    2  A    between atoms: O_2  and  C_3
REMARK    3  A    between atoms: C_5  and  N_6
REMARK    4  A    between atoms: N_7  and  C_8
REMARK    5  A    between atoms: C_10  and  O_11
REMARK    6  A    between atoms: O_11  and  C_12
REMARK    7  A    between atoms: C_13  and  O_14
REMARK    8  A    between atoms: O_14  and  C_15
REMARK    9  A    between atoms: C_16  and  O_17
REMARK   10  A    between atoms: O_17  and  C_18
REMARK   11  A    between atoms: C_21  and  C_22
REMARK   12  A    between atoms: C_22  and  O_23
REMARK   13  A    between atoms: C_24  and  O_25
REMARK                            x       y       z     vdW  Elec       q    Type
REMARK                         _______ _______ _______ _____ _____    ______ ____
ROOT
ATOM      1  N   UNL     1       2.154   8.711  18.319  0.00  0.00    +0.000 NA
ATOM      2  N   UNL     1       1.976   7.486  18.502  0.00  0.00    +0.000 NA
ENDROOT
BRANCH   1   5
ATOM      3  C   UNL     1       0.251  10.438  21.011  0.00  0.00    +0.000 A 
ATOM      4  C   UNL     1       1.206   9.674  20.324  0.00  0.00    +0.000 A 
ATOM      5  C   UNL     1       1.157   9.499  18.937  0.00  0.00    +0.000 A 
ATOM      6  C   UNL     1       0.088  10.076  18.238  0.00  0.00    +0.000 A 
ATOM      7  C   UNL     1      -0.896  10.839  18.892  0.00  0.00    +0.000 A 
ATOM      8  C   UNL     1      -0.786  11.040  20.280  0.00  0.00    +0.000 A 
BRANCH   3  10
ATOM      9  C   UNL     1      -0.247   9.613  23.209  0.00  0.00    +0.000 C 
ATOM     10  O   UNL     1       0.482  10.489  22.360  0.00  0.00    +0.000 OA
ENDBRANCH   3  10
BRANCH   8  11
ATOM     11  O   UNL     1      -1.699  11.841  20.916  0.00  0.00    +0.000 OA
ATOM     12  H   UNL     1      -1.382  12.768  20.879  0.00  0.00    +0.000 HD
ENDBRANCH   8  11
BRANCH   7  13
ATOM     13  C   UNL     1      -1.983  11.457  18.051  0.00  0.00    +0.000 C 
BRANCH  13  14
ATOM     14  O   UNL     1      -1.444  12.475  17.209  0.00  0.00    +0.000 OA
ATOM     15  H   UNL     1      -2.131  12.669  16.545  0.00  0.00    +0.000 HD
ENDBRANCH  13  14
ENDBRANCH   7  13
ENDBRANCH   1   5
BRANCH   2  16
ATOM     16  C   UNL     1       2.993   6.682  17.939  0.00  0.00    +0.000 A 
ATOM     17  C   UNL     1       4.214   7.188  17.469  0.00  0.00    +0.000 A 
ATOM     18  C   UNL     1       5.218   6.348  16.956  0.00  0.00    +0.000 A 
ATOM     19  C   UNL     1       4.997   4.957  16.926  0.00  0.00    +0.000 A 
ATOM     20  C   UNL     1       3.773   4.437  17.413  0.00  0.00    +0.000 A 
ATOM     21  C   UNL     1       2.791   5.300  17.912  0.00  0.00    +0.000 A 
BRANCH  18  22
ATOM     22  O   UNL     1       6.410   6.832  16.486  0.00  0.00    +0.000 OA
ATOM     23  C   UNL     1       7.430   7.162  17.420  0.00  0.00    +0.000 C 
ENDBRANCH  18  22
BRANCH  19  24
ATOM     24  O   UNL     1       5.859   3.988  16.466  0.00  0.00    +0.000 OA
ATOM     25  C   UNL     1       6.112   3.858  15.079  0.00  0.00    +0.000 C 
ENDBRANCH  19  24
BRANCH  20  26
ATOM     26  O   UNL     1       3.637   3.068  17.363  0.00  0.00    +0.000 OA
ATOM     27  C   UNL     1       2.674   2.460  18.211  0.00  0.00    +0.000 C 
ENDBRANCH  20  26
ENDBRANCH   2  16
TORSDOF 9
ENDMDL
MODEL 2
REMARK VINA RESULT:      -6.9      1.901      8.404
REMARK  Name = 
REMARK  13 active torsions:
REMARK  status: ('A' for Active; 'I' for Inactive)
REMARK    1  A    between atoms: C_1  and  O_2
REMARK    2  A    between atoms: O_2  and  C_3
REMARK    3  A    between atoms: C_5  and  N_6
REMARK    4  A    between atoms: N_7  and  C_8
REMARK    5  A    between atoms: C_10  and  O_11
REMARK    6  A    between atoms: O_11  and  C_12
REMARK    7  A    between atoms: C_13  and  O_14
REMARK    8  A    between atoms: O_14  and  C_15
REMARK    9  A    between atoms: C_16  and  O_17
REMARK   10  A    between atoms: O_17  and  C_18
REMARK   11  A    between atoms: C_21  and  C_22
REMARK   12  A    between atoms: C_22  and  O_23
REMARK   13  A    between atoms: C_24  and  O_25
REMARK                            x       y       z     vdW  Elec       q    Type
REMARK                         _______ _______ _______ _____ _____    ______ ____
ROOT
ATOM      1  N   UNL     1       2.224   7.319  19.308  0.00  0.00    +0.000 NA
ATOM      2  N   UNL     1       1.837   7.629  20.457  0.00  0.00    +0.000 NA
ENDROOT
BRANCH   1   5
ATOM      3  C   UNL     1       3.301   3.874  20.213  0.00  0.00    +0.000 A 
ATOM      4  C   UNL     1       2.603   5.090  20.164  0.00  0.00    +0.000 A 
ATOM      5  C   UNL     1       2.974   6.122  19.295  0.00  0.00    +0.000 A 
ATOM      6  C   UNL     1       4.107   5.931  18.492  0.00  0.00    +0.000 A 
ATOM      7  C   UNL     1       4.840   4.731  18.521  0.00  0.00    +0.000 A 
ATOM      8  C   UNL     1       4.407   3.693  19.367  0.00  0.00    +0.000 A 
BRANCH   3  10
ATOM      9  C   UNL     1       1.361   2.888  21.224  0.00  0.00    +0.000 C 
ATOM     10  O   UNL     1       2.774   2.996  21.123  0.00  0.00    +0.000 OA
ENDBRANCH   3  10
BRANCH   8  11
ATOM     11  O   UNL     1       5.070   2.494  19.350  0.00  0.00    +0.000 OA
ATOM     12  H   UNL     1       5.863   2.582  18.781  0.00  0.00    +0.000 HD
ENDBRANCH   8  11
BRANCH   7  13
ATOM     13  C   UNL     1       6.017   4.602  17.589  0.00  0.00    +0.000 C 
BRANCH  13  14
ATOM     14  O   UNL     1       7.182   4.208  18.310  0.00  0.00    +0.000 OA
ATOM     15  H   UNL     1       7.943   4.453  17.751  0.00  0.00    +0.000 HD
ENDBRANCH  13  14
ENDBRANCH   7  13
ENDBRANCH   1   5
BRANCH   2  16
ATOM     16  C   UNL     1       1.037   8.794  20.484  0.00  0.00    +0.000 A 
ATOM     17  C   UNL     1       0.763   9.523  21.651  0.00  0.00    +0.000 A 
ATOM     18  C   UNL     1      -0.001  10.702  21.628  0.00  0.00    +0.000 A 
ATOM     19  C   UNL     1      -0.496  11.173  20.395  0.00  0.00    +0.000 A 
ATOM     20  C   UNL     1      -0.210  10.451  19.210  0.00  0.00    +0.000 A 
ATOM     21  C   UNL     1       0.549   9.277  19.268  0.00  0.00    +0.000 A 
BRANCH  18  22
ATOM     22  O   UNL     1      -0.283  11.416  22.762  0.00  0.00    +0.000 OA
ATOM     23  C   UNL     1      -1.597  11.352  23.301  0.00  0.00    +0.000 C 
ENDBRANCH  18  22
BRANCH  19  24
ATOM     24  O   UNL     1      -1.254  12.301  20.179  0.00  0.00    +0.000 OA
ATOM     25  C   UNL     1      -0.645  13.580  20.185  0.00  0.00    +0.000 C 
ENDBRANCH  19  24
BRANCH  20  26
ATOM     26  O   UNL     1      -0.716  10.981  18.045  0.00  0.00    +0.000 OA
ATOM     27  C   UNL     1      -1.691  10.230  17.337  0.00  0.00    +0.000 C 
ENDBRANCH  20  26
ENDBRANCH   2  16
TORSDOF 9
ENDMDL
MODEL 3
REMARK VINA RESULT:      -6.8      2.129      8.593
REMARK  Name = 
REMARK  13 active torsions:
REMARK  status: ('A' for Active; 'I' for Inactive)
REMARK    1  A    between atoms: C_1  and  O_2
REMARK    2  A    between atoms: O_2  and  C_3
REMARK    3  A    between atoms: C_5  and  N_6
REMARK    4  A    between atoms: N_7  and  C_8
REMARK    5  A    between atoms: C_10  and  O_11
REMARK    6  A    between atoms: O_11  and  C_12
REMARK    7  A    between atoms: C_13  and  O_14
REMARK    8  A    between atoms: O_14  and  C_15
REMARK    9  A    between atoms: C_16  and  O_17
REMARK   10  A    between atoms: O_17  and  C_18
REMARK   11  A    between atoms: C_21  and  C_22
REMARK   12  A    between atoms: C_22  and  O_23
REMARK   13  A    between atoms: C_24  and  O_25
REMARK                            x       y       z     vdW  Elec       q    Type
REMARK                         _______ _______ _______ _____ _____    ______ ____
ROOT
ATOM      1  N   UNL     1       2.511   7.198  19.810  0.00  0.00    +0.000 NA
ATOM      2  N   UNL     1       1.582   7.325  20.639  0.00  0.00    +0.000 NA
ENDROOT
BRANCH   1   5
ATOM      3  C   UNL     1       4.771   4.295  19.246  0.00  0.00    +0.000 A 
ATOM      4  C   UNL     1       4.279   5.600  19.402  0.00  0.00    +0.000 A 
ATOM      5  C   UNL     1       2.931   5.856  19.671  0.00  0.00    +0.000 A 
ATOM      6  C   UNL     1       2.054   4.764  19.740  0.00  0.00    +0.000 A 
ATOM      7  C   UNL     1       2.506   3.442  19.577  0.00  0.00    +0.000 A 
ATOM      8  C   UNL     1       3.878   3.218  19.361  0.00  0.00    +0.000 A 
BRANCH   3  10
ATOM      9  C   UNL     1       6.575   4.620  17.697  0.00  0.00    +0.000 C 
ATOM     10  O   UNL     1       6.117   4.262  18.994  0.00  0.00    +0.000 OA
ENDBRANCH   3  10
BRANCH   8  11
ATOM     11  O   UNL     1       4.341   1.931  19.273  0.00  0.00    +0.000 OA
ATOM     12  H   UNL     1       3.577   1.318  19.313  0.00  0.00    +0.000 HD
ENDBRANCH   8  11
BRANCH   7  13
ATOM     13  C   UNL     1       1.497   2.331  19.711  0.00  0.00    +0.000 C 
BRANCH  13  14
ATOM     14  O   UNL     1       1.633   1.403  18.636  0.00  0.00    +0.000 OA
ATOM     15  H   UNL     1       0.821   0.863  18.641  0.00  0.00    +0.000 HD
ENDBRANCH  13  14
ENDBRANCH   7  13
ENDBRANCH   1   5
BRANCH   2  16
ATOM     16  C   UNL     1       1.110   8.653  20.752  0.00  0.00    +0.000 A 
ATOM     17  C   UNL     1       0.573   9.190  21.931  0.00  0.00    +0.000 A 
ATOM     18  C   UNL     1       0.155  10.528  22.015  0.00  0.00    +0.000 A 
ATOM     19  C   UNL     1       0.291  11.360  20.885  0.00  0.00    +0.000 A 
ATOM     20  C   UNL     1       0.847  10.829  19.695  0.00  0.00    +0.000 A 
ATOM     21  C   UNL     1       1.248   9.490  19.643  0.00  0.00    +0.000 A 
BRANCH  18  22
ATOM     22  O   UNL     1      -0.380  11.061  23.158  0.00  0.00    +0.000 OA
ATOM     23  C   UNL     1      -1.780  11.305  23.208  0.00  0.00    +0.000 C 
ENDBRANCH  18  22
BRANCH  19  24
ATOM     24  O   UNL     1      -0.057  12.687  20.782  0.00  0.00    +0.000 OA
ATOM     25  C   UNL     1       0.746  13.684  21.386  0.00  0.00    +0.000 C 
ENDBRANCH  19  24
BRANCH  20  26
ATOM     26  O   UNL     1       0.961  11.706  18.640  0.00  0.00    +0.000 OA
ATOM     27  C   UNL     1       2.262  12.130  18.260  0.00  0.00    +0.000 C 
ENDBRANCH  20  26
ENDBRANCH   2  16
TORSDOF 9
ENDMDL
MODEL 4
REMARK VINA RESULT:      -6.8      0.272      2.554
REMARK  Name = 
REMARK  13 active torsions:
REMARK  status: ('A' for Active; 'I' for Inactive)
REMARK    1  A    between atoms: C_1  and  O_2
REMARK    2  A    between atoms: O_2  and  C_3
REMARK    3  A    between atoms: C_5  and  N_6
REMARK    4  A    between atoms: N_7  and  C_8
REMARK    5  A    between atoms: C_10  and  O_11
REMARK    6  A    between atoms: O_11  and  C_12
REMARK    7  A    between atoms: C_13  and  O_14
REMARK    8  A    between atoms: O_14  and  C_15
REMARK    9  A    between atoms: C_16  and  O_17
REMARK   10  A    between atoms: O_17  and  C_18
REMARK   11  A    between atoms: C_21  and  C_22
REMARK   12  A    between atoms: C_22  and  O_23
REMARK   13  A    between atoms: C_24  and  O_25
REMARK                            x       y       z     vdW  Elec       q    Type
REMARK                         _______ _______ _______ _____ _____    ______ ____
ROOT
ATOM      1  N   UNL     1       2.298   8.473  18.768  0.00  0.00    +0.000 NA
ATOM      2  N   UNL     1       1.885   7.441  18.193  0.00  0.00    +0.000 NA
ENDROOT
BRANCH   1   5
ATOM      3  C   UNL     1       0.100  10.486  20.997  0.00  0.00    +0.000 A 
ATOM      4  C   UNL     1       1.122   9.650  20.523  0.00  0.00    +0.000 A 
ATOM      5  C   UNL     1       1.244   9.326  19.167  0.00  0.00    +0.000 A 
ATOM      6  C   UNL     1       0.280   9.826  18.281  0.00  0.00    +0.000 A 
ATOM      7  C   UNL     1      -0.766  10.657  18.720  0.00  0.00    +0.000 A 
ATOM      8  C   UNL     1      -0.827  11.007  20.082  0.00  0.00    +0.000 A 
BRANCH   3  10
ATOM      9  C   UNL     1      -0.223   9.619  23.212  0.00  0.00    +0.000 C 
ATOM     10  O   UNL     1       0.162  10.683  22.352  0.00  0.00    +0.000 OA
ENDBRANCH   3  10
BRANCH   8  11
ATOM     11  O   UNL     1      -1.799  11.875  20.508  0.00  0.00    +0.000 OA
ATOM     12  H   UNL     1      -2.606  11.732  19.968  0.00  0.00    +0.000 HD
ENDBRANCH   8  11
BRANCH   7  13
ATOM     13  C   UNL     1      -1.729  11.183  17.687  0.00  0.00    +0.000 C 
BRANCH  13  14
ATOM     14  O   UNL     1      -1.432  12.542  17.374  0.00  0.00    +0.000 OA
ATOM     15  H   UNL     1      -1.827  12.712  16.499  0.00  0.00    +0.000 HD
ENDBRANCH  13  14
ENDBRANCH   7  13
ENDBRANCH   1   5
BRANCH   2  16
ATOM     16  C   UNL     1       2.921   6.548  17.834  0.00  0.00    +0.000 A 
ATOM     17  C   UNL     1       2.781   5.152  17.840  0.00  0.00    +0.000 A 
ATOM     18  C   UNL     1       3.821   4.300  17.435  0.00  0.00    +0.000 A 
ATOM     19  C   UNL     1       5.036   4.863  16.996  0.00  0.00    +0.000 A 
ATOM     20  C   UNL     1       5.180   6.272  16.972  0.00  0.00    +0.000 A 
ATOM     21  C   UNL     1       4.127   7.093  17.388  0.00  0.00    +0.000 A 
BRANCH  18  22
ATOM     22  O   UNL     1       3.699   2.935  17.446  0.00  0.00    +0.000 OA
ATOM     23  C   UNL     1       2.547   2.357  18.046  0.00  0.00    +0.000 C 
ENDBRANCH  18  22
BRANCH  19  24
ATOM     24  O   UNL     1       6.156   4.191  16.561  0.00  0.00    +0.000 OA
ATOM     25  C   UNL     1       6.241   3.739  15.222  0.00  0.00    +0.000 C 
ENDBRANCH  19  24
BRANCH  20  26
ATOM     26  O   UNL     1       6.390   6.746  16.518  0.00  0.00    +0.000 OA
ATOM     27  C   UNL     1       7.286   7.307  17.467  0.00  0.00    +0.000 C 
ENDBRANCH  20  26
ENDBRANCH   2  16
TORSDOF 9
ENDMDL
MODEL 5
REMARK VINA RESULT:      -6.8      1.082      8.499
REMARK  Name = 
REMARK  13 active torsions:
REMARK  status: ('A' for Active; 'I' for Inactive)
REMARK    1  A    between atoms: C_1  and  O_2
REMARK    2  A    between atoms: O_2  and  C_3
REMARK    3  A    between atoms: C_5  and  N_6
REMARK    4  A    between atoms: N_7  and  C_8
REMARK    5  A    between atoms: C_10  and  O_11
REMARK    6  A    between atoms: O_11  and  C_12
REMARK    7  A    between atoms: C_13  and  O_14
REMARK    8  A    between atoms: O_14  and  C_15
REMARK    9  A    between atoms: C_16  and  O_17
REMARK   10  A    between atoms: O_17  and  C_18
REMARK   11  A    between atoms: C_21  and  C_22
REMARK   12  A    between atoms: C_22  and  O_23
REMARK   13  A    between atoms: C_24  and  O_25
REMARK                            x       y       z     vdW  Elec       q    Type
REMARK                         _______ _______ _______ _____ _____    ______ ____
ROOT
ATOM      1  N   UNL     1       2.144   7.628  18.020  0.00  0.00    +0.000 NA
ATOM      2  N   UNL     1       2.237   8.310  19.065  0.00  0.00    +0.000 NA
ENDROOT
BRANCH   1   5
ATOM      3  C   UNL     1       5.483   6.227  17.161  0.00  0.00    +0.000 A 
ATOM      4  C   UNL     1       4.399   7.102  17.324  0.00  0.00    +0.000 A 
ATOM      5  C   UNL     1       3.192   6.688  17.895  0.00  0.00    +0.000 A 
ATOM      6  C   UNL     1       3.068   5.343  18.270  0.00  0.00    +0.000 A 
ATOM      7  C   UNL     1       4.128   4.432  18.113  0.00  0.00    +0.000 A 
ATOM      8  C   UNL     1       5.347   4.895  17.584  0.00  0.00    +0.000 A 
BRANCH   3  10
ATOM      9  C   UNL     1       7.529   7.452  17.436  0.00  0.00    +0.000 C 
ATOM     10  O   UNL     1       6.572   6.830  16.588  0.00  0.00    +0.000 OA
ENDBRANCH   3  10
BRANCH   8  11
ATOM     11  O   UNL     1       6.409   4.034  17.493  0.00  0.00    +0.000 OA
ATOM     12  H   UNL     1       7.239   4.555  17.514  0.00  0.00    +0.000 HD
ENDBRANCH   8  11
BRANCH   7  13
ATOM     13  C   UNL     1       3.916   3.016  18.585  0.00  0.00    +0.000 C 
BRANCH  13  14
ATOM     14  O   UNL     1       4.977   2.616  19.450  0.00  0.00    +0.000 OA
ATOM     15  H   UNL     1       4.877   1.654  19.573  0.00  0.00    +0.000 HD
ENDBRANCH  13  14
ENDBRANCH   7  13
ENDBRANCH   1   5
BRANCH   2  16
ATOM     16  C   UNL     1       1.167   9.219  19.237  0.00  0.00    +0.000 A 
ATOM     17  C   UNL     1       0.331   9.643  18.194  0.00  0.00    +0.000 A 
ATOM     18  C   UNL     1      -0.749  10.514  18.416  0.00  0.00    +0.000 A 
ATOM     19  C   UNL     1      -1.009  10.964  19.726  0.00  0.00    +0.000 A 
ATOM     20  C   UNL     1      -0.178  10.526  20.787  0.00  0.00    +0.000 A 
ATOM     21  C   UNL     1       0.893   9.664  20.533  0.00  0.00    +0.000 A 
BRANCH  18  22
ATOM     22  O   UNL     1      -1.566  10.943  17.403  0.00  0.00    +0.000 OA
ATOM     23  C   UNL     1      -2.347   9.982  16.702  0.00  0.00    +0.000 C 
ENDBRANCH  18  22
BRANCH  19  24
ATOM     24  O   UNL     1      -2.016  11.809  20.132  0.00  0.00    +0.000 OA
ATOM     25  C   UNL     1      -1.863  13.211  20.004  0.00  0.00    +0.000 C 
ENDBRANCH  19  24
BRANCH  20  26
ATOM     26  O   UNL     1      -0.504  10.997  22.039  0.00  0.00    +0.000 OA
ATOM     27  C   UNL     1      -0.628  10.056  23.096  0.00  0.00    +0.000 C 
ENDBRANCH  20  26
ENDBRANCH   2  16
TORSDOF 9
ENDMDL
MODEL 6
REMARK VINA RESULT:      -6.7      0.692      2.535
REMARK  Name = 
REMARK  13 active torsions:
REMARK  status: ('A' for Active; 'I' for Inactive)
REMARK    1  A    between atoms: C_1  and  O_2
REMARK    2  A    between atoms: O_2  and  C_3
REMARK    3  A    between atoms: C_5  and  N_6
REMARK    4  A    between atoms: N_7  and  C_8
REMARK    5  A    between atoms: C_10  and  O_11
REMARK    6  A    between atoms: O_11  and  C_12
REMARK    7  A    between atoms: C_13  and  O_14
REMARK    8  A    between atoms: O_14  and  C_15
REMARK    9  A    between atoms: C_16  and  O_17
REMARK   10  A    between atoms: O_17  and  C_18
REMARK   11  A    between atoms: C_21  and  C_22
REMARK   12  A    between atoms: C_22  and  O_23
REMARK   13  A    between atoms: C_24  and  O_25
REMARK                            x       y       z     vdW  Elec       q    Type
REMARK                         _______ _______ _______ _____ _____    ______ ____
ROOT
ATOM      1  N   UNL     1       2.144   8.438  18.441  0.00  0.00    +0.000 NA
ATOM      2  N   UNL     1       2.298   7.280  18.889  0.00  0.00    +0.000 NA
ENDROOT
BRANCH   1   5
ATOM      3  C   UNL     1      -0.419  10.988  19.323  0.00  0.00    +0.000 A 
ATOM      4  C   UNL     1       0.474  10.179  18.605  0.00  0.00    +0.000 A 
ATOM      5  C   UNL     1       1.265   9.210  19.232  0.00  0.00    +0.000 A 
ATOM      6  C   UNL     1       1.178   9.091  20.626  0.00  0.00    +0.000 A 
ATOM      7  C   UNL     1       0.303   9.892  21.383  0.00  0.00    +0.000 A 
ATOM      8  C   UNL     1      -0.517  10.819  20.713  0.00  0.00    +0.000 A 
BRANCH   3  10
ATOM      9  C   UNL     1      -2.221  11.388  17.789  0.00  0.00    +0.000 C 
ATOM     10  O   UNL     1      -1.101  11.866  18.523  0.00  0.00    +0.000 OA
ENDBRANCH   3  10
BRANCH   8  11
ATOM     11  O   UNL     1      -1.424  11.553  21.432  0.00  0.00    +0.000 OA
ATOM     12  H   UNL     1      -1.793  10.988  22.143  0.00  0.00    +0.000 HD
ENDBRANCH   8  11
BRANCH   7  13
ATOM     13  C   UNL     1       0.247   9.662  22.871  0.00  0.00    +0.000 C 
BRANCH  13  14
ATOM     14  O   UNL     1      -1.077   9.318  23.272  0.00  0.00    +0.000 OA
ATOM     15  H   UNL     1      -1.620  10.115  23.127  0.00  0.00    +0.000 HD
ENDBRANCH  13  14
ENDBRANCH   7  13
ENDBRANCH   1   5
BRANCH   2  16
ATOM     16  C   UNL     1       3.218   6.508  18.142  0.00  0.00    +0.000 A 
ATOM     17  C   UNL     1       4.429   7.009  17.644  0.00  0.00    +0.000 A 
ATOM     18  C   UNL     1       5.337   6.196  16.944  0.00  0.00    +0.000 A 
ATOM     19  C   UNL     1       5.028   4.834  16.749  0.00  0.00    +0.000 A 
ATOM     20  C   UNL     1       3.814   4.318  17.264  0.00  0.00    +0.000 A 
ATOM     21  C   UNL     1       2.928   5.155  17.951  0.00  0.00    +0.000 A 
BRANCH  18  22
ATOM     22  O   UNL     1       6.518   6.676  16.444  0.00  0.00    +0.000 OA
ATOM     23  C   UNL     1       7.417   7.333  17.329  0.00  0.00    +0.000 C 
ENDBRANCH  18  22
BRANCH  19  24
ATOM     24  O   UNL     1       5.791   3.893  16.097  0.00  0.00    +0.000 OA
ATOM     25  C   UNL     1       5.985   3.979  14.697  0.00  0.00    +0.000 C 
ENDBRANCH  19  24
BRANCH  20  26
ATOM     26  O   UNL     1       3.589   2.977  17.046  0.00  0.00    +0.000 OA
ATOM     27  C   UNL     1       3.516   2.119  18.176  0.00  0.00    +0.000 C 
ENDBRANCH  20  26
ENDBRANCH   2  16
TORSDOF 9
ENDMDL
MODEL 7
REMARK VINA RESULT:      -6.7      0.905      3.607
REMARK  Name = 
REMARK  13 active torsions:
REMARK  status: ('A' for Active; 'I' for Inactive)
REMARK    1  A    between atoms: C_1  and  O_2
REMARK    2  A    between atoms: O_2  and  C_3
REMARK    3  A    between atoms: C_5  and  N_6
REMARK    4  A    between atoms: N_7  and  C_8
REMARK    5  A    between atoms: C_10  and  O_11
REMARK    6  A    between atoms: O_11  and  C_12
REMARK    7  A    between atoms: C_13  and  O_14
REMARK    8  A    between atoms: O_14  and  C_15
REMARK    9  A    between atoms: C_16  and  O_17
REMARK   10  A    between atoms: O_17  and  C_18
REMARK   11  A    between atoms: C_21  and  C_22
REMARK   12  A    between atoms: C_22  and  O_23
REMARK   13  A    between atoms: C_24  and  O_25
REMARK                            x       y       z     vdW  Elec       q    Type
REMARK                         _______ _______ _______ _____ _____    ______ ____
ROOT
ATOM      1  N   UNL     1       2.184   8.104  18.547  0.00  0.00    +0.000 NA
ATOM      2  N   UNL     1       2.535   7.079  19.172  0.00  0.00    +0.000 NA
ENDROOT
BRANCH   1   5
ATOM      3  C   UNL     1      -0.295  10.767  19.330  0.00  0.00    +0.000 A 
ATOM      4  C   UNL     1       0.573   9.905  18.644  0.00  0.00    +0.000 A 
ATOM      5  C   UNL     1       1.328   8.932  19.308  0.00  0.00    +0.000 A 
ATOM      6  C   UNL     1       1.231   8.864  20.705  0.00  0.00    +0.000 A 
ATOM      7  C   UNL     1       0.381   9.718  21.429  0.00  0.00    +0.000 A 
ATOM      8  C   UNL     1      -0.404  10.649  20.724  0.00  0.00    +0.000 A 
BRANCH   3  10
ATOM      9  C   UNL     1      -0.451  12.968  18.385  0.00  0.00    +0.000 C 
ATOM     10  O   UNL     1      -0.945  11.640  18.496  0.00  0.00    +0.000 OA
ENDBRANCH   3  10
BRANCH   8  11
ATOM     11  O   UNL     1      -1.290  11.437  21.413  0.00  0.00    +0.000 OA
ATOM     12  H   UNL     1      -0.789  11.985  22.054  0.00  0.00    +0.000 HD
ENDBRANCH   8  11
BRANCH   7  13
ATOM     13  C   UNL     1       0.311   9.541  22.924  0.00  0.00    +0.000 C 
BRANCH  13  14
ATOM     14  O   UNL     1      -1.047   9.480  23.355  0.00  0.00    +0.000 OA
ATOM     15  H   UNL     1      -1.528  10.145  22.829  0.00  0.00    +0.000 HD
ENDBRANCH  13  14
ENDBRANCH   7  13
ENDBRANCH   1   5
BRANCH   2  16
ATOM     16  C   UNL     1       3.438   6.264  18.450  0.00  0.00    +0.000 A 
ATOM     17  C   UNL     1       3.240   4.894  18.225  0.00  0.00    +0.000 A 
ATOM     18  C   UNL     1       4.140   4.129  17.464  0.00  0.00    +0.000 A 
ATOM     19  C   UNL     1       5.266   4.759  16.897  0.00  0.00    +0.000 A 
ATOM     20  C   UNL     1       5.463   6.146  17.106  0.00  0.00    +0.000 A 
ATOM     21  C   UNL     1       4.552   6.878  17.874  0.00  0.00    +0.000 A 
BRANCH  18  22
ATOM     22  O   UNL     1       3.962   2.788  17.247  0.00  0.00    +0.000 OA
ATOM     23  C   UNL     1       3.030   2.082  18.056  0.00  0.00    +0.000 C 
ENDBRANCH  18  22
BRANCH  19  24
ATOM     24  O   UNL     1       6.244   4.176  16.125  0.00  0.00    +0.000 OA
ATOM     25  C   UNL     1       6.024   3.952  14.745  0.00  0.00    +0.000 C 
ENDBRANCH  19  24
BRANCH  20  26
ATOM     26  O   UNL     1       6.577   6.692  16.509  0.00  0.00    +0.000 OA
ATOM     27  C   UNL     1       7.503   7.387  17.332  0.00  0.00    +0.000 C 
ENDBRANCH  20  26
ENDBRANCH   2  16
TORSDOF 9
ENDMDL
MODEL 8
REMARK VINA RESULT:      -6.6      1.888      8.667
REMARK  Name = 
REMARK  13 active torsions:
REMARK  status: ('A' for Active; 'I' for Inactive)
REMARK    1  A    between atoms: C_1  and  O_2
REMARK    2  A    between atoms: O_2  and  C_3
REMARK    3  A    between atoms: C_5  and  N_6
REMARK    4  A    between atoms: N_7  and  C_8
REMARK    5  A    between atoms: C_10  and  O_11
REMARK    6  A    between atoms: O_11  and  C_12
REMARK    7  A    between atoms: C_13  and  O_14
REMARK    8  A    between atoms: O_14  and  C_15
REMARK    9  A    between atoms: C_16  and  O_17
REMARK   10  A    between atoms: O_17  and  C_18
REMARK   11  A    between atoms: C_21  and  C_22
REMARK   12  A    between atoms: C_22  and  O_23
REMARK   13  A    between atoms: C_24  and  O_25
REMARK                            x       y       z     vdW  Elec       q    Type
REMARK                         _______ _______ _______ _____ _____    ______ ____
ROOT
ATOM      1  N   UNL     1       2.200   7.592  18.216  0.00  0.00    +0.000 NA
ATOM      2  N   UNL     1       2.500   8.747  17.840  0.00  0.00    +0.000 NA
ENDROOT
BRANCH   1   5
ATOM      3  C   UNL     1       5.533   6.271  17.216  0.00  0.00    +0.000 A 
ATOM      4  C   UNL     1       4.441   7.124  17.436  0.00  0.00    +0.000 A 
ATOM      5  C   UNL     1       3.258   6.673  18.033  0.00  0.00    +0.000 A 
ATOM      6  C   UNL     1       3.168   5.317  18.375  0.00  0.00    +0.000 A 
ATOM      7  C   UNL     1       4.237   4.428  18.160  0.00  0.00    +0.000 A 
ATOM      8  C   UNL     1       5.431   4.927  17.606  0.00  0.00    +0.000 A 
BRANCH   3  10
ATOM      9  C   UNL     1       7.549   7.551  17.458  0.00  0.00    +0.000 C 
ATOM     10  O   UNL     1       6.593   6.908  16.626  0.00  0.00    +0.000 OA
ENDBRANCH   3  10
BRANCH   8  11
ATOM     11  O   UNL     1       6.504   4.086  17.459  0.00  0.00    +0.000 OA
ATOM     12  H   UNL     1       6.778   3.768  18.345  0.00  0.00    +0.000 HD
ENDBRANCH   8  11
BRANCH   7  13
ATOM     13  C   UNL     1       4.063   2.998  18.600  0.00  0.00    +0.000 C 
BRANCH  13  14
ATOM     14  O   UNL     1       5.078   2.638  19.536  0.00  0.00    +0.000 OA
ATOM     15  H   UNL     1       4.638   2.584  20.404  0.00  0.00    +0.000 HD
ENDBRANCH  13  14
ENDBRANCH   7  13
ENDBRANCH   1   5
BRANCH   2  16
ATOM     16  C   UNL     1       1.475   9.694  18.066  0.00  0.00    +0.000 A 
ATOM     17  C   UNL     1       0.109   9.410  17.924  0.00  0.00    +0.000 A 
ATOM     18  C   UNL     1      -0.882  10.368  18.201  0.00  0.00    +0.000 A 
ATOM     19  C   UNL     1      -0.492  11.646  18.648  0.00  0.00    +0.000 A 
ATOM     20  C   UNL     1       0.886  11.935  18.810  0.00  0.00    +0.000 A 
ATOM     21  C   UNL     1       1.847  10.961  18.519  0.00  0.00    +0.000 A 
BRANCH  18  22
ATOM     22  O   UNL     1      -2.218  10.105  18.056  0.00  0.00    +0.000 OA
ATOM     23  C   UNL     1      -2.817  10.292  16.780  0.00  0.00    +0.000 C 
ENDBRANCH  18  22
BRANCH  19  24
ATOM     24  O   UNL     1      -1.314  12.702  18.969  0.00  0.00    +0.000 OA
ATOM     25  C   UNL     1      -2.062  12.682  20.171  0.00  0.00    +0.000 C 
ENDBRANCH  19  24
BRANCH  20  26
ATOM     26  O   UNL     1       1.186  13.199  19.263  0.00  0.00    +0.000 OA
ATOM     27  C   UNL     1       2.038  14.010  18.466  0.00  0.00    +0.000 C 
ENDBRANCH  20  26
ENDBRANCH   2  16
TORSDOF 9
ENDMDL
MODEL 9
REMARK VINA RESULT:      -6.6      1.789      8.294
REMARK  Name = 
REMARK  13 active torsions:
REMARK  status: ('A' for Active; 'I' for Inactive)
REMARK    1  A    between atoms: C_1  and  O_2
REMARK    2  A    between atoms: O_2  and  C_3
REMARK    3  A    between atoms: C_5  and  N_6
REMARK    4  A    between atoms: N_7  and  C_8
REMARK    5  A    between atoms: C_10  and  O_11
REMARK    6  A    between atoms: O_11  and  C_12
REMARK    7  A    between atoms: C_13  and  O_14
REMARK    8  A    between atoms: O_14  and  C_15
REMARK    9  A    between atoms: C_16  and  O_17
REMARK   10  A    between atoms: O_17  and  C_18
REMARK   11  A    between atoms: C_21  and  C_22
REMARK   12  A    between atoms: C_22  and  O_23
REMARK   13  A    between atoms: C_24  and  O_25
REMARK                            x       y       z     vdW  Elec       q    Type
REMARK                         _______ _______ _______ _____ _____    ______ ____
ROOT
ATOM      1  N   UNL     1       2.212   7.698  18.221  0.00  0.00    +0.000 NA
ATOM      2  N   UNL     1       2.460   8.786  17.655  0.00  0.00    +0.000 NA
ENDROOT
BRANCH   1   5
ATOM      3  C   UNL     1       5.322   6.097  16.948  0.00  0.00    +0.000 A 
ATOM      4  C   UNL     1       4.368   7.049  17.338  0.00  0.00    +0.000 A 
ATOM      5  C   UNL     1       3.122   6.680  17.855  0.00  0.00    +0.000 A 
ATOM      6  C   UNL     1       2.821   5.313  17.936  0.00  0.00    +0.000 A 
ATOM      7  C   UNL     1       3.746   4.329  17.544  0.00  0.00    +0.000 A 
ATOM      8  C   UNL     1       5.011   4.735  17.079  0.00  0.00    +0.000 A 
BRANCH   3  10
ATOM      9  C   UNL     1       7.363   7.274  17.403  0.00  0.00    +0.000 C 
ATOM     10  O   UNL     1       6.476   6.665  16.475  0.00  0.00    +0.000 OA
ENDBRANCH   3  10
BRANCH   8  11
ATOM     11  O   UNL     1       5.945   3.783  16.762  0.00  0.00    +0.000 OA
ATOM     12  H   UNL     1       6.730   4.229  16.378  0.00  0.00    +0.000 HD
ENDBRANCH   8  11
BRANCH   7  13
ATOM     13  C   UNL     1       3.350   2.884  17.708  0.00  0.00    +0.000 C 
BRANCH  13  14
ATOM     14  O   UNL     1       4.283   2.204  18.545  0.00  0.00    +0.000 OA
ATOM     15  H   UNL     1       5.162   2.555  18.311  0.00  0.00    +0.000 HD
ENDBRANCH  13  14
ENDBRANCH   7  13
ENDBRANCH   1   5
BRANCH   2  16
ATOM     16  C   UNL     1       1.596   9.833  18.050  0.00  0.00    +0.000 A 
ATOM     17  C   UNL     1       2.035  11.128  18.360  0.00  0.00    +0.000 A 
ATOM     18  C   UNL     1       1.138  12.153  18.706  0.00  0.00    +0.000 A 
ATOM     19  C   UNL     1      -0.243  11.875  18.729  0.00  0.00    +0.000 A 
ATOM     20  C   UNL     1      -0.695  10.573  18.402  0.00  0.00    +0.000 A 
ATOM     21  C   UNL     1       0.224   9.573  18.067  0.00  0.00    +0.000 A 
BRANCH  18  22
ATOM     22  O   UNL     1       1.556  13.419  19.020  0.00  0.00    +0.000 OA
ATOM     23  C   UNL     1       2.583  13.579  19.991  0.00  0.00    +0.000 C 
ENDBRANCH  18  22
BRANCH  19  24
ATOM     24  O   UNL     1      -1.262  12.747  19.039  0.00  0.00    +0.000 OA
ATOM     25  C   UNL     1      -1.513  13.099  20.387  0.00  0.00    +0.000 C 
ENDBRANCH  19  24
BRANCH  20  26
ATOM     26  O   UNL     1      -2.058  10.383  18.433  0.00  0.00    +0.000 OA
ATOM     27  C   UNL     1      -2.699   9.945  17.244  0.00  0.00    +0.000 C 
ENDBRANCH  20  26
ENDBRANCH   2  16
TORSDOF 9
ENDMDL
