MODEL 1
REMARK VINA RESULT:      -8.3      0.000      0.000
REMARK  Name = 
REMARK  6 active torsions:
REMARK  status: ('A' for Active; 'I' for Inactive)
REMARK    1  A    between atoms: C_2  and  C_3
REMARK    2  A    between atoms: C_3  and  C_4
REMARK    3  A    between atoms: N_14  and  C_15
REMARK    4  A    between atoms: C_15  and  C_16
REMARK    5  A    between atoms: N_21  and  C_22
REMARK    6  A    between atoms: C_22  and  C_23
REMARK                            x       y       z     vdW  Elec       q    Type
REMARK                         _______ _______ _______ _____ _____    ______ ____
ROOT
ATOM      1  C   UNL     1       0.973   9.298  17.778  0.00  0.00    +0.000 C 
ENDROOT
BRANCH   1   2
ATOM      2  C   UNL     1       1.565  10.593  18.361  0.00  0.00    +0.000 C 
ATOM      3  O   UNL     1       2.613  11.040  17.892  0.00  0.00    +0.000 OA
ATOM      4  N   UNL     1       0.938  11.186  19.445  0.00  0.00    +0.000 N 
ATOM      5  C   UNL     1       1.405  12.488  19.935  0.00  0.00    +0.000 C 
ATOM      6  C   UNL     1       0.222  13.477  20.098  0.00  0.00    +0.000 C 
ATOM      7  N   UNL     1      -0.928  12.944  20.877  0.00  0.00    +0.000 NA
ATOM      8  C   UNL     1      -1.337  11.661  20.252  0.00  0.00    +0.000 C 
ATOM      9  C   UNL     1      -0.203  10.628  20.177  0.00  0.00    +0.000 C 
BRANCH   7  10
ATOM     10  C   UNL     1      -0.567  12.809  22.304  0.00  0.00    +0.000 C 
BRANCH  10  11
ATOM     11  C   UNL     1      -1.581  13.375  23.263  0.00  0.00    +0.000 A 
ATOM     12  C   UNL     1      -2.828  12.768  23.453  0.00  0.00    +0.000 A 
ATOM     13  C   UNL     1      -3.760  13.352  24.307  0.00  0.00    +0.000 A 
ATOM     14  C   UNL     1      -3.403  14.516  24.965  0.00  0.00    +0.000 A 
ATOM     15  N   UNL     1      -2.199  15.112  24.837  0.00  0.00    +0.000 NA
ATOM     16  C   UNL     1      -1.318  14.532  23.989  0.00  0.00    +0.000 A 
ENDBRANCH  10  11
ENDBRANCH   7  10
ENDBRANCH   1   2
BRANCH   1  19
ATOM     17  O   UNL     1       1.791   7.915  20.133  0.00  0.00    +0.000 OA
ATOM     18  C   UNL     1       2.273   7.602  19.047  0.00  0.00    +0.000 C 
ATOM     19  N   UNL     1       1.935   8.214  17.866  0.00  0.00    +0.000 N 
ATOM     20  H   UNL     1       2.427   7.976  17.013  0.00  0.00    +0.000 HD
BRANCH  18  21
ATOM     21  C   UNL     1       3.315   6.499  18.905  0.00  0.00    +0.000 C 
BRANCH  21  22
ATOM     22  C   UNL     1       2.810   5.075  19.223  0.00  0.00    +0.000 C 
ATOM     23  C   UNL     1       1.924   4.522  18.078  0.00  0.00    +0.000 C 
ATOM     24  C   UNL     1       1.464   3.087  18.386  0.00  0.00    +0.000 C 
ATOM     25  C   UNL     1       2.694   2.181  18.543  0.00  0.00    +0.000 C 
ATOM     26  C   UNL     1       3.574   2.687  19.697  0.00  0.00    +0.000 C 
ATOM     27  C   UNL     1       2.759   2.683  21.000  0.00  0.00    +0.000 C 
ATOM     28  C   UNL     1       1.533   3.599  20.852  0.00  0.00    +0.000 C 
ATOM     29  C   UNL     1       0.658   3.087  19.696  0.00  0.00    +0.000 C 
ATOM     30  C   UNL     1       1.997   5.032  20.540  0.00  0.00    +0.000 C 
ATOM     31  C   UNL     1       4.031   4.124  19.391  0.00  0.00    +0.000 C 
ENDBRANCH  21  22
ENDBRANCH  18  21
ENDBRANCH   1  19
TORSDOF 6
ENDMDL
MODEL 2
REMARK VINA RESULT:      -8.2      1.383      2.015
REMARK  Name = 
REMARK  6 active torsions:
REMARK  status: ('A' for Active; 'I' for Inactive)
REMARK    1  A    between atoms: C_2  and  C_3
REMARK    2  A    between atoms: C_3  and  C_4
REMARK    3  A    between atoms: N_14  and  C_15
REMARK    4  A    between atoms: C_15  and  C_16
REMARK    5  A    between atoms: N_21  and  C_22
REMARK    6  A    between atoms: C_22  and  C_23
REMARK                            x       y       z     vdW  Elec       q    Type
REMARK                         _______ _______ _______ _____ _____    ______ ____
ROOT
ATOM      1  C   UNL     1       1.365   8.942  17.813  0.00  0.00    +0.000 C 
ENDROOT
BRANCH   1   2
ATOM      2  C   UNL     1       1.641  10.396  18.233  0.00  0.00    +0.000 C 
ATOM      3  O   UNL     1       2.670  10.951  17.841  0.00  0.00    +0.000 OA
ATOM      4  N   UNL     1       0.757  11.022  19.097  0.00  0.00    +0.000 N 
ATOM      5  C   UNL     1       0.926  12.446  19.408  0.00  0.00    +0.000 C 
ATOM      6  C   UNL     1      -0.409  13.216  19.228  0.00  0.00    +0.000 C 
ATOM      7  N   UNL     1      -1.574  12.606  19.922  0.00  0.00    +0.000 NA
ATOM      8  C   UNL     1      -1.667  11.190  19.485  0.00  0.00    +0.000 C 
ATOM      9  C   UNL     1      -0.388  10.382  19.752  0.00  0.00    +0.000 C 
BRANCH   7  10
ATOM     10  C   UNL     1      -1.439  12.756  21.387  0.00  0.00    +0.000 C 
BRANCH  10  11
ATOM     11  C   UNL     1      -2.745  12.774  22.137  0.00  0.00    +0.000 A 
ATOM     12  C   UNL     1      -3.872  13.435  21.631  0.00  0.00    +0.000 A 
ATOM     13  C   UNL     1      -5.045  13.476  22.379  0.00  0.00    +0.000 A 
ATOM     14  C   UNL     1      -5.061  12.830  23.604  0.00  0.00    +0.000 A 
ATOM     15  N   UNL     1      -4.009  12.153  24.110  0.00  0.00    +0.000 NA
ATOM     16  C   UNL     1      -2.877  12.142  23.369  0.00  0.00    +0.000 A 
ENDBRANCH  10  11
ENDBRANCH   7  10
ENDBRANCH   1   2
BRANCH   1  19
ATOM     17  O   UNL     1       3.550   7.273  17.064  0.00  0.00    +0.000 OA
ATOM     18  C   UNL     1       3.138   7.249  18.221  0.00  0.00    +0.000 C 
ATOM     19  N   UNL     1       2.093   8.019  18.666  0.00  0.00    +0.000 N 
ATOM     20  H   UNL     1       1.736   7.896  19.606  0.00  0.00    +0.000 HD
BRANCH  18  21
ATOM     21  C   UNL     1       3.743   6.341  19.284  0.00  0.00    +0.000 C 
BRANCH  21  22
ATOM     22  C   UNL     1       3.038   4.978  19.460  0.00  0.00    +0.000 C 
ATOM     23  C   UNL     1       2.149   4.963  20.731  0.00  0.00    +0.000 C 
ATOM     24  C   UNL     1       1.417   3.617  20.871  0.00  0.00    +0.000 C 
ATOM     25  C   UNL     1       0.528   3.391  19.639  0.00  0.00    +0.000 C 
ATOM     26  C   UNL     1       1.389   3.366  18.367  0.00  0.00    +0.000 C 
ATOM     27  C   UNL     1       2.423   2.234  18.473  0.00  0.00    +0.000 C 
ATOM     28  C   UNL     1       3.325   2.463  19.696  0.00  0.00    +0.000 C 
ATOM     29  C   UNL     1       2.456   2.487  20.965  0.00  0.00    +0.000 C 
ATOM     30  C   UNL     1       4.052   3.812  19.555  0.00  0.00    +0.000 C 
ATOM     31  C   UNL     1       2.124   4.712  18.229  0.00  0.00    +0.000 C 
ENDBRANCH  21  22
ENDBRANCH  18  21
ENDBRANCH   1  19
TORSDOF 6
ENDMDL
MODEL 3
REMARK VINA RESULT:      -8.1      0.979      1.697
REMARK  Name = 
REMARK  6 active torsions:
REMARK  status: ('A' for Active; 'I' for Inactive)
REMARK    1  A    between atoms: C_2  and  C_3
REMARK    2  A    between atoms: C_3  and  C_4
REMARK    3  A    between atoms: N_14  and  C_15
REMARK    4  A    between atoms: C_15  and  C_16
REMARK    5  A    between atoms: N_21  and  C_22
REMARK    6  A    between atoms: C_22  and  C_23
REMARK                            x       y       z     vdW  Elec       q    Type
REMARK                         _______ _______ _______ _____ _____    ______ ____
ROOT
ATOM      1  C   UNL     1       0.927   9.217  17.873  0.00  0.00    +0.000 C 
ENDROOT
BRANCH   1   2
ATOM      2  C   UNL     1       1.504  10.578  18.301  0.00  0.00    +0.000 C 
ATOM      3  O   UNL     1       2.624  10.907  17.905  0.00  0.00    +0.000 OA
ATOM      4  N   UNL     1       0.776  11.369  19.174  0.00  0.00    +0.000 N 
ATOM      5  C   UNL     1       1.241  12.723  19.494  0.00  0.00    +0.000 C 
ATOM      6  C   UNL     1       0.097  13.757  19.328  0.00  0.00    +0.000 C 
ATOM      7  N   UNL     1      -1.167  13.400  20.027  0.00  0.00    +0.000 NA
ATOM      8  C   UNL     1      -1.557  12.039  19.581  0.00  0.00    +0.000 C 
ATOM      9  C   UNL     1      -0.475  10.978  19.834  0.00  0.00    +0.000 C 
BRANCH   7  10
ATOM     10  C   UNL     1      -0.995  13.506  21.491  0.00  0.00    +0.000 C 
BRANCH  10  11
ATOM     11  C   UNL     1      -2.273  13.390  22.281  0.00  0.00    +0.000 A 
ATOM     12  C   UNL     1      -2.446  12.398  23.253  0.00  0.00    +0.000 A 
ATOM     13  C   UNL     1      -3.661  12.289  23.923  0.00  0.00    +0.000 A 
ATOM     14  C   UNL     1      -4.660  13.197  23.616  0.00  0.00    +0.000 A 
ATOM     15  N   UNL     1      -4.520  14.190  22.712  0.00  0.00    +0.000 NA
ATOM     16  C   UNL     1      -3.334  14.263  22.065  0.00  0.00    +0.000 A 
ENDBRANCH  10  11
ENDBRANCH   7  10
ENDBRANCH   1   2
BRANCH   1  19
ATOM     17  O   UNL     1       1.719   7.911  20.279  0.00  0.00    +0.000 OA
ATOM     18  C   UNL     1       2.248   7.597  19.216  0.00  0.00    +0.000 C 
ATOM     19  N   UNL     1       1.927   8.173  18.013  0.00  0.00    +0.000 N 
ATOM     20  H   UNL     1       2.455   7.940  17.181  0.00  0.00    +0.000 HD
BRANCH  18  21
ATOM     21  C   UNL     1       3.337   6.534  19.129  0.00  0.00    +0.000 C 
BRANCH  21  22
ATOM     22  C   UNL     1       2.852   5.082  19.334  0.00  0.00    +0.000 C 
ATOM     23  C   UNL     1       4.045   4.095  19.410  0.00  0.00    +0.000 C 
ATOM     24  C   UNL     1       3.553   2.659  19.660  0.00  0.00    +0.000 C 
ATOM     25  C   UNL     1       2.782   2.609  20.987  0.00  0.00    +0.000 C 
ATOM     26  C   UNL     1       1.572   3.554  20.927  0.00  0.00    +0.000 C 
ATOM     27  C   UNL     1       0.647   3.127  19.776  0.00  0.00    +0.000 C 
ATOM     28  C   UNL     1       1.410   3.188  18.443  0.00  0.00    +0.000 C 
ATOM     29  C   UNL     1       2.620   2.240  18.511  0.00  0.00    +0.000 C 
ATOM     30  C   UNL     1       1.905   4.624  18.199  0.00  0.00    +0.000 C 
ATOM     31  C   UNL     1       2.065   4.990  20.673  0.00  0.00    +0.000 C 
ENDBRANCH  21  22
ENDBRANCH  18  21
ENDBRANCH   1  19
TORSDOF 6
ENDMDL
MODEL 4
REMARK VINA RESULT:      -8.1      1.212      1.990
REMARK  Name = 
REMARK  6 active torsions:
REMARK  status: ('A' for Active; 'I' for Inactive)
REMARK    1  A    between atoms: C_2  and  C_3
REMARK    2  A    between atoms: C_3  and  C_4
REMARK    3  A    between atoms: N_14  and  C_15
REMARK    4  A    between atoms: C_15  and  C_16
REMARK    5  A    between atoms: N_21  and  C_22
REMARK    6  A    between atoms: C_22  and  C_23
REMARK                            x       y       z     vdW  Elec       q    Type
REMARK                         _______ _______ _______ _____ _____    ______ ____
ROOT
ATOM      1  C   UNL     1       1.074   9.231  17.676  0.00  0.00    +0.000 C 
ENDROOT
BRANCH   1   2
ATOM      2  C   UNL     1       1.448  10.534  18.404  0.00  0.00    +0.000 C 
ATOM      3  O   UNL     1       2.544  11.052  18.184  0.00  0.00    +0.000 OA
ATOM      4  N   UNL     1       0.568  11.054  19.339  0.00  0.00    +0.000 N 
ATOM      5  C   UNL     1       0.840  12.360  19.949  0.00  0.00    +0.000 C 
ATOM      6  C   UNL     1      -0.407  13.278  19.875  0.00  0.00    +0.000 C 
ATOM      7  N   UNL     1      -1.664  12.658  20.373  0.00  0.00    +0.000 NA
ATOM      8  C   UNL     1      -1.852  11.378  19.645  0.00  0.00    +0.000 C 
ATOM      9  C   UNL     1      -0.669  10.409  19.793  0.00  0.00    +0.000 C 
BRANCH   7  10
ATOM     10  C   UNL     1      -1.611  12.490  21.841  0.00  0.00    +0.000 C 
BRANCH  10  11
ATOM     11  C   UNL     1      -2.947  12.590  22.531  0.00  0.00    +0.000 A 
ATOM     12  C   UNL     1      -3.063  12.483  23.922  0.00  0.00    +0.000 A 
ATOM     13  C   UNL     1      -4.321  12.526  24.517  0.00  0.00    +0.000 A 
ATOM     14  C   UNL     1      -5.424  12.701  23.700  0.00  0.00    +0.000 A 
ATOM     15  N   UNL     1      -5.352  12.844  22.360  0.00  0.00    +0.000 NA
ATOM     16  C   UNL     1      -4.118  12.783  21.806  0.00  0.00    +0.000 A 
ENDBRANCH  10  11
ENDBRANCH   7  10
ENDBRANCH   1   2
BRANCH   1  19
ATOM     17  O   UNL     1       1.646   7.826  20.089  0.00  0.00    +0.000 OA
ATOM     18  C   UNL     1       2.307   7.593  19.080  0.00  0.00    +0.000 C 
ATOM     19  N   UNL     1       2.099   8.222  17.878  0.00  0.00    +0.000 N 
ATOM     20  H   UNL     1       2.729   8.058  17.103  0.00  0.00    +0.000 HD
BRANCH  18  21
ATOM     21  C   UNL     1       3.447   6.581  19.066  0.00  0.00    +0.000 C 
BRANCH  21  22
ATOM     22  C   UNL     1       3.016   5.107  19.227  0.00  0.00    +0.000 C 
ATOM     23  C   UNL     1       2.402   4.849  20.628  0.00  0.00    +0.000 C 
ATOM     24  C   UNL     1       1.936   3.389  20.760  0.00  0.00    +0.000 C 
ATOM     25  C   UNL     1       0.874   3.095  19.690  0.00  0.00    +0.000 C 
ATOM     26  C   UNL     1       1.467   3.310  18.289  0.00  0.00    +0.000 C 
ATOM     27  C   UNL     1       2.670   2.372  18.095  0.00  0.00    +0.000 C 
ATOM     28  C   UNL     1       3.741   2.672  19.154  0.00  0.00    +0.000 C 
ATOM     29  C   UNL     1       3.140   2.455  20.554  0.00  0.00    +0.000 C 
ATOM     30  C   UNL     1       4.202   4.134  19.022  0.00  0.00    +0.000 C 
ATOM     31  C   UNL     1       1.937   4.770  18.158  0.00  0.00    +0.000 C 
ENDBRANCH  21  22
ENDBRANCH  18  21
ENDBRANCH   1  19
TORSDOF 6
ENDMDL
MODEL 5
REMARK VINA RESULT:      -8.1      2.470      3.774
REMARK  Name = 
REMARK  6 active torsions:
REMARK  status: ('A' for Active; 'I' for Inactive)
REMARK    1  A    between atoms: C_2  and  C_3
REMARK    2  A    between atoms: C_3  and  C_4
REMARK    3  A    between atoms: N_14  and  C_15
REMARK    4  A    between atoms: C_15  and  C_16
REMARK    5  A    between atoms: N_21  and  C_22
REMARK    6  A    between atoms: C_22  and  C_23
REMARK                            x       y       z     vdW  Elec       q    Type
REMARK                         _______ _______ _______ _____ _____    ______ ____
ROOT
ATOM      1  C   UNL     1       1.974   6.424  20.808  0.00  0.00    +0.000 C 
ENDROOT
BRANCH   1   2
ATOM      2  C   UNL     1       1.856   7.740  20.020  0.00  0.00    +0.000 C 
ATOM      3  O   UNL     1       2.372   7.821  18.903  0.00  0.00    +0.000 OA
ATOM      4  N   UNL     1       1.230   8.823  20.615  0.00  0.00    +0.000 N 
ATOM      5  C   UNL     1       0.989  10.044  19.839  0.00  0.00    +0.000 C 
ATOM      6  C   UNL     1      -0.484  10.507  19.975  0.00  0.00    +0.000 C 
ATOM      7  N   UNL     1      -0.976  10.606  21.376  0.00  0.00    +0.000 NA
ATOM      8  C   UNL     1      -0.724   9.299  22.033  0.00  0.00    +0.000 C 
ATOM      9  C   UNL     1       0.751   8.872  22.001  0.00  0.00    +0.000 C 
BRANCH   7  10
ATOM     10  C   UNL     1      -0.332  11.741  22.070  0.00  0.00    +0.000 C 
BRANCH  10  11
ATOM     11  C   UNL     1      -1.279  12.617  22.848  0.00  0.00    +0.000 A 
ATOM     12  C   UNL     1      -2.546  12.164  23.235  0.00  0.00    +0.000 A 
ATOM     13  C   UNL     1      -3.413  13.022  23.906  0.00  0.00    +0.000 A 
ATOM     14  C   UNL     1      -2.973  14.303  24.192  0.00  0.00    +0.000 A 
ATOM     15  N   UNL     1      -1.747  14.766  23.869  0.00  0.00    +0.000 NA
ATOM     16  C   UNL     1      -0.930  13.916  23.203  0.00  0.00    +0.000 A 
ENDBRANCH  10  11
ENDBRANCH   7  10
ENDBRANCH   1   2
BRANCH   1  19
ATOM     17  O   UNL     1       1.467   4.351  18.920  0.00  0.00    +0.000 OA
ATOM     18  C   UNL     1       2.619   4.569  19.287  0.00  0.00    +0.000 C 
ATOM     19  N   UNL     1       2.952   5.546  20.190  0.00  0.00    +0.000 N 
ATOM     20  H   UNL     1       3.905   5.625  20.524  0.00  0.00    +0.000 HD
BRANCH  18  21
ATOM     21  C   UNL     1       3.804   3.756  18.779  0.00  0.00    +0.000 C 
BRANCH  21  22
ATOM     22  C   UNL     1       4.776   4.522  17.856  0.00  0.00    +0.000 C 
ATOM     23  C   UNL     1       6.073   4.920  18.608  0.00  0.00    +0.000 C 
ATOM     24  C   UNL     1       7.052   5.642  17.666  0.00  0.00    +0.000 C 
ATOM     25  C   UNL     1       7.419   4.711  16.501  0.00  0.00    +0.000 C 
ATOM     26  C   UNL     1       6.154   4.328  15.717  0.00  0.00    +0.000 C 
ATOM     27  C   UNL     1       5.488   5.601  15.170  0.00  0.00    +0.000 C 
ATOM     28  C   UNL     1       5.106   6.531  16.333  0.00  0.00    +0.000 C 
ATOM     29  C   UNL     1       6.376   6.908  17.114  0.00  0.00    +0.000 C 
ATOM     30  C   UNL     1       4.131   5.803  17.275  0.00  0.00    +0.000 C 
ATOM     31  C   UNL     1       5.173   3.609  16.660  0.00  0.00    +0.000 C 
ENDBRANCH  21  22
ENDBRANCH  18  21
ENDBRANCH   1  19
TORSDOF 6
ENDMDL
MODEL 6
REMARK VINA RESULT:      -8.0      0.804      1.586
REMARK  Name = 
REMARK  6 active torsions:
REMARK  status: ('A' for Active; 'I' for Inactive)
REMARK    1  A    between atoms: C_2  and  C_3
REMARK    2  A    between atoms: C_3  and  C_4
REMARK    3  A    between atoms: N_14  and  C_15
REMARK    4  A    between atoms: C_15  and  C_16
REMARK    5  A    between atoms: N_21  and  C_22
REMARK    6  A    between atoms: C_22  and  C_23
REMARK                            x       y       z     vdW  Elec       q    Type
REMARK                         _______ _______ _______ _____ _____    ______ ____
ROOT
ATOM      1  C   UNL     1       1.406   9.001  17.923  0.00  0.00    +0.000 C 
ENDROOT
BRANCH   1   2
ATOM      2  C   UNL     1       1.756  10.438  18.350  0.00  0.00    +0.000 C 
ATOM      3  O   UNL     1       2.667  11.032  17.772  0.00  0.00    +0.000 OA
ATOM      4  N   UNL     1       1.080  11.000  19.420  0.00  0.00    +0.000 N 
ATOM      5  C   UNL     1       1.301  12.409  19.764  0.00  0.00    +0.000 C 
ATOM      6  C   UNL     1      -0.046  13.160  19.925  0.00  0.00    +0.000 C 
ATOM      7  N   UNL     1      -1.024  12.492  20.826  0.00  0.00    +0.000 NA
ATOM      8  C   UNL     1      -1.199  11.099  20.343  0.00  0.00    +0.000 C 
ATOM      9  C   UNL     1       0.114  10.304  20.277  0.00  0.00    +0.000 C 
BRANCH   7  10
ATOM     10  C   UNL     1      -0.568  12.570  22.230  0.00  0.00    +0.000 C 
BRANCH  10  11
ATOM     11  C   UNL     1      -1.569  13.176  23.179  0.00  0.00    +0.000 A 
ATOM     12  C   UNL     1      -2.823  12.593  23.392  0.00  0.00    +0.000 A 
ATOM     13  C   UNL     1      -3.741  13.213  24.236  0.00  0.00    +0.000 A 
ATOM     14  C   UNL     1      -3.362  14.389  24.861  0.00  0.00    +0.000 A 
ATOM     15  N   UNL     1      -2.150  14.963  24.711  0.00  0.00    +0.000 NA
ATOM     16  C   UNL     1      -1.284  14.347  23.873  0.00  0.00    +0.000 A 
ENDBRANCH  10  11
ENDBRANCH   7  10
ENDBRANCH   1   2
BRANCH   1  19
ATOM     17  O   UNL     1       3.535   7.392  16.923  0.00  0.00    +0.000 OA
ATOM     18  C   UNL     1       3.212   7.304  18.105  0.00  0.00    +0.000 C 
ATOM     19  N   UNL     1       2.201   8.041  18.668  0.00  0.00    +0.000 N 
ATOM     20  H   UNL     1       1.917   7.866  19.625  0.00  0.00    +0.000 HD
BRANCH  18  21
ATOM     21  C   UNL     1       3.900   6.346  19.070  0.00  0.00    +0.000 C 
BRANCH  21  22
ATOM     22  C   UNL     1       3.151   5.019  19.322  0.00  0.00    +0.000 C 
ATOM     23  C   UNL     1       2.252   5.111  20.581  0.00  0.00    +0.000 C 
ATOM     24  C   UNL     1       1.476   3.799  20.796  0.00  0.00    +0.000 C 
ATOM     25  C   UNL     1       0.591   3.525  19.572  0.00  0.00    +0.000 C 
ATOM     26  C   UNL     1       1.461   3.395  18.313  0.00  0.00    +0.000 C 
ATOM     27  C   UNL     1       2.458   2.240  18.498  0.00  0.00    +0.000 C 
ATOM     28  C   UNL     1       3.356   2.516  19.714  0.00  0.00    +0.000 C 
ATOM     29  C   UNL     1       2.478   2.645  20.970  0.00  0.00    +0.000 C 
ATOM     30  C   UNL     1       4.127   3.830  19.498  0.00  0.00    +0.000 C 
ATOM     31  C   UNL     1       2.240   4.706  18.100  0.00  0.00    +0.000 C 
ENDBRANCH  21  22
ENDBRANCH  18  21
ENDBRANCH   1  19
TORSDOF 6
ENDMDL
MODEL 7
REMARK VINA RESULT:      -8.0      6.855      8.711
REMARK  Name = 
REMARK  6 active torsions:
REMARK  status: ('A' for Active; 'I' for Inactive)
REMARK    1  A    between atoms: C_2  and  C_3
REMARK    2  A    between atoms: C_3  and  C_4
REMARK    3  A    between atoms: N_14  and  C_15
REMARK    4  A    between atoms: C_15  and  C_16
REMARK    5  A    between atoms: N_21  and  C_22
REMARK    6  A    between atoms: C_22  and  C_23
REMARK                            x       y       z     vdW  Elec       q    Type
REMARK                         _______ _______ _______ _____ _____    ______ ____
ROOT
ATOM      1  C   UNL     1       8.372   7.834  18.820  0.00  0.00    +0.000 C 
ENDROOT
BRANCH   1   2
ATOM      2  C   UNL     1       8.212   9.143  18.027  0.00  0.00    +0.000 C 
ATOM      3  O   UNL     1       7.486   9.157  17.030  0.00  0.00    +0.000 OA
ATOM      4  N   UNL     1       8.941  10.254  18.416  0.00  0.00    +0.000 N 
ATOM      5  C   UNL     1       8.709  11.545  17.759  0.00  0.00    +0.000 C 
ATOM      6  C   UNL     1       8.500  12.671  18.805  0.00  0.00    +0.000 C 
ATOM      7  N   UNL     1       9.546  12.738  19.860  0.00  0.00    +0.000 NA
ATOM      8  C   UNL     1       9.646  11.393  20.480  0.00  0.00    +0.000 C 
ATOM      9  C   UNL     1       9.959  10.276  19.472  0.00  0.00    +0.000 C 
BRANCH   7  10
ATOM     10  C   UNL     1      10.825  13.214  19.289  0.00  0.00    +0.000 C 
BRANCH  10  11
ATOM     11  C   UNL     1      10.758  14.580  18.658  0.00  0.00    +0.000 A 
ATOM     12  C   UNL     1      10.330  15.701  19.379  0.00  0.00    +0.000 A 
ATOM     13  C   UNL     1      10.230  16.936  18.745  0.00  0.00    +0.000 A 
ATOM     14  C   UNL     1      10.588  17.015  17.410  0.00  0.00    +0.000 A 
ATOM     15  N   UNL     1      11.040  15.967  16.690  0.00  0.00    +0.000 NA
ATOM     16  C   UNL     1      11.112  14.775  17.327  0.00  0.00    +0.000 A 
ENDBRANCH  10  11
ENDBRANCH   7  10
ENDBRANCH   1   2
BRANCH   1  19
ATOM     17  O   UNL     1       7.351   5.476  20.054  0.00  0.00    +0.000 OA
ATOM     18  C   UNL     1       7.186   5.650  18.849  0.00  0.00    +0.000 C 
ATOM     19  N   UNL     1       7.644   6.755  18.176  0.00  0.00    +0.000 N 
ATOM     20  H   UNL     1       7.559   6.807  17.168  0.00  0.00    +0.000 HD
BRANCH  18  21
ATOM     21  C   UNL     1       6.463   4.638  17.969  0.00  0.00    +0.000 C 
BRANCH  21  22
ATOM     22  C   UNL     1       4.965   4.443  18.291  0.00  0.00    +0.000 C 
ATOM     23  C   UNL     1       4.181   3.947  17.049  0.00  0.00    +0.000 C 
ATOM     24  C   UNL     1       2.700   3.714  17.393  0.00  0.00    +0.000 C 
ATOM     25  C   UNL     1       2.596   2.655  18.501  0.00  0.00    +0.000 C 
ATOM     26  C   UNL     1       3.337   3.136  19.759  0.00  0.00    +0.000 C 
ATOM     27  C   UNL     1       2.713   4.455  20.244  0.00  0.00    +0.000 C 
ATOM     28  C   UNL     1       2.827   5.522  19.144  0.00  0.00    +0.000 C 
ATOM     29  C   UNL     1       2.085   5.033  17.889  0.00  0.00    +0.000 C 
ATOM     30  C   UNL     1       4.309   5.750  18.798  0.00  0.00    +0.000 C 
ATOM     31  C   UNL     1       4.818   3.374  19.413  0.00  0.00    +0.000 C 
ENDBRANCH  21  22
ENDBRANCH  18  21
ENDBRANCH   1  19
TORSDOF 6
ENDMDL
MODEL 8
REMARK VINA RESULT:      -7.9      1.478      1.634
REMARK  Name = 
REMARK  6 active torsions:
REMARK  status: ('A' for Active; 'I' for Inactive)
REMARK    1  A    between atoms: C_2  and  C_3
REMARK    2  A    between atoms: C_3  and  C_4
REMARK    3  A    between atoms: N_14  and  C_15
REMARK    4  A    between atoms: C_15  and  C_16
REMARK    5  A    between atoms: N_21  and  C_22
REMARK    6  A    between atoms: C_22  and  C_23
REMARK                            x       y       z     vdW  Elec       q    Type
REMARK                         _______ _______ _______ _____ _____    ______ ____
ROOT
ATOM      1  C   UNL     1       1.525   9.761  17.763  0.00  0.00    +0.000 C 
ENDROOT
BRANCH   1   2
ATOM      2  C   UNL     1       1.604  11.153  18.414  0.00  0.00    +0.000 C 
ATOM      3  O   UNL     1       2.569  11.879  18.166  0.00  0.00    +0.000 OA
ATOM      4  N   UNL     1       0.621  11.526  19.314  0.00  0.00    +0.000 N 
ATOM      5  C   UNL     1       0.601  12.893  19.848  0.00  0.00    +0.000 C 
ATOM      6  C   UNL     1      -0.812  13.519  19.717  0.00  0.00    +0.000 C 
ATOM      7  N   UNL     1      -1.916  12.676  20.248  0.00  0.00    +0.000 NA
ATOM      8  C   UNL     1      -1.817  11.346  19.595  0.00  0.00    +0.000 C 
ATOM      9  C   UNL     1      -0.458  10.661  19.803  0.00  0.00    +0.000 C 
BRANCH   7  10
ATOM     10  C   UNL     1      -1.850  12.607  21.723  0.00  0.00    +0.000 C 
BRANCH  10  11
ATOM     11  C   UNL     1      -3.179  12.756  22.416  0.00  0.00    +0.000 A 
ATOM     12  C   UNL     1      -3.329  12.479  23.780  0.00  0.00    +0.000 A 
ATOM     13  C   UNL     1      -4.585  12.576  24.373  0.00  0.00    +0.000 A 
ATOM     14  C   UNL     1      -5.650  12.973  23.583  0.00  0.00    +0.000 A 
ATOM     15  N   UNL     1      -5.541  13.284  22.274  0.00  0.00    +0.000 NA
ATOM     16  C   UNL     1      -4.311  13.166  21.721  0.00  0.00    +0.000 A 
ENDBRANCH  10  11
ENDBRANCH   7  10
ENDBRANCH   1   2
BRANCH   1  19
ATOM     17  O   UNL     1       3.329   7.554  17.805  0.00  0.00    +0.000 OA
ATOM     18  C   UNL     1       2.514   7.689  18.714  0.00  0.00    +0.000 C 
ATOM     19  N   UNL     1       1.612   8.721  18.773  0.00  0.00    +0.000 N 
ATOM     20  H   UNL     1       0.904   8.735  19.497  0.00  0.00    +0.000 HD
BRANCH  18  21
ATOM     21  C   UNL     1       2.415   6.704  19.873  0.00  0.00    +0.000 C 
BRANCH  21  22
ATOM     22  C   UNL     1       2.414   5.214  19.467  0.00  0.00    +0.000 C 
ATOM     23  C   UNL     1       1.849   5.019  18.037  0.00  0.00    +0.000 C 
ATOM     24  C   UNL     1       1.895   3.537  17.627  0.00  0.00    +0.000 C 
ATOM     25  C   UNL     1       3.350   3.045  17.658  0.00  0.00    +0.000 C 
ATOM     26  C   UNL     1       3.925   3.195  19.075  0.00  0.00    +0.000 C 
ATOM     27  C   UNL     1       3.079   2.369  20.058  0.00  0.00    +0.000 C 
ATOM     28  C   UNL     1       1.625   2.866  20.041  0.00  0.00    +0.000 C 
ATOM     29  C   UNL     1       1.057   2.715  18.620  0.00  0.00    +0.000 C 
ATOM     30  C   UNL     1       1.583   4.350  20.447  0.00  0.00    +0.000 C 
ATOM     31  C   UNL     1       3.875   4.677  19.487  0.00  0.00    +0.000 C 
ENDBRANCH  21  22
ENDBRANCH  18  21
ENDBRANCH   1  19
TORSDOF 6
ENDMDL
MODEL 9
REMARK VINA RESULT:      -7.9      6.910     10.809
REMARK  Name = 
REMARK  6 active torsions:
REMARK  status: ('A' for Active; 'I' for Inactive)
REMARK    1  A    between atoms: C_2  and  C_3
REMARK    2  A    between atoms: C_3  and  C_4
REMARK    3  A    between atoms: N_14  and  C_15
REMARK    4  A    between atoms: C_15  and  C_16
REMARK    5  A    between atoms: N_21  and  C_22
REMARK    6  A    between atoms: C_22  and  C_23
REMARK                            x       y       z     vdW  Elec       q    Type
REMARK                         _______ _______ _______ _____ _____    ______ ____
ROOT
ATOM      1  C   UNL     1       7.807   6.884  17.609  0.00  0.00    +0.000 C 
ENDROOT
BRANCH   1   2
ATOM      2  C   UNL     1       7.055   6.189  16.460  0.00  0.00    +0.000 C 
ATOM      3  O   UNL     1       7.425   6.375  15.300  0.00  0.00    +0.000 OA
ATOM      4  N   UNL     1       5.938   5.426  16.758  0.00  0.00    +0.000 N 
ATOM      5  C   UNL     1       5.282   4.649  15.700  0.00  0.00    +0.000 C 
ATOM      6  C   UNL     1       5.056   3.182  16.148  0.00  0.00    +0.000 C 
ATOM      7  N   UNL     1       4.393   3.032  17.470  0.00  0.00    +0.000 NA
ATOM      8  C   UNL     1       5.178   3.817  18.457  0.00  0.00    +0.000 C 
ATOM      9  C   UNL     1       5.323   5.300  18.083  0.00  0.00    +0.000 C 
BRANCH   7  10
ATOM     10  C   UNL     1       2.977   3.449  17.388  0.00  0.00    +0.000 C 
BRANCH  10  11
ATOM     11  C   UNL     1       2.251   3.461  18.708  0.00  0.00    +0.000 A 
ATOM     12  C   UNL     1       1.729   4.643  19.247  0.00  0.00    +0.000 A 
ATOM     13  C   UNL     1       1.112   4.623  20.494  0.00  0.00    +0.000 A 
ATOM     14  C   UNL     1       1.014   3.410  21.155  0.00  0.00    +0.000 A 
ATOM     15  N   UNL     1       1.471   2.243  20.653  0.00  0.00    +0.000 NA
ATOM     16  C   UNL     1       2.080   2.295  19.446  0.00  0.00    +0.000 A 
ENDBRANCH  10  11
ENDBRANCH   7  10
ENDBRANCH   1   2
BRANCH   1  19
ATOM     17  O   UNL     1       9.074   8.835  19.256  0.00  0.00    +0.000 OA
ATOM     18  C   UNL     1       8.409   9.197  18.288  0.00  0.00    +0.000 C 
ATOM     19  N   UNL     1       7.767   8.327  17.444  0.00  0.00    +0.000 N 
ATOM     20  H   UNL     1       7.161   8.681  16.715  0.00  0.00    +0.000 HD
BRANCH  18  21
ATOM     21  C   UNL     1       8.217  10.668  17.935  0.00  0.00    +0.000 C 
BRANCH  21  22
ATOM     22  C   UNL     1       9.372  11.600  18.362  0.00  0.00    +0.000 C 
ATOM     23  C   UNL     1       9.067  13.076  18.001  0.00  0.00    +0.000 C 
ATOM     24  C   UNL     1      10.204  14.001  18.472  0.00  0.00    +0.000 C 
ATOM     25  C   UNL     1      10.357  13.883  19.995  0.00  0.00    +0.000 C 
ATOM     26  C   UNL     1      10.694  12.434  20.379  0.00  0.00    +0.000 C 
ATOM     27  C   UNL     1      12.006  12.017  19.693  0.00  0.00    +0.000 C 
ATOM     28  C   UNL     1      11.853  12.119  18.167  0.00  0.00    +0.000 C 
ATOM     29  C   UNL     1      11.515  13.572  17.792  0.00  0.00    +0.000 C 
ATOM     30  C   UNL     1      10.713  11.197  17.701  0.00  0.00    +0.000 C 
ATOM     31  C   UNL     1       9.559  11.509  19.904  0.00  0.00    +0.000 C 
ENDBRANCH  21  22
ENDBRANCH  18  21
ENDBRANCH   1  19
TORSDOF 6
ENDMDL
