MODEL 1
REMARK VINA RESULT:      -7.6      0.000      0.000
REMARK  Name = 
REMARK  5 active torsions:
REMARK  status: ('A' for Active; 'I' for Inactive)
REMARK    1  A    between atoms: C_1  and  O_2
REMARK    2  A    between atoms: O_2  and  C_3
REMARK    3  A    between atoms: CA_5  and  C_6
REMARK    4  A    between atoms: C_6  and  OXT_8
REMARK    5  A    between atoms: C_13  and  N_14
REMARK                            x       y       z     vdW  Elec       q    Type
REMARK                         _______ _______ _______ _____ _____    ______ ____
ROOT
ATOM      1  C   UNL     1       6.113   4.625  18.490  0.00  0.00    +0.000 A 
ATOM      2  C   UNL     1       6.783   4.750  17.279  0.00  0.00    +0.000 A 
ATOM      3  CA  UNL     1       6.136   4.304  16.145  0.00  0.00    +0.000 A 
ATOM      4  N   UNL     1       4.904   3.723  16.132  0.00  0.00    +0.000 NA
ATOM      5  C   UNL     1       4.287   3.564  17.313  0.00  0.00    +0.000 A 
ATOM      6  C   UNL     1       3.039   2.954  17.327  0.00  0.00    +0.000 A 
ATOM      7  C   UNL     1       2.327   2.742  18.513  0.00  0.00    +0.000 A 
ATOM      8  C   UNL     1       2.877   3.158  19.724  0.00  0.00    +0.000 A 
ATOM      9  C   UNL     1       4.130   3.789  19.743  0.00  0.00    +0.000 A 
ATOM     10  C   UNL     1       4.850   3.995  18.540  0.00  0.00    +0.000 A 
ENDROOT
BRANCH   8  11
ATOM     11  N   UNL     1       2.146   2.934  20.977  0.00  0.00    +0.000 N 
ATOM     12  O   UNL     1       0.921   3.123  20.965  0.00  0.00    +0.000 OA
ATOM     13  O   UNL     1       2.793   2.568  21.966  0.00  0.00    +0.000 OA
ENDBRANCH   8  11
BRANCH   1  15
ATOM     14  C   UNL     1       7.884   5.773  19.562  0.00  0.00    +0.000 C 
ATOM     15  O   UNL     1       6.643   5.077  19.675  0.00  0.00    +0.000 OA
ENDBRANCH   1  15
BRANCH   3  16
ATOM     16  C   UNL     1       6.784   4.481  14.812  0.00  0.00    +0.000 C 
ATOM     17  O   UNL     1       7.569   5.369  14.536  0.00  0.00    +0.000 OA
BRANCH  16  18
ATOM     18  OXT UNL     1       6.368   3.523  13.951  0.00  0.00    +0.000 OA
ATOM     19  HXT UNL     1       5.742   2.922  14.420  0.00  0.00    +0.000 HD
ENDBRANCH  16  18
ENDBRANCH   3  16
TORSDOF 4
ENDMDL
MODEL 2
REMARK VINA RESULT:      -7.5      0.164      1.058
REMARK  Name = 
REMARK  5 active torsions:
REMARK  status: ('A' for Active; 'I' for Inactive)
REMARK    1  A    between atoms: C_1  and  O_2
REMARK    2  A    between atoms: O_2  and  C_3
REMARK    3  A    between atoms: CA_5  and  C_6
REMARK    4  A    between atoms: C_6  and  OXT_8
REMARK    5  A    between atoms: C_13  and  N_14
REMARK                            x       y       z     vdW  Elec       q    Type
REMARK                         _______ _______ _______ _____ _____    ______ ____
ROOT
ATOM      1  C   UNL     1       6.084   4.570  18.469  0.00  0.00    +0.000 A 
ATOM      2  C   UNL     1       6.731   4.727  17.250  0.00  0.00    +0.000 A 
ATOM      3  CA  UNL     1       6.051   4.344  16.113  0.00  0.00    +0.000 A 
ATOM      4  N   UNL     1       4.804   3.795  16.103  0.00  0.00    +0.000 NA
ATOM      5  C   UNL     1       4.208   3.603  17.290  0.00  0.00    +0.000 A 
ATOM      6  C   UNL     1       2.945   3.023  17.306  0.00  0.00    +0.000 A 
ATOM      7  C   UNL     1       2.253   2.780  18.498  0.00  0.00    +0.000 A 
ATOM      8  C   UNL     1       2.838   3.134  19.713  0.00  0.00    +0.000 A 
ATOM      9  C   UNL     1       4.107   3.732  19.730  0.00  0.00    +0.000 A 
ATOM     10  C   UNL     1       4.806   3.969  18.521  0.00  0.00    +0.000 A 
ENDROOT
BRANCH   8  11
ATOM     11  N   UNL     1       2.127   2.877  20.970  0.00  0.00    +0.000 N 
ATOM     12  O   UNL     1       2.807   2.566  21.959  0.00  0.00    +0.000 OA
ATOM     13  O   UNL     1       0.894   2.987  20.970  0.00  0.00    +0.000 OA
ENDBRANCH   8  11
BRANCH   1  15
ATOM     14  C   UNL     1       7.853   5.719  19.544  0.00  0.00    +0.000 C 
ATOM     15  O   UNL     1       6.649   4.960  19.660  0.00  0.00    +0.000 OA
ENDBRANCH   1  15
BRANCH   3  16
ATOM     16  C   UNL     1       6.675   4.560  14.775  0.00  0.00    +0.000 C 
ATOM     17  O   UNL     1       6.365   3.962  13.761  0.00  0.00    +0.000 OA
BRANCH  16  18
ATOM     18  OXT UNL     1       7.639   5.507  14.848  0.00  0.00    +0.000 OA
ATOM     19  HXT UNL     1       7.736   5.933  13.964  0.00  0.00    +0.000 HD
ENDBRANCH  16  18
ENDBRANCH   3  16
TORSDOF 4
ENDMDL
MODEL 3
REMARK VINA RESULT:      -6.7      2.530      6.189
REMARK  Name = 
REMARK  5 active torsions:
REMARK  status: ('A' for Active; 'I' for Inactive)
REMARK    1  A    between atoms: C_1  and  O_2
REMARK    2  A    between atoms: O_2  and  C_3
REMARK    3  A    between atoms: CA_5  and  C_6
REMARK    4  A    between atoms: C_6  and  OXT_8
REMARK    5  A    between atoms: C_13  and  N_14
REMARK                            x       y       z     vdW  Elec       q    Type
REMARK                         _______ _______ _______ _____ _____    ______ ____
ROOT
ATOM      1  C   UNL     1       2.809   6.238  19.319  0.00  0.00    +0.000 A 
ATOM      2  C   UNL     1       1.947   5.428  20.047  0.00  0.00    +0.000 A 
ATOM      3  CA  UNL     1       2.367   4.147  20.336  0.00  0.00    +0.000 A 
ATOM      4  N   UNL     1       3.553   3.609  19.932  0.00  0.00    +0.000 NA
ATOM      5  C   UNL     1       4.357   4.385  19.189  0.00  0.00    +0.000 A 
ATOM      6  C   UNL     1       5.561   3.851  18.746  0.00  0.00    +0.000 A 
ATOM      7  C   UNL     1       6.457   4.585  17.962  0.00  0.00    +0.000 A 
ATOM      8  C   UNL     1       6.143   5.898  17.612  0.00  0.00    +0.000 A 
ATOM      9  C   UNL     1       4.941   6.470  18.053  0.00  0.00    +0.000 A 
ATOM     10  C   UNL     1       4.034   5.720  18.842  0.00  0.00    +0.000 A 
ENDROOT
BRANCH   8  11
ATOM     11  N   UNL     1       7.070   6.676  16.782  0.00  0.00    +0.000 N 
ATOM     12  O   UNL     1       7.540   6.123  15.777  0.00  0.00    +0.000 OA
ATOM     13  O   UNL     1       7.325   7.836  17.131  0.00  0.00    +0.000 OA
ENDBRANCH   8  11
BRANCH   1  15
ATOM     14  C   UNL     1       1.687   8.220  19.963  0.00  0.00    +0.000 C 
ATOM     15  O   UNL     1       2.513   7.545  19.014  0.00  0.00    +0.000 OA
ENDBRANCH   1  15
BRANCH   3  16
ATOM     16  C   UNL     1       1.508   3.263  21.176  0.00  0.00    +0.000 C 
ATOM     17  O   UNL     1       1.799   2.869  22.291  0.00  0.00    +0.000 OA
BRANCH  16  18
ATOM     18  OXT UNL     1       0.364   2.952  20.523  0.00  0.00    +0.000 OA
ATOM     19  HXT UNL     1       0.591   2.602  19.629  0.00  0.00    +0.000 HD
ENDBRANCH  16  18
ENDBRANCH   3  16
TORSDOF 4
ENDMDL
MODEL 4
REMARK VINA RESULT:      -6.7      3.225      6.126
REMARK  Name = 
REMARK  5 active torsions:
REMARK  status: ('A' for Active; 'I' for Inactive)
REMARK    1  A    between atoms: C_1  and  O_2
REMARK    2  A    between atoms: O_2  and  C_3
REMARK    3  A    between atoms: CA_5  and  C_6
REMARK    4  A    between atoms: C_6  and  OXT_8
REMARK    5  A    between atoms: C_13  and  N_14
REMARK                            x       y       z     vdW  Elec       q    Type
REMARK                         _______ _______ _______ _____ _____    ______ ____
ROOT
ATOM      1  C   UNL     1       5.267   4.467  16.492  0.00  0.00    +0.000 A 
ATOM      2  C   UNL     1       5.911   5.199  17.482  0.00  0.00    +0.000 A 
ATOM      3  CA  UNL     1       7.045   5.897  17.123  0.00  0.00    +0.000 A 
ATOM      4  N   UNL     1       7.595   5.895  15.876  0.00  0.00    +0.000 NA
ATOM      5  C   UNL     1       6.992   5.146  14.940  0.00  0.00    +0.000 A 
ATOM      6  C   UNL     1       7.549   5.110  13.667  0.00  0.00    +0.000 A 
ATOM      7  C   UNL     1       6.991   4.351  12.632  0.00  0.00    +0.000 A 
ATOM      8  C   UNL     1       5.836   3.608  12.875  0.00  0.00    +0.000 A 
ATOM      9  C   UNL     1       5.243   3.633  14.146  0.00  0.00    +0.000 A 
ATOM     10  C   UNL     1       5.816   4.398  15.192  0.00  0.00    +0.000 A 
ENDROOT
BRANCH   8  11
ATOM     11  N   UNL     1       5.246   2.801  11.801  0.00  0.00    +0.000 N 
ATOM     12  O   UNL     1       5.848   1.772  11.461  0.00  0.00    +0.000 OA
ATOM     13  O   UNL     1       4.183   3.192  11.301  0.00  0.00    +0.000 OA
ENDBRANCH   8  11
BRANCH   1  15
ATOM     14  C   UNL     1       3.902   3.364  18.080  0.00  0.00    +0.000 C 
ATOM     15  O   UNL     1       4.105   3.771  16.727  0.00  0.00    +0.000 OA
ENDBRANCH   1  15
BRANCH   3  16
ATOM     16  C   UNL     1       7.730   6.756  18.132  0.00  0.00    +0.000 C 
ATOM     17  O   UNL     1       8.008   7.930  17.970  0.00  0.00    +0.000 OA
BRANCH  16  18
ATOM     18  OXT UNL     1       8.008   6.045  19.250  0.00  0.00    +0.000 OA
ATOM     19  HXT UNL     1       8.360   5.162  18.988  0.00  0.00    +0.000 HD
ENDBRANCH  16  18
ENDBRANCH   3  16
TORSDOF 4
ENDMDL
MODEL 5
REMARK VINA RESULT:      -6.7      2.448      2.921
REMARK  Name = 
REMARK  5 active torsions:
REMARK  status: ('A' for Active; 'I' for Inactive)
REMARK    1  A    between atoms: C_1  and  O_2
REMARK    2  A    between atoms: O_2  and  C_3
REMARK    3  A    between atoms: CA_5  and  C_6
REMARK    4  A    between atoms: C_6  and  OXT_8
REMARK    5  A    between atoms: C_13  and  N_14
REMARK                            x       y       z     vdW  Elec       q    Type
REMARK                         _______ _______ _______ _____ _____    ______ ____
ROOT
ATOM      1  C   UNL     1       3.526   6.459  18.047  0.00  0.00    +0.000 A 
ATOM      2  C   UNL     1       4.678   6.951  17.448  0.00  0.00    +0.000 A 
ATOM      3  CA  UNL     1       5.811   6.165  17.506  0.00  0.00    +0.000 A 
ATOM      4  N   UNL     1       5.887   4.958  18.133  0.00  0.00    +0.000 NA
ATOM      5  C   UNL     1       4.781   4.516  18.750  0.00  0.00    +0.000 A 
ATOM      6  C   UNL     1       4.841   3.298  19.417  0.00  0.00    +0.000 A 
ATOM      7  C   UNL     1       3.738   2.763  20.091  0.00  0.00    +0.000 A 
ATOM      8  C   UNL     1       2.534   3.465  20.096  0.00  0.00    +0.000 A 
ATOM      9  C   UNL     1       2.436   4.691  19.423  0.00  0.00    +0.000 A 
ATOM     10  C   UNL     1       3.558   5.232  18.746  0.00  0.00    +0.000 A 
ENDROOT
BRANCH   8  11
ATOM     11  N   UNL     1       1.372   2.920  20.808  0.00  0.00    +0.000 N 
ATOM     12  O   UNL     1       0.306   2.832  20.181  0.00  0.00    +0.000 OA
ATOM     13  O   UNL     1       1.524   2.578  21.988  0.00  0.00    +0.000 OA
ENDBRANCH   8  11
BRANCH   1  15
ATOM     14  C   UNL     1       2.433   8.545  17.804  0.00  0.00    +0.000 C 
ATOM     15  O   UNL     1       2.330   7.136  18.012  0.00  0.00    +0.000 OA
ENDBRANCH   1  15
BRANCH   3  16
ATOM     16  C   UNL     1       7.054   6.617  16.815  0.00  0.00    +0.000 C 
ATOM     17  O   UNL     1       7.654   7.646  17.068  0.00  0.00    +0.000 OA
BRANCH  16  18
ATOM     18  OXT UNL     1       7.417   5.727  15.861  0.00  0.00    +0.000 OA
ATOM     19  HXT UNL     1       7.170   6.088  14.977  0.00  0.00    +0.000 HD
ENDBRANCH  16  18
ENDBRANCH   3  16
TORSDOF 4
ENDMDL
MODEL 6
REMARK VINA RESULT:      -6.7      2.407      3.031
REMARK  Name = 
REMARK  5 active torsions:
REMARK  status: ('A' for Active; 'I' for Inactive)
REMARK    1  A    between atoms: C_1  and  O_2
REMARK    2  A    between atoms: O_2  and  C_3
REMARK    3  A    between atoms: CA_5  and  C_6
REMARK    4  A    between atoms: C_6  and  OXT_8
REMARK    5  A    between atoms: C_13  and  N_14
REMARK                            x       y       z     vdW  Elec       q    Type
REMARK                         _______ _______ _______ _____ _____    ______ ____
ROOT
ATOM      1  C   UNL     1       3.530   6.391  17.995  0.00  0.00    +0.000 A 
ATOM      2  C   UNL     1       4.673   6.843  17.350  0.00  0.00    +0.000 A 
ATOM      3  CA  UNL     1       5.790   6.035  17.391  0.00  0.00    +0.000 A 
ATOM      4  N   UNL     1       5.861   4.842  18.045  0.00  0.00    +0.000 NA
ATOM      5  C   UNL     1       4.765   4.438  18.706  0.00  0.00    +0.000 A 
ATOM      6  C   UNL     1       4.821   3.235  19.399  0.00  0.00    +0.000 A 
ATOM      7  C   UNL     1       3.728   2.740  20.120  0.00  0.00    +0.000 A 
ATOM      8  C   UNL     1       2.540   3.467  20.144  0.00  0.00    +0.000 A 
ATOM      9  C   UNL     1       2.447   4.680  19.445  0.00  0.00    +0.000 A 
ATOM     10  C   UNL     1       3.558   5.180  18.722  0.00  0.00    +0.000 A 
ENDROOT
BRANCH   8  11
ATOM     11  N   UNL     1       1.389   2.964  20.904  0.00  0.00    +0.000 N 
ATOM     12  O   UNL     1       1.589   2.603  22.073  0.00  0.00    +0.000 OA
ATOM     13  O   UNL     1       0.290   2.933  20.335  0.00  0.00    +0.000 OA
ENDBRANCH   8  11
BRANCH   1  15
ATOM     14  C   UNL     1       2.480   8.506  17.831  0.00  0.00    +0.000 C 
ATOM     15  O   UNL     1       2.348   7.092  17.980  0.00  0.00    +0.000 OA
ENDBRANCH   1  15
BRANCH   3  16
ATOM     16  C   UNL     1       7.021   6.443  16.652  0.00  0.00    +0.000 C 
ATOM     17  O   UNL     1       7.538   5.799  15.758  0.00  0.00    +0.000 OA
BRANCH  16  18
ATOM     18  OXT UNL     1       7.486   7.625  17.121  0.00  0.00    +0.000 OA
ATOM     19  HXT UNL     1       6.831   8.332  16.913  0.00  0.00    +0.000 HD
ENDBRANCH  16  18
ENDBRANCH   3  16
TORSDOF 4
ENDMDL
MODEL 7
REMARK VINA RESULT:      -6.6      2.352      6.194
REMARK  Name = 
REMARK  5 active torsions:
REMARK  status: ('A' for Active; 'I' for Inactive)
REMARK    1  A    between atoms: C_1  and  O_2
REMARK    2  A    between atoms: O_2  and  C_3
REMARK    3  A    between atoms: CA_5  and  C_6
REMARK    4  A    between atoms: C_6  and  OXT_8
REMARK    5  A    between atoms: C_13  and  N_14
REMARK                            x       y       z     vdW  Elec       q    Type
REMARK                         _______ _______ _______ _____ _____    ______ ____
ROOT
ATOM      1  C   UNL     1       3.515   3.427  17.918  0.00  0.00    +0.000 A 
ATOM      2  C   UNL     1       2.712   3.806  18.986  0.00  0.00    +0.000 A 
ATOM      3  CA  UNL     1       2.578   5.156  19.236  0.00  0.00    +0.000 A 
ATOM      4  N   UNL     1       3.200   6.141  18.530  0.00  0.00    +0.000 NA
ATOM      5  C   UNL     1       4.011   5.762  17.531  0.00  0.00    +0.000 A 
ATOM      6  C   UNL     1       4.675   6.748  16.811  0.00  0.00    +0.000 A 
ATOM      7  C   UNL     1       5.544   6.443  15.758  0.00  0.00    +0.000 A 
ATOM      8  C   UNL     1       5.754   5.110  15.408  0.00  0.00    +0.000 A 
ATOM      9  C   UNL     1       5.090   4.091  16.107  0.00  0.00    +0.000 A 
ATOM     10  C   UNL     1       4.215   4.405  17.177  0.00  0.00    +0.000 A 
ENDROOT
BRANCH   8  11
ATOM     11  N   UNL     1       6.670   4.776  14.311  0.00  0.00    +0.000 N 
ATOM     12  O   UNL     1       7.695   5.464  14.193  0.00  0.00    +0.000 OA
ATOM     13  O   UNL     1       6.368   3.829  13.574  0.00  0.00    +0.000 OA
ENDBRANCH   8  11
BRANCH   1  15
ATOM     14  C   UNL     1       3.741   1.182  18.632  0.00  0.00    +0.000 C 
ATOM     15  O   UNL     1       3.684   2.113  17.551  0.00  0.00    +0.000 OA
ENDBRANCH   1  15
BRANCH   3  16
ATOM     16  C   UNL     1       1.668   5.615  20.327  0.00  0.00    +0.000 C 
ATOM     17  O   UNL     1       1.633   6.749  20.768  0.00  0.00    +0.000 OA
BRANCH  16  18
ATOM     18  OXT UNL     1       0.895   4.593  20.762  0.00  0.00    +0.000 OA
ATOM     19  HXT UNL     1       1.465   3.939  21.231  0.00  0.00    +0.000 HD
ENDBRANCH  16  18
ENDBRANCH   3  16
TORSDOF 4
ENDMDL
MODEL 8
REMARK VINA RESULT:      -6.6      2.322      5.908
REMARK  Name = 
REMARK  5 active torsions:
REMARK  status: ('A' for Active; 'I' for Inactive)
REMARK    1  A    between atoms: C_1  and  O_2
REMARK    2  A    between atoms: O_2  and  C_3
REMARK    3  A    between atoms: CA_5  and  C_6
REMARK    4  A    between atoms: C_6  and  OXT_8
REMARK    5  A    between atoms: C_13  and  N_14
REMARK                            x       y       z     vdW  Elec       q    Type
REMARK                         _______ _______ _______ _____ _____    ______ ____
ROOT
ATOM      1  C   UNL     1       3.001   5.744  18.553  0.00  0.00    +0.000 A 
ATOM      2  C   UNL     1       1.904   5.006  18.975  0.00  0.00    +0.000 A 
ATOM      3  CA  UNL     1       1.852   3.676  18.611  0.00  0.00    +0.000 A 
ATOM      4  N   UNL     1       2.784   3.045  17.843  0.00  0.00    +0.000 NA
ATOM      5  C   UNL     1       3.815   3.780  17.401  0.00  0.00    +0.000 A 
ATOM      6  C   UNL     1       4.767   3.164  16.596  0.00  0.00    +0.000 A 
ATOM      7  C   UNL     1       5.870   3.855  16.086  0.00  0.00    +0.000 A 
ATOM      8  C   UNL     1       6.033   5.206  16.393  0.00  0.00    +0.000 A 
ATOM      9  C   UNL     1       5.097   5.854  17.212  0.00  0.00    +0.000 A 
ATOM     10  C   UNL     1       3.978   5.151  17.721  0.00  0.00    +0.000 A 
ENDROOT
BRANCH   8  11
ATOM     11  N   UNL     1       7.182   5.945  15.856  0.00  0.00    +0.000 N 
ATOM     12  O   UNL     1       7.617   6.892  16.527  0.00  0.00    +0.000 OA
ATOM     13  O   UNL     1       7.649   5.579  14.769  0.00  0.00    +0.000 OA
ENDBRANCH   8  11
BRANCH   1  15
ATOM     14  C   UNL     1       2.276   7.980  18.273  0.00  0.00    +0.000 C 
ATOM     15  O   UNL     1       3.178   7.064  18.894  0.00  0.00    +0.000 OA
ENDBRANCH   1  15
BRANCH   3  16
ATOM     16  C   UNL     1       0.730   2.823  19.101  0.00  0.00    +0.000 C 
ATOM     17  O   UNL     1       0.175   1.963  18.443  0.00  0.00    +0.000 OA
BRANCH  16  18
ATOM     18  OXT UNL     1       0.411   3.145  20.377  0.00  0.00    +0.000 OA
ATOM     19  HXT UNL     1      -0.192   3.926  20.367  0.00  0.00    +0.000 HD
ENDBRANCH  16  18
ENDBRANCH   3  16
TORSDOF 4
ENDMDL
MODEL 9
REMARK VINA RESULT:      -6.6      3.002      6.071
REMARK  Name = 
REMARK  5 active torsions:
REMARK  status: ('A' for Active; 'I' for Inactive)
REMARK    1  A    between atoms: C_1  and  O_2
REMARK    2  A    between atoms: O_2  and  C_3
REMARK    3  A    between atoms: CA_5  and  C_6
REMARK    4  A    between atoms: C_6  and  OXT_8
REMARK    5  A    between atoms: C_13  and  N_14
REMARK                            x       y       z     vdW  Elec       q    Type
REMARK                         _______ _______ _______ _____ _____    ______ ____
ROOT
ATOM      1  C   UNL     1       5.046   4.070  16.860  0.00  0.00    +0.000 A 
ATOM      2  C   UNL     1       5.670   4.594  17.985  0.00  0.00    +0.000 A 
ATOM      3  CA  UNL     1       6.874   5.241  17.801  0.00  0.00    +0.000 A 
ATOM      4  N   UNL     1       7.509   5.376  16.603  0.00  0.00    +0.000 NA
ATOM      5  C   UNL     1       6.920   4.823  15.531  0.00  0.00    +0.000 A 
ATOM      6  C   UNL     1       7.560   4.927  14.302  0.00  0.00    +0.000 A 
ATOM      7  C   UNL     1       7.022   4.376  13.134  0.00  0.00    +0.000 A 
ATOM      8  C   UNL     1       5.803   3.703  13.194  0.00  0.00    +0.000 A 
ATOM      9  C   UNL     1       5.126   3.591  14.418  0.00  0.00    +0.000 A 
ATOM     10  C   UNL     1       5.678   4.145  15.599  0.00  0.00    +0.000 A 
ENDROOT
BRANCH   8  11
ATOM     11  N   UNL     1       5.232   3.112  11.978  0.00  0.00    +0.000 N 
ATOM     12  O   UNL     1       5.767   2.085  11.536  0.00  0.00    +0.000 OA
ATOM     13  O   UNL     1       4.251   3.671  11.469  0.00  0.00    +0.000 OA
ENDBRANCH   8  11
BRANCH   1  15
ATOM     14  C   UNL     1       3.676   2.491  17.971  0.00  0.00    +0.000 C 
ATOM     15  O   UNL     1       3.823   3.445  16.919  0.00  0.00    +0.000 OA
ENDBRANCH   1  15
BRANCH   3  16
ATOM     16  C   UNL     1       7.548   5.885  18.967  0.00  0.00    +0.000 C 
ATOM     17  O   UNL     1       7.544   5.442  20.102  0.00  0.00    +0.000 OA
BRANCH  16  18
ATOM     18  OXT UNL     1       8.156   7.034  18.590  0.00  0.00    +0.000 OA
ATOM     19  HXT UNL     1       9.076   7.040  18.945  0.00  0.00    +0.000 HD
ENDBRANCH  16  18
ENDBRANCH   3  16
TORSDOF 4
ENDMDL
