MODEL 1
REMARK VINA RESULT:      -9.0      0.000      0.000
REMARK  Name = 
REMARK  7 active torsions:
REMARK  status: ('A' for Active; 'I' for Inactive)
REMARK    1  A    between atoms: C_1  and  C_2
REMARK    2  A    between atoms: C_4  and  N_5
REMARK    3  A    between atoms: N_5  and  C_6
REMARK    4  A    between atoms: C_6  and  C_8
REMARK    5  A    between atoms: C_8  and  N_9
REMARK    6  A    between atoms: C_12  and  C_13
REMARK    7  A    between atoms: N_20  and  C_21
REMARK                            x       y       z     vdW  Elec       q    Type
REMARK                         _______ _______ _______ _____ _____    ______ ____
ROOT
ATOM      1  N   UNL     1       5.435   4.206  17.717  0.00  0.00    +0.000 N 
ATOM      2  H   UNL     1       5.395   3.218  17.990  0.00  0.00    +0.000 HD
ENDROOT
BRANCH   1   6
ATOM      3  C   UNL     1       2.195   7.956  18.235  0.00  0.00    +0.000 C 
ATOM      4  C   UNL     1       3.002   6.728  18.430  0.00  0.00    +0.000 A 
ATOM      5  C   UNL     1       3.965   6.185  17.557  0.00  0.00    +0.000 A 
ATOM      6  C   UNL     1       4.404   5.031  18.165  0.00  0.00    +0.000 A 
ATOM      7  N   UNL     1       3.628   4.895  19.304  0.00  0.00    +0.000 N 
ATOM      8  N   UNL     1       2.851   5.976  19.526  0.00  0.00    +0.000 NA
BRANCH   7   9
ATOM      9  C   UNL     1       3.297   3.625  19.957  0.00  0.00    +0.000 C 
ATOM     10  C   UNL     1       2.089   3.664  20.914  0.00  0.00    +0.000 C 
ATOM     11  C   UNL     1       0.721   3.557  20.234  0.00  0.00    +0.000 C 
ATOM     12  C   UNL     1       0.652   2.422  19.217  0.00  0.00    +0.000 C 
ATOM     13  C   UNL     1       1.790   2.500  18.209  0.00  0.00    +0.000 C 
ATOM     14  C   UNL     1       3.152   2.508  18.906  0.00  0.00    +0.000 C 
ENDBRANCH   7   9
ENDBRANCH   1   6
BRANCH   1  15
ATOM     15  C   UNL     1       6.656   4.713  17.109  0.00  0.00    +0.000 C 
ATOM     16  S   UNL     1       7.059   4.461  15.486  0.00  0.00    +0.000 S 
BRANCH  15  17
ATOM     17  C   UNL     1       7.690   5.374  17.989  0.00  0.00    +0.000 C 
BRANCH  17  18
ATOM     18  N   UNL     1       7.685   6.815  17.938  0.00  0.00    +0.000 N 
ATOM     19  N   UNL     1       7.021   7.464  16.977  0.00  0.00    +0.000 NA
ATOM     20  N   UNL     1       7.355   8.735  17.135  0.00  0.00    +0.000 NA
ATOM     21  C   UNL     1       8.233   8.794  18.193  0.00  0.00    +0.000 A 
ATOM     22  N   UNL     1       8.459   7.580  18.741  0.00  0.00    +0.000 NA
BRANCH  21  23
ATOM     23  C   UNL     1       8.847  10.043  18.627  0.00  0.00    +0.000 A 
ATOM     24  C   UNL     1       8.860  11.156  17.772  0.00  0.00    +0.000 A 
ATOM     25  C   UNL     1       9.479  12.348  18.166  0.00  0.00    +0.000 A 
ATOM     26  C   UNL     1      10.086  12.435  19.416  0.00  0.00    +0.000 A 
ATOM     27  C   UNL     1      10.069  11.341  20.280  0.00  0.00    +0.000 A 
ATOM     28  C   UNL     1       9.451  10.151  19.888  0.00  0.00    +0.000 A 
ENDBRANCH  21  23
ENDBRANCH  17  18
ENDBRANCH  15  17
ENDBRANCH   1  15
TORSDOF 6
ENDMDL
MODEL 2
REMARK VINA RESULT:      -8.6      0.791      1.203
REMARK  Name = 
REMARK  7 active torsions:
REMARK  status: ('A' for Active; 'I' for Inactive)
REMARK    1  A    between atoms: C_1  and  C_2
REMARK    2  A    between atoms: C_4  and  N_5
REMARK    3  A    between atoms: N_5  and  C_6
REMARK    4  A    between atoms: C_6  and  C_8
REMARK    5  A    between atoms: C_8  and  N_9
REMARK    6  A    between atoms: C_12  and  C_13
REMARK    7  A    between atoms: N_20  and  C_21
REMARK                            x       y       z     vdW  Elec       q    Type
REMARK                         _______ _______ _______ _____ _____    ______ ____
ROOT
ATOM      1  N   UNL     1       5.814   4.756  19.156  0.00  0.00    +0.000 N 
ATOM      2  H   UNL     1       5.980   4.162  19.976  0.00  0.00    +0.000 HD
ENDROOT
BRANCH   1   6
ATOM      3  C   UNL     1       2.111   7.873  17.975  0.00  0.00    +0.000 C 
ATOM      4  C   UNL     1       2.946   6.814  18.591  0.00  0.00    +0.000 A 
ATOM      5  C   UNL     1       4.254   6.435  18.234  0.00  0.00    +0.000 A 
ATOM      6  C   UNL     1       4.576   5.391  19.071  0.00  0.00    +0.000 A 
ATOM      7  N   UNL     1       3.430   5.141  19.807  0.00  0.00    +0.000 N 
ATOM      8  N   UNL     1       2.473   6.069  19.597  0.00  0.00    +0.000 NA
BRANCH   7   9
ATOM      9  C   UNL     1       3.060   3.846  20.385  0.00  0.00    +0.000 C 
ATOM     10  C   UNL     1       1.593   3.715  20.841  0.00  0.00    +0.000 C 
ATOM     11  C   UNL     1       0.595   3.391  19.726  0.00  0.00    +0.000 C 
ATOM     12  C   UNL     1       1.057   2.243  18.832  0.00  0.00    +0.000 C 
ATOM     13  C   UNL     1       2.461   2.478  18.297  0.00  0.00    +0.000 C 
ATOM     14  C   UNL     1       3.462   2.704  19.432  0.00  0.00    +0.000 C 
ENDBRANCH   7   9
ENDBRANCH   1   6
BRANCH   1  15
ATOM     15  C   UNL     1       6.938   5.079  18.291  0.00  0.00    +0.000 C 
ATOM     16  S   UNL     1       7.121   4.454  16.730  0.00  0.00    +0.000 S 
BRANCH  15  17
ATOM     17  C   UNL     1       8.078   5.897  18.851  0.00  0.00    +0.000 C 
BRANCH  17  18
ATOM     18  N   UNL     1       8.062   7.287  18.464  0.00  0.00    +0.000 N 
ATOM     19  N   UNL     1       7.494   7.673  17.318  0.00  0.00    +0.000 NA
ATOM     20  N   UNL     1       7.794   8.957  17.208  0.00  0.00    +0.000 NA
ATOM     21  C   UNL     1       8.557   9.290  18.304  0.00  0.00    +0.000 A 
ATOM     22  N   UNL     1       8.739   8.243  19.140  0.00  0.00    +0.000 NA
BRANCH  21  23
ATOM     23  C   UNL     1       9.108  10.626  18.494  0.00  0.00    +0.000 A 
ATOM     24  C   UNL     1      10.171  10.828  19.387  0.00  0.00    +0.000 A 
ATOM     25  C   UNL     1      10.683  12.113  19.603  0.00  0.00    +0.000 A 
ATOM     26  C   UNL     1      10.137  13.201  18.928  0.00  0.00    +0.000 A 
ATOM     27  C   UNL     1       9.089  13.012  18.028  0.00  0.00    +0.000 A 
ATOM     28  C   UNL     1       8.577  11.730  17.811  0.00  0.00    +0.000 A 
ENDBRANCH  21  23
ENDBRANCH  17  18
ENDBRANCH  15  17
ENDBRANCH   1  15
TORSDOF 6
ENDMDL
MODEL 3
REMARK VINA RESULT:      -8.5      3.786      6.212
REMARK  Name = 
REMARK  7 active torsions:
REMARK  status: ('A' for Active; 'I' for Inactive)
REMARK    1  A    between atoms: C_1  and  C_2
REMARK    2  A    between atoms: C_4  and  N_5
REMARK    3  A    between atoms: N_5  and  C_6
REMARK    4  A    between atoms: C_6  and  C_8
REMARK    5  A    between atoms: C_8  and  N_9
REMARK    6  A    between atoms: C_12  and  C_13
REMARK    7  A    between atoms: N_20  and  C_21
REMARK                            x       y       z     vdW  Elec       q    Type
REMARK                         _______ _______ _______ _____ _____    ______ ____
ROOT
ATOM      1  N   UNL     1       5.166   5.243  17.443  0.00  0.00    +0.000 N 
ATOM      2  H   UNL     1       4.920   4.653  16.641  0.00  0.00    +0.000 HD
ENDROOT
BRANCH   1   6
ATOM      3  C   UNL     1       1.705   8.610  18.672  0.00  0.00    +0.000 C 
ATOM      4  C   UNL     1       2.626   7.449  18.655  0.00  0.00    +0.000 A 
ATOM      5  C   UNL     1       3.530   7.083  17.639  0.00  0.00    +0.000 A 
ATOM      6  C   UNL     1       4.125   5.922  18.075  0.00  0.00    +0.000 A 
ATOM      7  N   UNL     1       3.491   5.607  19.265  0.00  0.00    +0.000 N 
ATOM      8  N   UNL     1       2.657   6.585  19.676  0.00  0.00    +0.000 NA
BRANCH   7   9
ATOM      9  C   UNL     1       3.338   4.255  19.811  0.00  0.00    +0.000 C 
ATOM     10  C   UNL     1       2.253   4.094  20.895  0.00  0.00    +0.000 C 
ATOM     11  C   UNL     1       0.827   3.934  20.364  0.00  0.00    +0.000 C 
ATOM     12  C   UNL     1       0.722   2.902  19.245  0.00  0.00    +0.000 C 
ATOM     13  C   UNL     1       1.722   3.178  18.132  0.00  0.00    +0.000 C 
ATOM     14  C   UNL     1       3.154   3.237  18.669  0.00  0.00    +0.000 C 
ENDBRANCH   7   9
ENDBRANCH   1   6
BRANCH   1  15
ATOM     15  C   UNL     1       6.506   5.139  18.000  0.00  0.00    +0.000 C 
ATOM     16  S   UNL     1       6.946   5.797  19.494  0.00  0.00    +0.000 S 
BRANCH  15  17
ATOM     17  C   UNL     1       7.605   4.543  17.151  0.00  0.00    +0.000 C 
BRANCH  17  18
ATOM     18  N   UNL     1       7.327   4.535  15.735  0.00  0.00    +0.000 N 
ATOM     19  N   UNL     1       7.579   5.609  14.982  0.00  0.00    +0.000 NA
ATOM     20  N   UNL     1       7.069   5.316  13.796  0.00  0.00    +0.000 NA
ATOM     21  C   UNL     1       6.509   4.063  13.894  0.00  0.00    +0.000 A 
ATOM     22  N   UNL     1       6.667   3.525  15.124  0.00  0.00    +0.000 NA
BRANCH  21  23
ATOM     23  C   UNL     1       5.812   3.432  12.781  0.00  0.00    +0.000 A 
ATOM     24  C   UNL     1       6.378   2.321  12.136  0.00  0.00    +0.000 A 
ATOM     25  C   UNL     1       5.733   1.730  11.043  0.00  0.00    +0.000 A 
ATOM     26  C   UNL     1       4.520   2.243  10.590  0.00  0.00    +0.000 A 
ATOM     27  C   UNL     1       3.941   3.338  11.231  0.00  0.00    +0.000 A 
ATOM     28  C   UNL     1       4.583   3.929  12.322  0.00  0.00    +0.000 A 
ENDBRANCH  21  23
ENDBRANCH  17  18
ENDBRANCH  15  17
ENDBRANCH   1  15
TORSDOF 6
ENDMDL
MODEL 4
REMARK VINA RESULT:      -8.4      1.027      1.193
REMARK  Name = 
REMARK  7 active torsions:
REMARK  status: ('A' for Active; 'I' for Inactive)
REMARK    1  A    between atoms: C_1  and  C_2
REMARK    2  A    between atoms: C_4  and  N_5
REMARK    3  A    between atoms: N_5  and  C_6
REMARK    4  A    between atoms: C_6  and  C_8
REMARK    5  A    between atoms: C_8  and  N_9
REMARK    6  A    between atoms: C_12  and  C_13
REMARK    7  A    between atoms: N_20  and  C_21
REMARK                            x       y       z     vdW  Elec       q    Type
REMARK                         _______ _______ _______ _____ _____    ______ ____
ROOT
ATOM      1  N   UNL     1       4.973   6.227  16.874  0.00  0.00    +0.000 N 
ATOM      2  H   UNL     1       4.653   6.575  15.963  0.00  0.00    +0.000 HD
ENDROOT
BRANCH   1   6
ATOM      3  C   UNL     1       1.666   7.774  20.263  0.00  0.00    +0.000 C 
ATOM      4  C   UNL     1       2.636   6.980  19.473  0.00  0.00    +0.000 A 
ATOM      5  C   UNL     1       3.303   7.365  18.294  0.00  0.00    +0.000 A 
ATOM      6  C   UNL     1       4.063   6.277  17.928  0.00  0.00    +0.000 A 
ATOM      7  N   UNL     1       3.745   5.283  18.837  0.00  0.00    +0.000 N 
ATOM      8  N   UNL     1       2.962   5.735  19.839  0.00  0.00    +0.000 NA
BRANCH   7   9
ATOM      9  C   UNL     1       3.816   3.841  18.576  0.00  0.00    +0.000 C 
ATOM     10  C   UNL     1       3.654   2.933  19.811  0.00  0.00    +0.000 C 
ATOM     11  C   UNL     1       2.208   2.682  20.245  0.00  0.00    +0.000 C 
ATOM     12  C   UNL     1       1.299   2.292  19.083  0.00  0.00    +0.000 C 
ATOM     13  C   UNL     1       1.390   3.291  17.939  0.00  0.00    +0.000 C 
ATOM     14  C   UNL     1       2.832   3.455  17.455  0.00  0.00    +0.000 C 
ENDBRANCH   7   9
ENDBRANCH   1   6
BRANCH   1  15
ATOM     15  C   UNL     1       6.232   5.501  16.940  0.00  0.00    +0.000 C 
ATOM     16  S   UNL     1       6.547   4.102  16.043  0.00  0.00    +0.000 S 
BRANCH  15  17
ATOM     17  C   UNL     1       7.264   5.920  17.960  0.00  0.00    +0.000 C 
BRANCH  17  18
ATOM     18  N   UNL     1       7.583   7.327  17.943  0.00  0.00    +0.000 N 
ATOM     19  N   UNL     1       7.201   8.103  16.925  0.00  0.00    +0.000 NA
ATOM     20  N   UNL     1       7.785   9.269  17.153  0.00  0.00    +0.000 NA
ATOM     21  C   UNL     1       8.518   9.136  18.310  0.00  0.00    +0.000 A 
ATOM     22  N   UNL     1       8.402   7.903  18.853  0.00  0.00    +0.000 NA
BRANCH  21  23
ATOM     23  C   UNL     1       9.333  10.219  18.845  0.00  0.00    +0.000 A 
ATOM     24  C   UNL     1      10.113  11.004  17.983  0.00  0.00    +0.000 A 
ATOM     25  C   UNL     1      10.928  12.023  18.491  0.00  0.00    +0.000 A 
ATOM     26  C   UNL     1      10.965  12.264  19.862  0.00  0.00    +0.000 A 
ATOM     27  C   UNL     1      10.186  11.499  20.728  0.00  0.00    +0.000 A 
ATOM     28  C   UNL     1       9.372  10.482  20.222  0.00  0.00    +0.000 A 
ENDBRANCH  21  23
ENDBRANCH  17  18
ENDBRANCH  15  17
ENDBRANCH   1  15
TORSDOF 6
ENDMDL
MODEL 5
REMARK VINA RESULT:      -8.2      0.819      1.136
REMARK  Name = 
REMARK  7 active torsions:
REMARK  status: ('A' for Active; 'I' for Inactive)
REMARK    1  A    between atoms: C_1  and  C_2
REMARK    2  A    between atoms: C_4  and  N_5
REMARK    3  A    between atoms: N_5  and  C_6
REMARK    4  A    between atoms: C_6  and  C_8
REMARK    5  A    between atoms: C_8  and  N_9
REMARK    6  A    between atoms: C_12  and  C_13
REMARK    7  A    between atoms: N_20  and  C_21
REMARK                            x       y       z     vdW  Elec       q    Type
REMARK                         _______ _______ _______ _____ _____    ______ ____
ROOT
ATOM      1  N   UNL     1       5.438   5.073  18.478  0.00  0.00    +0.000 N 
ATOM      2  H   UNL     1       6.150   4.723  19.128  0.00  0.00    +0.000 HD
ENDROOT
BRANCH   1   6
ATOM      3  C   UNL     1       1.579   7.932  19.803  0.00  0.00    +0.000 C 
ATOM      4  C   UNL     1       2.561   6.829  19.670  0.00  0.00    +0.000 A 
ATOM      5  C   UNL     1       3.675   6.771  18.811  0.00  0.00    +0.000 A 
ATOM      6  C   UNL     1       4.246   5.538  19.032  0.00  0.00    +0.000 A 
ATOM      7  N   UNL     1       3.406   4.897  19.926  0.00  0.00    +0.000 N 
ATOM      8  N   UNL     1       2.441   5.714  20.399  0.00  0.00    +0.000 NA
BRANCH   7   9
ATOM      9  C   UNL     1       3.236   3.445  20.037  0.00  0.00    +0.000 C 
ATOM     10  C   UNL     1       2.054   2.978  20.910  0.00  0.00    +0.000 C 
ATOM     11  C   UNL     1       0.692   2.984  20.212  0.00  0.00    +0.000 C 
ATOM     12  C   UNL     1       0.727   2.323  18.837  0.00  0.00    +0.000 C 
ATOM     13  C   UNL     1       1.824   2.909  17.960  0.00  0.00    +0.000 C 
ATOM     14  C   UNL     1       3.193   2.806  18.636  0.00  0.00    +0.000 C 
ENDBRANCH   7   9
ENDBRANCH   1   6
BRANCH   1  15
ATOM     15  C   UNL     1       5.806   5.280  17.086  0.00  0.00    +0.000 C 
ATOM     16  S   UNL     1       6.095   4.015  16.002  0.00  0.00    +0.000 S 
BRANCH  15  17
ATOM     17  C   UNL     1       6.087   6.685  16.607  0.00  0.00    +0.000 C 
BRANCH  17  18
ATOM     18  N   UNL     1       7.122   7.370  17.342  0.00  0.00    +0.000 N 
ATOM     19  N   UNL     1       7.803   6.747  18.308  0.00  0.00    +0.000 NA
ATOM     20  N   UNL     1       8.543   7.693  18.863  0.00  0.00    +0.000 NA
ATOM     21  C   UNL     1       8.259   8.868  18.205  0.00  0.00    +0.000 A 
ATOM     22  N   UNL     1       7.358   8.695  17.212  0.00  0.00    +0.000 NA
BRANCH  21  23
ATOM     23  C   UNL     1       8.864  10.139  18.583  0.00  0.00    +0.000 A 
ATOM     24  C   UNL     1       8.704  11.266  17.762  0.00  0.00    +0.000 A 
ATOM     25  C   UNL     1       9.312  12.481  18.097  0.00  0.00    +0.000 A 
ATOM     26  C   UNL     1      10.080  12.579  19.255  0.00  0.00    +0.000 A 
ATOM     27  C   UNL     1      10.236  11.470  20.085  0.00  0.00    +0.000 A 
ATOM     28  C   UNL     1       9.630  10.256  19.752  0.00  0.00    +0.000 A 
ENDBRANCH  21  23
ENDBRANCH  17  18
ENDBRANCH  15  17
ENDBRANCH   1  15
TORSDOF 6
ENDMDL
MODEL 6
REMARK VINA RESULT:      -8.1      3.609      6.331
REMARK  Name = 
REMARK  7 active torsions:
REMARK  status: ('A' for Active; 'I' for Inactive)
REMARK    1  A    between atoms: C_1  and  C_2
REMARK    2  A    between atoms: C_4  and  N_5
REMARK    3  A    between atoms: N_5  and  C_6
REMARK    4  A    between atoms: C_6  and  C_8
REMARK    5  A    between atoms: C_8  and  N_9
REMARK    6  A    between atoms: C_12  and  C_13
REMARK    7  A    between atoms: N_20  and  C_21
REMARK                            x       y       z     vdW  Elec       q    Type
REMARK                         _______ _______ _______ _____ _____    ______ ____
ROOT
ATOM      1  N   UNL     1       4.416   6.232  17.331  0.00  0.00    +0.000 N 
ATOM      2  H   UNL     1       3.995   5.897  16.457  0.00  0.00    +0.000 HD
ENDROOT
BRANCH   1   6
ATOM      3  C   UNL     1       1.293   8.055  20.758  0.00  0.00    +0.000 C 
ATOM      4  C   UNL     1       2.228   7.201  19.987  0.00  0.00    +0.000 A 
ATOM      5  C   UNL     1       2.815   7.480  18.739  0.00  0.00    +0.000 A 
ATOM      6  C   UNL     1       3.570   6.372  18.430  0.00  0.00    +0.000 A 
ATOM      7  N   UNL     1       3.324   5.464  19.447  0.00  0.00    +0.000 N 
ATOM      8  N   UNL     1       2.596   6.001  20.448  0.00  0.00    +0.000 NA
BRANCH   7   9
ATOM      9  C   UNL     1       3.404   4.006  19.318  0.00  0.00    +0.000 C 
ATOM     10  C   UNL     1       2.930   3.202  20.546  0.00  0.00    +0.000 C 
ATOM     11  C   UNL     1       1.415   3.010  20.648  0.00  0.00    +0.000 C 
ATOM     12  C   UNL     1       0.787   2.543  19.338  0.00  0.00    +0.000 C 
ATOM     13  C   UNL     1       1.175   3.445  18.176  0.00  0.00    +0.000 C 
ATOM     14  C   UNL     1       2.695   3.545  18.031  0.00  0.00    +0.000 C 
ENDBRANCH   7   9
ENDBRANCH   1   6
BRANCH   1  15
ATOM     15  C   UNL     1       5.866   6.300  17.426  0.00  0.00    +0.000 C 
ATOM     16  S   UNL     1       6.714   7.739  17.692  0.00  0.00    +0.000 S 
BRANCH  15  17
ATOM     17  C   UNL     1       6.676   5.059  17.132  0.00  0.00    +0.000 C 
BRANCH  17  18
ATOM     18  N   UNL     1       6.791   4.740  15.730  0.00  0.00    +0.000 N 
ATOM     19  N   UNL     1       7.604   5.439  14.933  0.00  0.00    +0.000 NA
ATOM     20  N   UNL     1       7.348   4.992  13.714  0.00  0.00    +0.000 NA
ATOM     21  C   UNL     1       6.363   4.038  13.831  0.00  0.00    +0.000 A 
ATOM     22  N   UNL     1       5.989   3.841  15.115  0.00  0.00    +0.000 NA
BRANCH  21  23
ATOM     23  C   UNL     1       5.796   3.357  12.674  0.00  0.00    +0.000 A 
ATOM     24  C   UNL     1       4.570   3.780  12.138  0.00  0.00    +0.000 A 
ATOM     25  C   UNL     1       4.001   3.109  11.050  0.00  0.00    +0.000 A 
ATOM     26  C   UNL     1       4.653   2.014  10.489  0.00  0.00    +0.000 A 
ATOM     27  C   UNL     1       5.878   1.591  11.004  0.00  0.00    +0.000 A 
ATOM     28  C   UNL     1       6.448   2.260  12.090  0.00  0.00    +0.000 A 
ENDBRANCH  21  23
ENDBRANCH  17  18
ENDBRANCH  15  17
ENDBRANCH   1  15
TORSDOF 6
ENDMDL
MODEL 7
REMARK VINA RESULT:      -8.1      0.945      1.508
REMARK  Name = 
REMARK  7 active torsions:
REMARK  status: ('A' for Active; 'I' for Inactive)
REMARK    1  A    between atoms: C_1  and  C_2
REMARK    2  A    between atoms: C_4  and  N_5
REMARK    3  A    between atoms: N_5  and  C_6
REMARK    4  A    between atoms: C_6  and  C_8
REMARK    5  A    between atoms: C_8  and  N_9
REMARK    6  A    between atoms: C_12  and  C_13
REMARK    7  A    between atoms: N_20  and  C_21
REMARK                            x       y       z     vdW  Elec       q    Type
REMARK                         _______ _______ _______ _____ _____    ______ ____
ROOT
ATOM      1  N   UNL     1       5.356   5.272  18.111  0.00  0.00    +0.000 N 
ATOM      2  H   UNL     1       6.023   5.113  18.874  0.00  0.00    +0.000 HD
ENDROOT
BRANCH   1   6
ATOM      3  C   UNL     1       1.602   8.548  18.119  0.00  0.00    +0.000 C 
ATOM      4  C   UNL     1       2.552   7.462  18.461  0.00  0.00    +0.000 A 
ATOM      5  C   UNL     1       3.646   7.006  17.700  0.00  0.00    +0.000 A 
ATOM      6  C   UNL     1       4.189   5.969  18.423  0.00  0.00    +0.000 A 
ATOM      7  N   UNL     1       3.352   5.799  19.512  0.00  0.00    +0.000 N 
ATOM      8  N   UNL     1       2.419   6.770  19.598  0.00  0.00    +0.000 NA
BRANCH   7   9
ATOM      9  C   UNL     1       3.147   4.540  20.235  0.00  0.00    +0.000 C 
ATOM     10  C   UNL     1       1.831   4.435  21.030  0.00  0.00    +0.000 C 
ATOM     11  C   UNL     1       0.604   4.043  20.202  0.00  0.00    +0.000 C 
ATOM     12  C   UNL     1       0.860   2.844  19.294  0.00  0.00    +0.000 C 
ATOM     13  C   UNL     1       2.096   3.048  18.429  0.00  0.00    +0.000 C 
ATOM     14  C   UNL     1       3.331   3.343  19.283  0.00  0.00    +0.000 C 
ENDBRANCH   7   9
ENDBRANCH   1   6
BRANCH   1  15
ATOM     15  C   UNL     1       5.775   4.985  16.747  0.00  0.00    +0.000 C 
ATOM     16  S   UNL     1       5.003   3.851  15.758  0.00  0.00    +0.000 S 
BRANCH  15  17
ATOM     17  C   UNL     1       7.044   5.616  16.226  0.00  0.00    +0.000 C 
BRANCH  17  18
ATOM     18  N   UNL     1       7.669   6.542  17.138  0.00  0.00    +0.000 N 
ATOM     19  N   UNL     1       7.977   6.173  18.384  0.00  0.00    +0.000 NA
ATOM     20  N   UNL     1       8.378   7.287  18.976  0.00  0.00    +0.000 NA
ATOM     21  C   UNL     1       8.277   8.297  18.048  0.00  0.00    +0.000 A 
ATOM     22  N   UNL     1       7.836   7.853  16.850  0.00  0.00    +0.000 NA
BRANCH  21  23
ATOM     23  C   UNL     1       8.597   9.683  18.367  0.00  0.00    +0.000 A 
ATOM     24  C   UNL     1       9.291   9.992  19.547  0.00  0.00    +0.000 A 
ATOM     25  C   UNL     1       9.571  11.322  19.880  0.00  0.00    +0.000 A 
ATOM     26  C   UNL     1       9.162  12.351  19.035  0.00  0.00    +0.000 A 
ATOM     27  C   UNL     1       8.483  12.057  17.853  0.00  0.00    +0.000 A 
ATOM     28  C   UNL     1       8.203  10.730  17.520  0.00  0.00    +0.000 A 
ENDBRANCH  21  23
ENDBRANCH  17  18
ENDBRANCH  15  17
ENDBRANCH   1  15
TORSDOF 6
ENDMDL
MODEL 8
REMARK VINA RESULT:      -8.1      3.101      5.633
REMARK  Name = 
REMARK  7 active torsions:
REMARK  status: ('A' for Active; 'I' for Inactive)
REMARK    1  A    between atoms: C_1  and  C_2
REMARK    2  A    between atoms: C_4  and  N_5
REMARK    3  A    between atoms: N_5  and  C_6
REMARK    4  A    between atoms: C_6  and  C_8
REMARK    5  A    between atoms: C_8  and  N_9
REMARK    6  A    between atoms: C_12  and  C_13
REMARK    7  A    between atoms: N_20  and  C_21
REMARK                            x       y       z     vdW  Elec       q    Type
REMARK                         _______ _______ _______ _____ _____    ______ ____
ROOT
ATOM      1  N   UNL     1       5.936   4.651  18.595  0.00  0.00    +0.000 N 
ATOM      2  H   UNL     1       5.968   3.649  18.376  0.00  0.00    +0.000 HD
ENDROOT
BRANCH   1   6
ATOM      3  C   UNL     1       2.051   7.682  19.333  0.00  0.00    +0.000 C 
ATOM      4  C   UNL     1       3.002   6.545  19.362  0.00  0.00    +0.000 A 
ATOM      5  C   UNL     1       4.207   6.415  18.646  0.00  0.00    +0.000 A 
ATOM      6  C   UNL     1       4.705   5.177  18.983  0.00  0.00    +0.000 A 
ATOM      7  N   UNL     1       3.742   4.602  19.796  0.00  0.00    +0.000 N 
ATOM      8  N   UNL     1       2.758   5.468  20.116  0.00  0.00    +0.000 NA
BRANCH   7   9
ATOM      9  C   UNL     1       3.509   3.162  19.945  0.00  0.00    +0.000 C 
ATOM     10  C   UNL     1       2.355   2.769  20.889  0.00  0.00    +0.000 C 
ATOM     11  C   UNL     1       0.959   2.828  20.264  0.00  0.00    +0.000 C 
ATOM     12  C   UNL     1       0.889   2.143  18.902  0.00  0.00    +0.000 C 
ATOM     13  C   UNL     1       1.964   2.659  17.957  0.00  0.00    +0.000 C 
ATOM     14  C   UNL     1       3.361   2.501  18.562  0.00  0.00    +0.000 C 
ENDBRANCH   7   9
ENDBRANCH   1   6
BRANCH   1  15
ATOM     15  C   UNL     1       7.190   5.378  18.718  0.00  0.00    +0.000 C 
ATOM     16  S   UNL     1       8.123   5.388  20.128  0.00  0.00    +0.000 S 
BRANCH  15  17
ATOM     17  C   UNL     1       7.619   6.288  17.592  0.00  0.00    +0.000 C 
BRANCH  17  18
ATOM     18  N   UNL     1       6.971   6.024  16.331  0.00  0.00    +0.000 N 
ATOM     19  N   UNL     1       5.878   6.701  15.967  0.00  0.00    +0.000 NA
ATOM     20  N   UNL     1       5.467   6.107  14.858  0.00  0.00    +0.000 NA
ATOM     21  C   UNL     1       6.337   5.071  14.607  0.00  0.00    +0.000 A 
ATOM     22  N   UNL     1       7.325   4.995  15.527  0.00  0.00    +0.000 NA
BRANCH  21  23
ATOM     23  C   UNL     1       6.165   4.165  13.479  0.00  0.00    +0.000 A 
ATOM     24  C   UNL     1       7.283   3.725  12.752  0.00  0.00    +0.000 A 
ATOM     25  C   UNL     1       7.125   2.884  11.645  0.00  0.00    +0.000 A 
ATOM     26  C   UNL     1       5.851   2.475  11.259  0.00  0.00    +0.000 A 
ATOM     27  C   UNL     1       4.733   2.894  11.980  0.00  0.00    +0.000 A 
ATOM     28  C   UNL     1       4.890   3.734  13.085  0.00  0.00    +0.000 A 
ENDBRANCH  21  23
ENDBRANCH  17  18
ENDBRANCH  15  17
ENDBRANCH   1  15
TORSDOF 6
ENDMDL
MODEL 9
REMARK VINA RESULT:      -8.0      3.425      6.097
REMARK  Name = 
REMARK  7 active torsions:
REMARK  status: ('A' for Active; 'I' for Inactive)
REMARK    1  A    between atoms: C_1  and  C_2
REMARK    2  A    between atoms: C_4  and  N_5
REMARK    3  A    between atoms: N_5  and  C_6
REMARK    4  A    between atoms: C_6  and  C_8
REMARK    5  A    between atoms: C_8  and  N_9
REMARK    6  A    between atoms: C_12  and  C_13
REMARK    7  A    between atoms: N_20  and  C_21
REMARK                            x       y       z     vdW  Elec       q    Type
REMARK                         _______ _______ _______ _____ _____    ______ ____
ROOT
ATOM      1  N   UNL     1       5.757   5.384  18.995  0.00  0.00    +0.000 N 
ATOM      2  H   UNL     1       6.011   4.896  19.861  0.00  0.00    +0.000 HD
ENDROOT
BRANCH   1   6
ATOM      3  C   UNL     1       1.763   8.123  17.826  0.00  0.00    +0.000 C 
ATOM      4  C   UNL     1       2.696   7.144  18.432  0.00  0.00    +0.000 A 
ATOM      5  C   UNL     1       4.041   6.911  18.086  0.00  0.00    +0.000 A 
ATOM      6  C   UNL     1       4.460   5.888  18.906  0.00  0.00    +0.000 A 
ATOM      7  N   UNL     1       3.338   5.505  19.621  0.00  0.00    +0.000 N 
ATOM      8  N   UNL     1       2.292   6.332  19.416  0.00  0.00    +0.000 NA
BRANCH   7   9
ATOM      9  C   UNL     1       3.099   4.165  20.167  0.00  0.00    +0.000 C 
ATOM     10  C   UNL     1       1.725   3.955  20.835  0.00  0.00    +0.000 C 
ATOM     11  C   UNL     1       0.575   3.659  19.870  0.00  0.00    +0.000 C 
ATOM     12  C   UNL     1       0.922   2.581  18.846  0.00  0.00    +0.000 C 
ATOM     13  C   UNL     1       2.218   2.898  18.115  0.00  0.00    +0.000 C 
ATOM     14  C   UNL     1       3.377   3.096  19.095  0.00  0.00    +0.000 C 
ENDBRANCH   7   9
ENDBRANCH   1   6
BRANCH   1  15
ATOM     15  C   UNL     1       6.811   5.721  18.050  0.00  0.00    +0.000 C 
ATOM     16  S   UNL     1       7.181   7.307  17.597  0.00  0.00    +0.000 S 
BRANCH  15  17
ATOM     17  C   UNL     1       7.522   4.604  17.322  0.00  0.00    +0.000 C 
BRANCH  17  18
ATOM     18  N   UNL     1       7.311   4.593  15.895  0.00  0.00    +0.000 N 
ATOM     19  N   UNL     1       7.620   5.657  15.148  0.00  0.00    +0.000 NA
ATOM     20  N   UNL     1       7.160   5.368  13.942  0.00  0.00    +0.000 NA
ATOM     21  C   UNL     1       6.570   4.127  14.020  0.00  0.00    +0.000 A 
ATOM     22  N   UNL     1       6.659   3.593  15.259  0.00  0.00    +0.000 NA
BRANCH  21  23
ATOM     23  C   UNL     1       5.912   3.504  12.878  0.00  0.00    +0.000 A 
ATOM     24  C   UNL     1       4.628   3.919  12.493  0.00  0.00    +0.000 A 
ATOM     25  C   UNL     1       3.974   3.301  11.421  0.00  0.00    +0.000 A 
ATOM     26  C   UNL     1       4.599   2.268  10.727  0.00  0.00    +0.000 A 
ATOM     27  C   UNL     1       5.879   1.855  11.092  0.00  0.00    +0.000 A 
ATOM     28  C   UNL     1       6.534   2.471  12.161  0.00  0.00    +0.000 A 
ENDBRANCH  21  23
ENDBRANCH  17  18
ENDBRANCH  15  17
ENDBRANCH   1  15
TORSDOF 6
ENDMDL
