MODEL 1
REMARK VINA RESULT:      -4.4      0.000      0.000
REMARK  Name = 
REMARK  5 active torsions:
REMARK  status: ('A' for Active; 'I' for Inactive)
REMARK    1  A    between atoms: C_2  and  C_4
REMARK    2  A    between atoms: C_4  and  N_5
REMARK    3  A    between atoms: N_5  and  C_6
REMARK    4  A    between atoms: N_5  and  C_8
REMARK    5  A    between atoms: C_8  and  C_9
REMARK                            x       y       z     vdW  Elec       q    Type
REMARK                         _______ _______ _______ _____ _____    ______ ____
ROOT
ATOM      1  N   UNL     1       5.050   4.718  18.481  0.00  0.00    +0.000 N 
ENDROOT
BRANCH   1   2
ATOM      2  C   UNL     1       6.128   5.100  19.188  0.00  0.00    +0.000 C 
ATOM      3  N   UNL     1       7.071   5.436  19.768  0.00  0.00    +0.000 NA
ENDBRANCH   1   2
BRANCH   1   4
ATOM      4  C   UNL     1       3.744   4.298  19.084  0.00  0.00    +0.000 C 
BRANCH   4   6
ATOM      5  C   UNL     1       1.595   4.354  17.783  0.00  0.00    +0.000 C 
ATOM      6  C   UNL     1       2.546   4.991  18.482  0.00  0.00    +0.000 C 
ATOM      7 BR   UNL     1       2.513   6.854  18.670  0.00  0.00    +0.000 Br
ENDBRANCH   4   6
ENDBRANCH   1   4
BRANCH   1   8
ATOM      8  C   UNL     1       5.204   4.197  17.083  0.00  0.00    +0.000 C 
BRANCH   8   9
ATOM      9  C   UNL     1       5.600   5.264  16.089  0.00  0.00    +0.000 C 
ATOM     10  C   UNL     1       5.108   6.508  15.978  0.00  0.00    +0.000 C 
ATOM     11 BR   UNL     1       6.948   4.695  14.900  0.00  0.00    +0.000 Br
ENDBRANCH   8   9
ENDBRANCH   1   8
TORSDOF 5
ENDMDL
MODEL 2
REMARK VINA RESULT:      -4.4      1.915      4.686
REMARK  Name = 
REMARK  5 active torsions:
REMARK  status: ('A' for Active; 'I' for Inactive)
REMARK    1  A    between atoms: C_2  and  C_4
REMARK    2  A    between atoms: C_4  and  N_5
REMARK    3  A    between atoms: N_5  and  C_6
REMARK    4  A    between atoms: N_5  and  C_8
REMARK    5  A    between atoms: C_8  and  C_9
REMARK                            x       y       z     vdW  Elec       q    Type
REMARK                         _______ _______ _______ _____ _____    ______ ____
ROOT
ATOM      1  N   UNL     1       4.223   3.726  18.584  0.00  0.00    +0.000 N 
ENDROOT
BRANCH   1   2
ATOM      2  C   UNL     1       4.513   2.817  19.532  0.00  0.00    +0.000 C 
ATOM      3  N   UNL     1       4.780   2.017  20.324  0.00  0.00    +0.000 NA
ENDBRANCH   1   2
BRANCH   1   4
ATOM      4  C   UNL     1       5.083   4.906  18.247  0.00  0.00    +0.000 C 
BRANCH   4   6
ATOM      5  C   UNL     1       7.533   4.697  17.733  0.00  0.00    +0.000 C 
ATOM      6  C   UNL     1       6.253   4.570  17.355  0.00  0.00    +0.000 C 
ATOM      7 BR   UNL     1       5.813   4.061  15.607  0.00  0.00    +0.000 Br
ENDBRANCH   4   6
ENDBRANCH   1   4
BRANCH   1   8
ATOM      8  C   UNL     1       2.806   3.933  18.139  0.00  0.00    +0.000 C 
BRANCH   8   9
ATOM      9  C   UNL     1       1.808   3.852  19.271  0.00  0.00    +0.000 C 
ATOM     10  C   UNL     1       0.894   2.894  19.495  0.00  0.00    +0.000 C 
ATOM     11 BR   UNL     1       1.928   5.309  20.460  0.00  0.00    +0.000 Br
ENDBRANCH   8   9
ENDBRANCH   1   8
TORSDOF 5
ENDMDL
MODEL 3
REMARK VINA RESULT:      -4.4      2.243      2.389
REMARK  Name = 
REMARK  5 active torsions:
REMARK  status: ('A' for Active; 'I' for Inactive)
REMARK    1  A    between atoms: C_2  and  C_4
REMARK    2  A    between atoms: C_4  and  N_5
REMARK    3  A    between atoms: N_5  and  C_6
REMARK    4  A    between atoms: N_5  and  C_8
REMARK    5  A    between atoms: C_8  and  C_9
REMARK                            x       y       z     vdW  Elec       q    Type
REMARK                         _______ _______ _______ _____ _____    ______ ____
ROOT
ATOM      1  N   UNL     1       4.140   3.753  18.490  0.00  0.00    +0.000 N 
ENDROOT
BRANCH   1   2
ATOM      2  C   UNL     1       5.167   4.366  19.105  0.00  0.00    +0.000 C 
ATOM      3  N   UNL     1       6.061   4.863  19.646  0.00  0.00    +0.000 NA
ENDBRANCH   1   2
BRANCH   1   4
ATOM      4  C   UNL     1       3.573   2.428  18.901  0.00  0.00    +0.000 C 
BRANCH   4   6
ATOM      5  C   UNL     1       1.060   2.438  18.885  0.00  0.00    +0.000 C 
ATOM      6  C   UNL     1       2.217   2.524  19.558  0.00  0.00    +0.000 C 
ATOM      7 BR   UNL     1       2.236   2.894  21.394  0.00  0.00    +0.000 Br
ENDBRANCH   4   6
ENDBRANCH   1   4
BRANCH   1   8
ATOM      8  C   UNL     1       3.806   4.076  17.064  0.00  0.00    +0.000 C 
BRANCH   8   9
ATOM      9  C   UNL     1       5.001   4.539  16.263  0.00  0.00    +0.000 C 
ATOM     10  C   UNL     1       5.924   3.781  15.650  0.00  0.00    +0.000 C 
ATOM     11 BR   UNL     1       5.135   6.417  16.166  0.00  0.00    +0.000 Br
ENDBRANCH   8   9
ENDBRANCH   1   8
TORSDOF 5
ENDMDL
MODEL 4
REMARK VINA RESULT:      -4.4      2.600      3.517
REMARK  Name = 
REMARK  5 active torsions:
REMARK  status: ('A' for Active; 'I' for Inactive)
REMARK    1  A    between atoms: C_2  and  C_4
REMARK    2  A    between atoms: C_4  and  N_5
REMARK    3  A    between atoms: N_5  and  C_6
REMARK    4  A    between atoms: N_5  and  C_8
REMARK    5  A    between atoms: C_8  and  C_9
REMARK                            x       y       z     vdW  Elec       q    Type
REMARK                         _______ _______ _______ _____ _____    ______ ____
ROOT
ATOM      1  N   UNL     1       4.236   4.536  19.039  0.00  0.00    +0.000 N 
ENDROOT
BRANCH   1   2
ATOM      2  C   UNL     1       5.475   4.964  19.341  0.00  0.00    +0.000 C 
ATOM      3  N   UNL     1       6.549   5.301  19.607  0.00  0.00    +0.000 NA
ENDBRANCH   1   2
BRANCH   1   4
ATOM      4  C   UNL     1       3.802   3.101  19.071  0.00  0.00    +0.000 C 
BRANCH   4   6
ATOM      5  C   UNL     1       2.535   2.840  21.225  0.00  0.00    +0.000 C 
ATOM      6  C   UNL     1       2.554   2.862  19.884  0.00  0.00    +0.000 C 
ATOM      7 BR   UNL     1       1.010   2.476  18.896  0.00  0.00    +0.000 Br
ENDBRANCH   4   6
ENDBRANCH   1   4
BRANCH   1   8
ATOM      8  C   UNL     1       3.337   5.363  18.169  0.00  0.00    +0.000 C 
BRANCH   8   9
ATOM      9  C   UNL     1       2.663   6.493  18.913  0.00  0.00    +0.000 C 
ATOM     10  C   UNL     1       2.122   6.461  20.141  0.00  0.00    +0.000 C 
ATOM     11 BR   UNL     1       2.618   8.098  17.925  0.00  0.00    +0.000 Br
ENDBRANCH   8   9
ENDBRANCH   1   8
TORSDOF 5
ENDMDL
MODEL 5
REMARK VINA RESULT:      -4.3      2.055      4.517
REMARK  Name = 
REMARK  5 active torsions:
REMARK  status: ('A' for Active; 'I' for Inactive)
REMARK    1  A    between atoms: C_2  and  C_4
REMARK    2  A    between atoms: C_4  and  N_5
REMARK    3  A    between atoms: N_5  and  C_6
REMARK    4  A    between atoms: N_5  and  C_8
REMARK    5  A    between atoms: C_8  and  C_9
REMARK                            x       y       z     vdW  Elec       q    Type
REMARK                         _______ _______ _______ _____ _____    ______ ____
ROOT
ATOM      1  N   UNL     1       4.193   3.972  18.862  0.00  0.00    +0.000 N 
ENDROOT
BRANCH   1   2
ATOM      2  C   UNL     1       4.507   2.901  19.612  0.00  0.00    +0.000 C 
ATOM      3  N   UNL     1       4.802   1.996  20.270  0.00  0.00    +0.000 NA
ENDBRANCH   1   2
BRANCH   1   4
ATOM      4  C   UNL     1       4.812   5.328  19.017  0.00  0.00    +0.000 C 
BRANCH   4   6
ATOM      5  C   UNL     1       5.304   6.645  16.934  0.00  0.00    +0.000 C 
ATOM      6  C   UNL     1       5.677   5.739  17.850  0.00  0.00    +0.000 C 
ATOM      7 BR   UNL     1       7.294   4.810  17.679  0.00  0.00    +0.000 Br
ENDBRANCH   4   6
ENDBRANCH   1   4
BRANCH   1   8
ATOM      8  C   UNL     1       2.869   4.048  18.162  0.00  0.00    +0.000 C 
BRANCH   8   9
ATOM      9  C   UNL     1       1.727   3.500  18.987  0.00  0.00    +0.000 C 
ATOM     10  C   UNL     1       0.991   2.404  18.745  0.00  0.00    +0.000 C 
ATOM     11 BR   UNL     1       1.360   4.541  20.515  0.00  0.00    +0.000 Br
ENDBRANCH   8   9
ENDBRANCH   1   8
TORSDOF 5
ENDMDL
MODEL 6
REMARK VINA RESULT:      -4.3      2.070      2.548
REMARK  Name = 
REMARK  5 active torsions:
REMARK  status: ('A' for Active; 'I' for Inactive)
REMARK    1  A    between atoms: C_2  and  C_4
REMARK    2  A    between atoms: C_4  and  N_5
REMARK    3  A    between atoms: N_5  and  C_6
REMARK    4  A    between atoms: N_5  and  C_8
REMARK    5  A    between atoms: C_8  and  C_9
REMARK                            x       y       z     vdW  Elec       q    Type
REMARK                         _______ _______ _______ _____ _____    ______ ____
ROOT
ATOM      1  N   UNL     1       4.530   4.536  18.978  0.00  0.00    +0.000 N 
ENDROOT
BRANCH   1   2
ATOM      2  C   UNL     1       5.741   4.973  19.367  0.00  0.00    +0.000 C 
ATOM      3  N   UNL     1       6.796   5.338  19.673  0.00  0.00    +0.000 NA
ENDBRANCH   1   2
BRANCH   1   4
ATOM      4  C   UNL     1       3.768   3.436  19.652  0.00  0.00    +0.000 C 
BRANCH   4   6
ATOM      5  C   UNL     1       1.887   4.718  20.715  0.00  0.00    +0.000 C 
ATOM      6  C   UNL     1       2.312   3.757  19.882  0.00  0.00    +0.000 C 
ATOM      7 BR   UNL     1       1.091   2.639  19.004  0.00  0.00    +0.000 Br
ENDBRANCH   4   6
ENDBRANCH   1   4
BRANCH   1   8
ATOM      8  C   UNL     1       4.063   4.746  17.568  0.00  0.00    +0.000 C 
BRANCH   8   9
ATOM      9  C   UNL     1       4.227   6.171  17.092  0.00  0.00    +0.000 C 
ATOM     10  C   UNL     1       5.086   6.637  16.172  0.00  0.00    +0.000 C 
ATOM     11 BR   UNL     1       3.048   7.369  17.946  0.00  0.00    +0.000 Br
ENDBRANCH   8   9
ENDBRANCH   1   8
TORSDOF 5
ENDMDL
MODEL 7
REMARK VINA RESULT:      -4.3      1.930      4.312
REMARK  Name = 
REMARK  5 active torsions:
REMARK  status: ('A' for Active; 'I' for Inactive)
REMARK    1  A    between atoms: C_2  and  C_4
REMARK    2  A    between atoms: C_4  and  N_5
REMARK    3  A    between atoms: N_5  and  C_6
REMARK    4  A    between atoms: N_5  and  C_8
REMARK    5  A    between atoms: C_8  and  C_9
REMARK                            x       y       z     vdW  Elec       q    Type
REMARK                         _______ _______ _______ _____ _____    ______ ____
ROOT
ATOM      1  N   UNL     1       4.385   4.421  19.430  0.00  0.00    +0.000 N 
ENDROOT
BRANCH   1   2
ATOM      2  C   UNL     1       4.592   3.131  19.749  0.00  0.00    +0.000 C 
ATOM      3  N   UNL     1       4.752   2.012  19.997  0.00  0.00    +0.000 NA
ENDBRANCH   1   2
BRANCH   1   4
ATOM      4  C   UNL     1       5.468   5.387  19.055  0.00  0.00    +0.000 C 
BRANCH   4   6
ATOM      5  C   UNL     1       4.808   6.172  16.761  0.00  0.00    +0.000 C 
ATOM      6  C   UNL     1       5.667   5.529  17.566  0.00  0.00    +0.000 C 
ATOM      7 BR   UNL     1       7.158   4.639  16.864  0.00  0.00    +0.000 Br
ENDBRANCH   4   6
ENDBRANCH   1   4
BRANCH   1   8
ATOM      8  C   UNL     1       3.152   5.133  19.902  0.00  0.00    +0.000 C 
BRANCH   8   9
ATOM      9  C   UNL     1       1.874   4.401  19.562  0.00  0.00    +0.000 C 
ATOM     10  C   UNL     1       0.965   3.897  20.411  0.00  0.00    +0.000 C 
ATOM     11 BR   UNL     1       1.608   4.215  17.705  0.00  0.00    +0.000 Br
ENDBRANCH   8   9
ENDBRANCH   1   8
TORSDOF 5
ENDMDL
MODEL 8
REMARK VINA RESULT:      -4.3      2.059      4.069
REMARK  Name = 
REMARK  5 active torsions:
REMARK  status: ('A' for Active; 'I' for Inactive)
REMARK    1  A    between atoms: C_2  and  C_4
REMARK    2  A    between atoms: C_4  and  N_5
REMARK    3  A    between atoms: N_5  and  C_6
REMARK    4  A    between atoms: N_5  and  C_8
REMARK    5  A    between atoms: C_8  and  C_9
REMARK                            x       y       z     vdW  Elec       q    Type
REMARK                         _______ _______ _______ _____ _____    ______ ____
ROOT
ATOM      1  N   UNL     1       4.599   4.025  19.221  0.00  0.00    +0.000 N 
ENDROOT
BRANCH   1   2
ATOM      2  C   UNL     1       4.682   2.847  19.866  0.00  0.00    +0.000 C 
ATOM      3  N   UNL     1       4.786   1.833  20.412  0.00  0.00    +0.000 NA
ENDBRANCH   1   2
BRANCH   1   4
ATOM      4  C   UNL     1       5.713   4.640  18.430  0.00  0.00    +0.000 C 
BRANCH   4   6
ATOM      5  C   UNL     1       5.439   3.839  16.065  0.00  0.00    +0.000 C 
ATOM      6  C   UNL     1       5.389   4.828  16.968  0.00  0.00    +0.000 C 
ATOM      7 BR   UNL     1       5.012   6.587  16.446  0.00  0.00    +0.000 Br
ENDBRANCH   4   6
ENDBRANCH   1   4
BRANCH   1   8
ATOM      8  C   UNL     1       3.590   5.052  19.642  0.00  0.00    +0.000 C 
BRANCH   8   9
ATOM      9  C   UNL     1       2.164   4.564  19.540  0.00  0.00    +0.000 C 
ATOM     10  C   UNL     1       1.280   4.394  20.536  0.00  0.00    +0.000 C 
ATOM     11 BR   UNL     1       1.650   4.166  17.771  0.00  0.00    +0.000 Br
ENDBRANCH   8   9
ENDBRANCH   1   8
TORSDOF 5
ENDMDL
MODEL 9
REMARK VINA RESULT:      -4.3      2.170      4.514
REMARK  Name = 
REMARK  5 active torsions:
REMARK  status: ('A' for Active; 'I' for Inactive)
REMARK    1  A    between atoms: C_2  and  C_4
REMARK    2  A    between atoms: C_4  and  N_5
REMARK    3  A    between atoms: N_5  and  C_6
REMARK    4  A    between atoms: N_5  and  C_8
REMARK    5  A    between atoms: C_8  and  C_9
REMARK                            x       y       z     vdW  Elec       q    Type
REMARK                         _______ _______ _______ _____ _____    ______ ____
ROOT
ATOM      1  N   UNL     1       4.341   4.035  18.825  0.00  0.00    +0.000 N 
ENDROOT
BRANCH   1   2
ATOM      2  C   UNL     1       4.567   2.957  19.597  0.00  0.00    +0.000 C 
ATOM      3  N   UNL     1       4.774   2.049  20.283  0.00  0.00    +0.000 NA
ENDBRANCH   1   2
BRANCH   1   4
ATOM      4  C   UNL     1       5.285   5.190  18.683  0.00  0.00    +0.000 C 
BRANCH   4   6
ATOM      5  C   UNL     1       7.465   4.650  17.557  0.00  0.00    +0.000 C 
ATOM      6  C   UNL     1       6.199   5.085  17.487  0.00  0.00    +0.000 C 
ATOM      7 BR   UNL     1       5.489   5.716  15.872  0.00  0.00    +0.000 Br
ENDBRANCH   4   6
ENDBRANCH   1   4
BRANCH   1   8
ATOM      8  C   UNL     1       2.941   4.419  18.447  0.00  0.00    +0.000 C 
BRANCH   8   9
ATOM      9  C   UNL     1       2.010   4.520  19.633  0.00  0.00    +0.000 C 
ATOM     10  C   UNL     1       1.916   5.522  20.521  0.00  0.00    +0.000 C 
ATOM     11 BR   UNL     1       0.885   3.018  19.811  0.00  0.00    +0.000 Br
ENDBRANCH   8   9
ENDBRANCH   1   8
TORSDOF 5
ENDMDL
