MODEL 1
REMARK VINA RESULT:      -7.7      0.000      0.000
REMARK  Name = 
REMARK  7 active torsions:
REMARK  status: ('A' for Active; 'I' for Inactive)
REMARK    1  A    between atoms: C_2  and  C_3
REMARK    2  A    between atoms: C_3  and  C_4
REMARK    3  A    between atoms: C_4  and  C_5
REMARK    4  A    between atoms: C_5  and  C_6
REMARK    5  A    between atoms: C_6  and  N_7
REMARK    6  A    between atoms: N_13  and  C_14
REMARK    7  A    between atoms: C_17  and  C_18
REMARK                            x       y       z     vdW  Elec       q    Type
REMARK                         _______ _______ _______ _____ _____    ______ ____
ROOT
ATOM      1  O   UNL     1       1.536   4.939  17.921  0.00  0.00    +0.000 OA
ATOM      2  C   UNL     1       2.653   5.419  17.766  0.00  0.00    +0.000 C 
ATOM      3  N   UNL     1       3.055   6.698  18.122  0.00  0.00    +0.000 N 
ATOM      4  H   UNL     1       3.946   7.020  17.768  0.00  0.00    +0.000 HD
ENDROOT
BRANCH   3   5
ATOM      5  C   UNL     1       2.291   7.633  18.846  0.00  0.00    +0.000 A 
ATOM      6  C   UNL     1       1.764   8.786  18.276  0.00  0.00    +0.000 A 
ATOM      7  C   UNL     1       0.987   9.666  19.035  0.00  0.00    +0.000 A 
ATOM      8  C   UNL     1       0.699   9.420  20.388  0.00  0.00    +0.000 A 
ATOM      9  C   UNL     1       1.243   8.254  20.951  0.00  0.00    +0.000 A 
ATOM     10  C   UNL     1       2.023   7.367  20.191  0.00  0.00    +0.000 A 
BRANCH   8  11
ATOM     11  C   UNL     1      -0.152  10.349  21.163  0.00  0.00    +0.000 A 
ATOM     12  C   UNL     1      -0.858  11.398  20.551  0.00  0.00    +0.000 A 
ATOM     13  C   UNL     1      -1.643  12.269  21.304  0.00  0.00    +0.000 A 
ATOM     14  C   UNL     1      -1.719  12.067  22.670  0.00  0.00    +0.000 A 
ATOM     15  N   UNL     1      -1.068  11.076  23.312  0.00  0.00    +0.000 NA
ATOM     16  C   UNL     1      -0.304  10.253  22.549  0.00  0.00    +0.000 A 
ENDBRANCH   8  11
ENDBRANCH   3   5
BRANCH   2  17
ATOM     17  C   UNL     1       3.788   4.603  17.181  0.00  0.00    +0.000 C 
BRANCH  17  18
ATOM     18  C   UNL     1       4.045   3.330  17.986  0.00  0.00    +0.000 C 
BRANCH  18  19
ATOM     19  C   UNL     1       5.073   3.604  19.081  0.00  0.00    +0.000 C 
BRANCH  19  20
ATOM     20  C   UNL     1       5.708   4.991  18.941  0.00  0.00    +0.000 C 
BRANCH  20  21
ATOM     21  N   UNL     1       7.153   4.926  18.658  0.00  0.00    +0.000 NA
ATOM     22  C   UNL     1       7.778   6.265  18.786  0.00  0.00    +0.000 C 
ATOM     23  C   UNL     1       7.436   7.229  17.632  0.00  0.00    +0.000 C 
ATOM     24  O   UNL     1       7.736   6.660  16.350  0.00  0.00    +0.000 OA
ATOM     25  C   UNL     1       7.081   5.397  16.182  0.00  0.00    +0.000 C 
ATOM     26  C   UNL     1       7.477   4.425  17.303  0.00  0.00    +0.000 C 
ENDBRANCH  20  21
ENDBRANCH  19  20
ENDBRANCH  18  19
ENDBRANCH  17  18
ENDBRANCH   2  17
TORSDOF 7
ENDMDL
MODEL 2
REMARK VINA RESULT:      -7.5      2.174      2.661
REMARK  Name = 
REMARK  7 active torsions:
REMARK  status: ('A' for Active; 'I' for Inactive)
REMARK    1  A    between atoms: C_2  and  C_3
REMARK    2  A    between atoms: C_3  and  C_4
REMARK    3  A    between atoms: C_4  and  C_5
REMARK    4  A    between atoms: C_5  and  C_6
REMARK    5  A    between atoms: C_6  and  N_7
REMARK    6  A    between atoms: N_13  and  C_14
REMARK    7  A    between atoms: C_17  and  C_18
REMARK                            x       y       z     vdW  Elec       q    Type
REMARK                         _______ _______ _______ _____ _____    ______ ____
ROOT
ATOM      1  O   UNL     1       0.908   4.455  20.194  0.00  0.00    +0.000 OA
ATOM      2  C   UNL     1       2.130   4.550  20.214  0.00  0.00    +0.000 C 
ATOM      3  N   UNL     1       2.871   5.677  19.893  0.00  0.00    +0.000 N 
ATOM      4  H   UNL     1       3.869   5.559  19.774  0.00  0.00    +0.000 HD
ENDROOT
BRANCH   3   5
ATOM      5  C   UNL     1       2.352   6.956  19.614  0.00  0.00    +0.000 A 
ATOM      6  C   UNL     1       2.464   7.565  18.369  0.00  0.00    +0.000 A 
ATOM      7  C   UNL     1       1.904   8.825  18.138  0.00  0.00    +0.000 A 
ATOM      8  C   UNL     1       1.203   9.518  19.140  0.00  0.00    +0.000 A 
ATOM      9  C   UNL     1       1.105   8.893  20.394  0.00  0.00    +0.000 A 
ATOM     10  C   UNL     1       1.665   7.627  20.629  0.00  0.00    +0.000 A 
BRANCH   8  11
ATOM     11  C   UNL     1       0.593  10.836  18.863  0.00  0.00    +0.000 A 
ATOM     12  C   UNL     1      -0.760  10.971  18.511  0.00  0.00    +0.000 A 
ATOM     13  C   UNL     1      -1.310  12.223  18.243  0.00  0.00    +0.000 A 
ATOM     14  C   UNL     1      -0.492  13.333  18.343  0.00  0.00    +0.000 A 
ATOM     15  N   UNL     1       0.812  13.266  18.682  0.00  0.00    +0.000 NA
ATOM     16  C   UNL     1       1.317  12.030  18.926  0.00  0.00    +0.000 A 
ENDBRANCH   8  11
ENDBRANCH   3   5
BRANCH   2  17
ATOM     17  C   UNL     1       3.003   3.397  20.663  0.00  0.00    +0.000 C 
BRANCH  17  18
ATOM     18  C   UNL     1       4.211   3.208  19.746  0.00  0.00    +0.000 C 
BRANCH  18  19
ATOM     19  C   UNL     1       3.750   2.760  18.362  0.00  0.00    +0.000 C 
BRANCH  19  20
ATOM     20  C   UNL     1       4.517   3.469  17.241  0.00  0.00    +0.000 C 
BRANCH  20  21
ATOM     21  N   UNL     1       5.024   4.790  17.651  0.00  0.00    +0.000 NA
ATOM     22  C   UNL     1       4.854   5.783  16.561  0.00  0.00    +0.000 C 
ATOM     23  C   UNL     1       5.834   5.597  15.386  0.00  0.00    +0.000 C 
ATOM     24  O   UNL     1       7.200   5.568  15.825  0.00  0.00    +0.000 OA
ATOM     25  C   UNL     1       7.396   4.565  16.828  0.00  0.00    +0.000 C 
ATOM     26  C   UNL     1       6.457   4.796  18.021  0.00  0.00    +0.000 C 
ENDBRANCH  20  21
ENDBRANCH  19  20
ENDBRANCH  18  19
ENDBRANCH  17  18
ENDBRANCH   2  17
TORSDOF 7
ENDMDL
MODEL 3
REMARK VINA RESULT:      -7.5      2.163      2.760
REMARK  Name = 
REMARK  7 active torsions:
REMARK  status: ('A' for Active; 'I' for Inactive)
REMARK    1  A    between atoms: C_2  and  C_3
REMARK    2  A    between atoms: C_3  and  C_4
REMARK    3  A    between atoms: C_4  and  C_5
REMARK    4  A    between atoms: C_5  and  C_6
REMARK    5  A    between atoms: C_6  and  N_7
REMARK    6  A    between atoms: N_13  and  C_14
REMARK    7  A    between atoms: C_17  and  C_18
REMARK                            x       y       z     vdW  Elec       q    Type
REMARK                         _______ _______ _______ _____ _____    ______ ____
ROOT
ATOM      1  O   UNL     1       1.008   4.227  19.534  0.00  0.00    +0.000 OA
ATOM      2  C   UNL     1       2.110   4.387  20.047  0.00  0.00    +0.000 C 
ATOM      3  N   UNL     1       2.800   5.585  20.154  0.00  0.00    +0.000 N 
ATOM      4  H   UNL     1       3.771   5.539  20.432  0.00  0.00    +0.000 HD
ENDROOT
BRANCH   3   5
ATOM      5  C   UNL     1       2.304   6.858  19.813  0.00  0.00    +0.000 A 
ATOM      6  C   UNL     1       2.447   7.413  18.546  0.00  0.00    +0.000 A 
ATOM      7  C   UNL     1       1.909   8.669  18.252  0.00  0.00    +0.000 A 
ATOM      8  C   UNL     1       1.199   9.412  19.210  0.00  0.00    +0.000 A 
ATOM      9  C   UNL     1       1.069   8.842  20.487  0.00  0.00    +0.000 A 
ATOM     10  C   UNL     1       1.606   7.579  20.785  0.00  0.00    +0.000 A 
BRANCH   8  11
ATOM     11  C   UNL     1       0.612  10.725  18.867  0.00  0.00    +0.000 A 
ATOM     12  C   UNL     1       1.351  11.917  18.953  0.00  0.00    +0.000 A 
ATOM     13  C   UNL     1       0.771  13.144  18.637  0.00  0.00    +0.000 A 
ATOM     14  C   UNL     1      -0.549  13.159  18.226  0.00  0.00    +0.000 A 
ATOM     15  N   UNL     1      -1.306  12.048  18.119  0.00  0.00    +0.000 NA
ATOM     16  C   UNL     1      -0.713  10.872  18.445  0.00  0.00    +0.000 A 
ENDBRANCH   8  11
ENDBRANCH   3   5
BRANCH   2  17
ATOM     17  C   UNL     1       2.852   3.238  20.697  0.00  0.00    +0.000 C 
BRANCH  17  18
ATOM     18  C   UNL     1       4.121   2.874  19.929  0.00  0.00    +0.000 C 
BRANCH  18  19
ATOM     19  C   UNL     1       4.000   3.326  18.477  0.00  0.00    +0.000 C 
BRANCH  19  20
ATOM     20  C   UNL     1       5.261   4.049  17.992  0.00  0.00    +0.000 C 
BRANCH  20  21
ATOM     21  N   UNL     1       4.969   5.076  16.976  0.00  0.00    +0.000 NA
ATOM     22  C   UNL     1       5.371   4.613  15.625  0.00  0.00    +0.000 C 
ATOM     23  C   UNL     1       6.896   4.597  15.396  0.00  0.00    +0.000 C 
ATOM     24  O   UNL     1       7.496   5.867  15.686  0.00  0.00    +0.000 OA
ATOM     25  C   UNL     1       7.175   6.295  17.015  0.00  0.00    +0.000 C 
ATOM     26  C   UNL     1       5.654   6.367  17.212  0.00  0.00    +0.000 C 
ENDBRANCH  20  21
ENDBRANCH  19  20
ENDBRANCH  18  19
ENDBRANCH  17  18
ENDBRANCH   2  17
TORSDOF 7
ENDMDL
MODEL 4
REMARK VINA RESULT:      -7.4      1.834      3.616
REMARK  Name = 
REMARK  7 active torsions:
REMARK  status: ('A' for Active; 'I' for Inactive)
REMARK    1  A    between atoms: C_2  and  C_3
REMARK    2  A    between atoms: C_3  and  C_4
REMARK    3  A    between atoms: C_4  and  C_5
REMARK    4  A    between atoms: C_5  and  C_6
REMARK    5  A    between atoms: C_6  and  N_7
REMARK    6  A    between atoms: N_13  and  C_14
REMARK    7  A    between atoms: C_17  and  C_18
REMARK                            x       y       z     vdW  Elec       q    Type
REMARK                         _______ _______ _______ _____ _____    ______ ____
ROOT
ATOM      1  O   UNL     1       5.385   7.647  17.638  0.00  0.00    +0.000 OA
ATOM      2  C   UNL     1       4.591   6.839  17.170  0.00  0.00    +0.000 C 
ATOM      3  N   UNL     1       3.245   6.733  17.487  0.00  0.00    +0.000 N 
ATOM      4  H   UNL     1       2.755   5.907  17.166  0.00  0.00    +0.000 HD
ENDROOT
BRANCH   3   5
ATOM      5  C   UNL     1       2.515   7.618  18.303  0.00  0.00    +0.000 A 
ATOM      6  C   UNL     1       1.929   8.784  17.823  0.00  0.00    +0.000 A 
ATOM      7  C   UNL     1       1.190   9.613  18.673  0.00  0.00    +0.000 A 
ATOM      8  C   UNL     1       0.999   9.301  20.029  0.00  0.00    +0.000 A 
ATOM      9  C   UNL     1       1.602   8.123  20.500  0.00  0.00    +0.000 A 
ATOM     10  C   UNL     1       2.344   7.287  19.650  0.00  0.00    +0.000 A 
BRANCH   8  11
ATOM     11  C   UNL     1       0.187  10.176  20.901  0.00  0.00    +0.000 A 
ATOM     12  C   UNL     1      -0.643  11.182  20.381  0.00  0.00    +0.000 A 
ATOM     13  C   UNL     1      -1.390  12.003  21.224  0.00  0.00    +0.000 A 
ATOM     14  C   UNL     1      -1.301  11.795  22.587  0.00  0.00    +0.000 A 
ATOM     15  N   UNL     1      -0.527  10.842  23.145  0.00  0.00    +0.000 NA
ATOM     16  C   UNL     1       0.195  10.068  22.295  0.00  0.00    +0.000 A 
ENDBRANCH   8  11
ENDBRANCH   3   5
BRANCH   2  17
ATOM     17  C   UNL     1       5.009   5.849  16.103  0.00  0.00    +0.000 C 
BRANCH  17  18
ATOM     18  C   UNL     1       5.534   4.548  16.708  0.00  0.00    +0.000 C 
BRANCH  18  19
ATOM     19  C   UNL     1       4.405   3.527  16.809  0.00  0.00    +0.000 C 
BRANCH  19  20
ATOM     20  C   UNL     1       4.057   3.193  18.264  0.00  0.00    +0.000 C 
BRANCH  20  21
ATOM     21  N   UNL     1       2.966   4.031  18.791  0.00  0.00    +0.000 NA
ATOM     22  C   UNL     1       2.894   3.936  20.270  0.00  0.00    +0.000 C 
ATOM     23  C   UNL     1       2.326   2.599  20.785  0.00  0.00    +0.000 C 
ATOM     24  O   UNL     1       1.050   2.298  20.204  0.00  0.00    +0.000 OA
ATOM     25  C   UNL     1       1.119   2.315  18.773  0.00  0.00    +0.000 C 
ATOM     26  C   UNL     1       1.628   3.674  18.269  0.00  0.00    +0.000 C 
ENDBRANCH  20  21
ENDBRANCH  19  20
ENDBRANCH  18  19
ENDBRANCH  17  18
ENDBRANCH   2  17
TORSDOF 7
ENDMDL
MODEL 5
REMARK VINA RESULT:      -7.3      2.162      2.543
REMARK  Name = 
REMARK  7 active torsions:
REMARK  status: ('A' for Active; 'I' for Inactive)
REMARK    1  A    between atoms: C_2  and  C_3
REMARK    2  A    between atoms: C_3  and  C_4
REMARK    3  A    between atoms: C_4  and  C_5
REMARK    4  A    between atoms: C_5  and  C_6
REMARK    5  A    between atoms: C_6  and  N_7
REMARK    6  A    between atoms: N_13  and  C_14
REMARK    7  A    between atoms: C_17  and  C_18
REMARK                            x       y       z     vdW  Elec       q    Type
REMARK                         _______ _______ _______ _____ _____    ______ ____
ROOT
ATOM      1  O   UNL     1       1.252   4.306  19.118  0.00  0.00    +0.000 OA
ATOM      2  C   UNL     1       2.202   4.483  19.873  0.00  0.00    +0.000 C 
ATOM      3  N   UNL     1       2.758   5.705  20.220  0.00  0.00    +0.000 N 
ATOM      4  H   UNL     1       3.648   5.691  20.702  0.00  0.00    +0.000 HD
ENDROOT
BRANCH   3   5
ATOM      5  C   UNL     1       2.250   6.973  19.875  0.00  0.00    +0.000 A 
ATOM      6  C   UNL     1       2.427   7.544  18.620  0.00  0.00    +0.000 A 
ATOM      7  C   UNL     1       1.875   8.794  18.322  0.00  0.00    +0.000 A 
ATOM      8  C   UNL     1       1.118   9.512  19.262  0.00  0.00    +0.000 A 
ATOM      9  C   UNL     1       0.954   8.924  20.528  0.00  0.00    +0.000 A 
ATOM     10  C   UNL     1       1.505   7.669  20.830  0.00  0.00    +0.000 A 
BRANCH   8  11
ATOM     11  C   UNL     1       0.518  10.818  18.914  0.00  0.00    +0.000 A 
ATOM     12  C   UNL     1      -0.827  10.941  18.533  0.00  0.00    +0.000 A 
ATOM     13  C   UNL     1      -1.367  12.181  18.196  0.00  0.00    +0.000 A 
ATOM     14  C   UNL     1      -0.546  13.291  18.258  0.00  0.00    +0.000 A 
ATOM     15  N   UNL     1       0.751  13.236  18.622  0.00  0.00    +0.000 NA
ATOM     16  C   UNL     1       1.247  12.011  18.932  0.00  0.00    +0.000 A 
ENDBRANCH   8  11
ENDBRANCH   3   5
BRANCH   2  17
ATOM     17  C   UNL     1       2.873   3.325  20.581  0.00  0.00    +0.000 C 
BRANCH  17  18
ATOM     18  C   UNL     1       3.930   2.657  19.703  0.00  0.00    +0.000 C 
BRANCH  18  19
ATOM     19  C   UNL     1       4.963   3.687  19.255  0.00  0.00    +0.000 C 
BRANCH  19  20
ATOM     20  C   UNL     1       5.071   3.768  17.729  0.00  0.00    +0.000 C 
BRANCH  20  21
ATOM     21  N   UNL     1       6.264   4.512  17.285  0.00  0.00    +0.000 NA
ATOM     22  C   UNL     1       6.069   5.973  17.455  0.00  0.00    +0.000 C 
ATOM     23  C   UNL     1       5.103   6.600  16.430  0.00  0.00    +0.000 C 
ATOM     24  O   UNL     1       5.486   6.302  15.079  0.00  0.00    +0.000 OA
ATOM     25  C   UNL     1       5.609   4.889  14.880  0.00  0.00    +0.000 C 
ATOM     26  C   UNL     1       6.619   4.285  15.865  0.00  0.00    +0.000 C 
ENDBRANCH  20  21
ENDBRANCH  19  20
ENDBRANCH  18  19
ENDBRANCH  17  18
ENDBRANCH   2  17
TORSDOF 7
ENDMDL
MODEL 6
REMARK VINA RESULT:      -7.3      1.935      3.718
REMARK  Name = 
REMARK  7 active torsions:
REMARK  status: ('A' for Active; 'I' for Inactive)
REMARK    1  A    between atoms: C_2  and  C_3
REMARK    2  A    between atoms: C_3  and  C_4
REMARK    3  A    between atoms: C_4  and  C_5
REMARK    4  A    between atoms: C_5  and  C_6
REMARK    5  A    between atoms: C_6  and  N_7
REMARK    6  A    between atoms: N_13  and  C_14
REMARK    7  A    between atoms: C_17  and  C_18
REMARK                            x       y       z     vdW  Elec       q    Type
REMARK                         _______ _______ _______ _____ _____    ______ ____
ROOT
ATOM      1  O   UNL     1       5.372   6.391  18.658  0.00  0.00    +0.000 OA
ATOM      2  C   UNL     1       4.813   6.467  17.570  0.00  0.00    +0.000 C 
ATOM      3  N   UNL     1       3.554   6.995  17.329  0.00  0.00    +0.000 N 
ATOM      4  H   UNL     1       3.144   6.825  16.420  0.00  0.00    +0.000 HD
ENDROOT
BRANCH   3   5
ATOM      5  C   UNL     1       2.742   7.661  18.268  0.00  0.00    +0.000 A 
ATOM      6  C   UNL     1       2.529   7.186  19.557  0.00  0.00    +0.000 A 
ATOM      7  C   UNL     1       1.737   7.904  20.459  0.00  0.00    +0.000 A 
ATOM      8  C   UNL     1       1.140   9.126  20.110  0.00  0.00    +0.000 A 
ATOM      9  C   UNL     1       1.359   9.589  18.802  0.00  0.00    +0.000 A 
ATOM     10  C   UNL     1       2.155   8.872  17.894  0.00  0.00    +0.000 A 
BRANCH   8  11
ATOM     11  C   UNL     1       0.332   9.883  21.090  0.00  0.00    +0.000 A 
ATOM     12  C   UNL     1      -0.464  10.976  20.714  0.00  0.00    +0.000 A 
ATOM     13  C   UNL     1      -1.207  11.682  21.659  0.00  0.00    +0.000 A 
ATOM     14  C   UNL     1      -1.148  11.271  22.977  0.00  0.00    +0.000 A 
ATOM     15  N   UNL     1      -0.407  10.227  23.398  0.00  0.00    +0.000 NA
ATOM     16  C   UNL     1       0.312   9.569  22.452  0.00  0.00    +0.000 A 
ENDBRANCH   8  11
ENDBRANCH   3   5
BRANCH   2  17
ATOM     17  C   UNL     1       5.497   6.011  16.298  0.00  0.00    +0.000 C 
BRANCH  17  18
ATOM     18  C   UNL     1       4.885   4.720  15.755  0.00  0.00    +0.000 C 
BRANCH  18  19
ATOM     19  C   UNL     1       4.922   3.634  16.826  0.00  0.00    +0.000 C 
BRANCH  19  20
ATOM     20  C   UNL     1       3.521   3.129  17.185  0.00  0.00    +0.000 C 
BRANCH  20  21
ATOM     21  N   UNL     1       2.867   3.959  18.213  0.00  0.00    +0.000 NA
ATOM     22  C   UNL     1       3.398   3.645  19.562  0.00  0.00    +0.000 C 
ATOM     23  C   UNL     1       2.919   2.292  20.125  0.00  0.00    +0.000 C 
ATOM     24  O   UNL     1       1.489   2.182  20.115  0.00  0.00    +0.000 OA
ATOM     25  C   UNL     1       0.965   2.412  18.802  0.00  0.00    +0.000 C 
ATOM     26  C   UNL     1       1.397   3.789  18.276  0.00  0.00    +0.000 C 
ENDBRANCH  20  21
ENDBRANCH  19  20
ENDBRANCH  18  19
ENDBRANCH  17  18
ENDBRANCH   2  17
TORSDOF 7
ENDMDL
MODEL 7
REMARK VINA RESULT:      -7.2      2.108      3.876
REMARK  Name = 
REMARK  7 active torsions:
REMARK  status: ('A' for Active; 'I' for Inactive)
REMARK    1  A    between atoms: C_2  and  C_3
REMARK    2  A    between atoms: C_3  and  C_4
REMARK    3  A    between atoms: C_4  and  C_5
REMARK    4  A    between atoms: C_5  and  C_6
REMARK    5  A    between atoms: C_6  and  N_7
REMARK    6  A    between atoms: N_13  and  C_14
REMARK    7  A    between atoms: C_17  and  C_18
REMARK                            x       y       z     vdW  Elec       q    Type
REMARK                         _______ _______ _______ _____ _____    ______ ____
ROOT
ATOM      1  O   UNL     1       5.157   7.177  17.659  0.00  0.00    +0.000 OA
ATOM      2  C   UNL     1       4.527   6.197  18.041  0.00  0.00    +0.000 C 
ATOM      3  N   UNL     1       3.302   6.210  18.691  0.00  0.00    +0.000 N 
ATOM      4  H   UNL     1       2.989   5.345  19.111  0.00  0.00    +0.000 HD
ENDROOT
BRANCH   3   5
ATOM      5  C   UNL     1       2.495   7.343  18.911  0.00  0.00    +0.000 A 
ATOM      6  C   UNL     1       2.168   8.248  17.908  0.00  0.00    +0.000 A 
ATOM      7  C   UNL     1       1.338   9.341  18.176  0.00  0.00    +0.000 A 
ATOM      8  C   UNL     1       0.796   9.563  19.453  0.00  0.00    +0.000 A 
ATOM      9  C   UNL     1       1.141   8.644  20.457  0.00  0.00    +0.000 A 
ATOM     10  C   UNL     1       1.973   7.544  20.192  0.00  0.00    +0.000 A 
BRANCH   8  11
ATOM     11  C   UNL     1      -0.105  10.708  19.705  0.00  0.00    +0.000 A 
ATOM     12  C   UNL     1      -0.696  11.435  18.659  0.00  0.00    +0.000 A 
ATOM     13  C   UNL     1      -1.532  12.519  18.922  0.00  0.00    +0.000 A 
ATOM     14  C   UNL     1      -1.774  12.854  20.241  0.00  0.00    +0.000 A 
ATOM     15  N   UNL     1      -1.239  12.192  21.286  0.00  0.00    +0.000 NA
ATOM     16  C   UNL     1      -0.422  11.148  20.994  0.00  0.00    +0.000 A 
ENDBRANCH   8  11
ENDBRANCH   3   5
BRANCH   2  17
ATOM     17  C   UNL     1       5.026   4.790  17.786  0.00  0.00    +0.000 C 
BRANCH  17  18
ATOM     18  C   UNL     1       4.045   3.984  16.937  0.00  0.00    +0.000 C 
BRANCH  18  19
ATOM     19  C   UNL     1       3.723   2.661  17.625  0.00  0.00    +0.000 C 
BRANCH  19  20
ATOM     20  C   UNL     1       3.941   2.731  19.140  0.00  0.00    +0.000 C 
BRANCH  20  21
ATOM     21  N   UNL     1       2.857   2.081  19.898  0.00  0.00    +0.000 NA
ATOM     22  C   UNL     1       1.549   2.280  19.227  0.00  0.00    +0.000 C 
ATOM     23  C   UNL     1       0.991   3.712  19.353  0.00  0.00    +0.000 C 
ATOM     24  O   UNL     1       0.920   4.142  20.720  0.00  0.00    +0.000 OA
ATOM     25  C   UNL     1       2.194   4.023  21.363  0.00  0.00    +0.000 C 
ATOM     26  C   UNL     1       2.712   2.579  21.285  0.00  0.00    +0.000 C 
ENDBRANCH  20  21
ENDBRANCH  19  20
ENDBRANCH  18  19
ENDBRANCH  17  18
ENDBRANCH   2  17
TORSDOF 7
ENDMDL
MODEL 8
REMARK VINA RESULT:      -7.1      1.779      3.549
REMARK  Name = 
REMARK  7 active torsions:
REMARK  status: ('A' for Active; 'I' for Inactive)
REMARK    1  A    between atoms: C_2  and  C_3
REMARK    2  A    between atoms: C_3  and  C_4
REMARK    3  A    between atoms: C_4  and  C_5
REMARK    4  A    between atoms: C_5  and  C_6
REMARK    5  A    between atoms: C_6  and  N_7
REMARK    6  A    between atoms: N_13  and  C_14
REMARK    7  A    between atoms: C_17  and  C_18
REMARK                            x       y       z     vdW  Elec       q    Type
REMARK                         _______ _______ _______ _____ _____    ______ ____
ROOT
ATOM      1  O   UNL     1       5.558   7.833  17.598  0.00  0.00    +0.000 OA
ATOM      2  C   UNL     1       4.801   7.121  16.947  0.00  0.00    +0.000 C 
ATOM      3  N   UNL     1       3.451   6.919  17.191  0.00  0.00    +0.000 N 
ATOM      4  H   UNL     1       2.995   6.168  16.690  0.00  0.00    +0.000 HD
ENDROOT
BRANCH   3   5
ATOM      5  C   UNL     1       2.674   7.596  18.151  0.00  0.00    +0.000 A 
ATOM      6  C   UNL     1       2.475   7.117  19.441  0.00  0.00    +0.000 A 
ATOM      7  C   UNL     1       1.718   7.845  20.364  0.00  0.00    +0.000 A 
ATOM      8  C   UNL     1       1.142   9.084  20.035  0.00  0.00    +0.000 A 
ATOM      9  C   UNL     1       1.346   9.551  18.726  0.00  0.00    +0.000 A 
ATOM     10  C   UNL     1       2.108   8.824  17.797  0.00  0.00    +0.000 A 
BRANCH   8  11
ATOM     11  C   UNL     1       0.371   9.851  21.037  0.00  0.00    +0.000 A 
ATOM     12  C   UNL     1       0.020   9.307  22.283  0.00  0.00    +0.000 A 
ATOM     13  C   UNL     1      -0.718  10.045  23.206  0.00  0.00    +0.000 A 
ATOM     14  C   UNL     1      -1.087  11.334  22.868  0.00  0.00    +0.000 A 
ATOM     15  N   UNL     1      -0.775  11.912  21.691  0.00  0.00    +0.000 NA
ATOM     16  C   UNL     1      -0.065  11.160  20.811  0.00  0.00    +0.000 A 
ENDBRANCH   8  11
ENDBRANCH   3   5
BRANCH   2  17
ATOM     17  C   UNL     1       5.276   6.388  15.711  0.00  0.00    +0.000 C 
BRANCH  17  18
ATOM     18  C   UNL     1       6.430   5.436  16.023  0.00  0.00    +0.000 C 
BRANCH  18  19
ATOM     19  C   UNL     1       6.062   4.539  17.202  0.00  0.00    +0.000 C 
BRANCH  19  20
ATOM     20  C   UNL     1       4.798   3.717  16.929  0.00  0.00    +0.000 C 
BRANCH  20  21
ATOM     21  N   UNL     1       3.685   4.076  17.825  0.00  0.00    +0.000 NA
ATOM     22  C   UNL     1       4.022   3.770  19.237  0.00  0.00    +0.000 C 
ATOM     23  C   UNL     1       4.012   2.265  19.571  0.00  0.00    +0.000 C 
ATOM     24  O   UNL     1       2.770   1.643  19.209  0.00  0.00    +0.000 OA
ATOM     25  C   UNL     1       2.466   1.870  17.828  0.00  0.00    +0.000 C 
ATOM     26  C   UNL     1       2.418   3.374  17.520  0.00  0.00    +0.000 C 
ENDBRANCH  20  21
ENDBRANCH  19  20
ENDBRANCH  18  19
ENDBRANCH  17  18
ENDBRANCH   2  17
TORSDOF 7
ENDMDL
MODEL 9
REMARK VINA RESULT:      -7.1      1.882      2.520
REMARK  Name = 
REMARK  7 active torsions:
REMARK  status: ('A' for Active; 'I' for Inactive)
REMARK    1  A    between atoms: C_2  and  C_3
REMARK    2  A    between atoms: C_3  and  C_4
REMARK    3  A    between atoms: C_4  and  C_5
REMARK    4  A    between atoms: C_5  and  C_6
REMARK    5  A    between atoms: C_6  and  N_7
REMARK    6  A    between atoms: N_13  and  C_14
REMARK    7  A    between atoms: C_17  and  C_18
REMARK                            x       y       z     vdW  Elec       q    Type
REMARK                         _______ _______ _______ _____ _____    ______ ____
ROOT
ATOM      1  O   UNL     1       1.178   4.420  19.114  0.00  0.00    +0.000 OA
ATOM      2  C   UNL     1       2.252   4.583  19.682  0.00  0.00    +0.000 C 
ATOM      3  N   UNL     1       2.843   5.800  19.988  0.00  0.00    +0.000 N 
ATOM      4  H   UNL     1       3.809   5.785  20.288  0.00  0.00    +0.000 HD
ENDROOT
BRANCH   3   5
ATOM      5  C   UNL     1       2.256   7.069  19.823  0.00  0.00    +0.000 A 
ATOM      6  C   UNL     1       2.335   7.792  18.638  0.00  0.00    +0.000 A 
ATOM      7  C   UNL     1       1.707   9.036  18.518  0.00  0.00    +0.000 A 
ATOM      8  C   UNL     1       0.970   9.597  19.574  0.00  0.00    +0.000 A 
ATOM      9  C   UNL     1       0.905   8.858  20.767  0.00  0.00    +0.000 A 
ATOM     10  C   UNL     1       1.532   7.607  20.890  0.00  0.00    +0.000 A 
BRANCH   8  11
ATOM     11  C   UNL     1       0.289  10.900  19.414  0.00  0.00    +0.000 A 
ATOM     12  C   UNL     1      -0.969  11.158  19.984  0.00  0.00    +0.000 A 
ATOM     13  C   UNL     1      -1.597  12.389  19.808  0.00  0.00    +0.000 A 
ATOM     14  C   UNL     1      -0.945  13.357  19.067  0.00  0.00    +0.000 A 
ATOM     15  N   UNL     1       0.264  13.170  18.501  0.00  0.00    +0.000 NA
ATOM     16  C   UNL     1       0.842  11.955  18.683  0.00  0.00    +0.000 A 
ENDBRANCH   8  11
ENDBRANCH   3   5
BRANCH   2  17
ATOM     17  C   UNL     1       3.068   3.408  20.179  0.00  0.00    +0.000 C 
BRANCH  17  18
ATOM     18  C   UNL     1       3.865   2.753  19.052  0.00  0.00    +0.000 C 
BRANCH  18  19
ATOM     19  C   UNL     1       4.862   3.751  18.469  0.00  0.00    +0.000 C 
BRANCH  19  20
ATOM     20  C   UNL     1       4.876   3.723  16.937  0.00  0.00    +0.000 C 
BRANCH  20  21
ATOM     21  N   UNL     1       4.849   5.074  16.347  0.00  0.00    +0.000 NA
ATOM     22  C   UNL     1       5.441   5.068  14.987  0.00  0.00    +0.000 C 
ATOM     23  C   UNL     1       6.976   4.921  14.972  0.00  0.00    +0.000 C 
ATOM     24  O   UNL     1       7.618   5.910  15.790  0.00  0.00    +0.000 OA
ATOM     25  C   UNL     1       7.106   5.880  17.128  0.00  0.00    +0.000 C 
ATOM     26  C   UNL     1       5.585   6.088  17.135  0.00  0.00    +0.000 C 
ENDBRANCH  20  21
ENDBRANCH  19  20
ENDBRANCH  18  19
ENDBRANCH  17  18
ENDBRANCH   2  17
TORSDOF 7
ENDMDL
