MODEL 1
REMARK VINA RESULT:      -6.0      0.000      0.000
REMARK  Name = 
REMARK  7 active torsions:
REMARK  status: ('A' for Active; 'I' for Inactive)
REMARK    1  A    between atoms: C_2  and  O_3
REMARK    2  A    between atoms: C_2  and  C_4
REMARK    3  A    between atoms: C_7  and  N_8
REMARK    4  A    between atoms: N_8  and  C_9
REMARK    5  A    between atoms: N_8  and  C_12
REMARK    6  A    between atoms: C_9  and  C_10
REMARK    7  A    between atoms: C_12  and  C_13
REMARK                            x       y       z     vdW  Elec       q    Type
REMARK                         _______ _______ _______ _____ _____    ______ ____
ROOT
ATOM      1  C   UNL     1       2.120   3.782  18.672  0.00  0.00    +0.000 A 
ATOM      2  C   UNL     1       2.635   3.328  17.455  0.00  0.00    +0.000 A 
ATOM      3  C   UNL     1       3.842   3.847  16.957  0.00  0.00    +0.000 A 
ATOM      4  C   UNL     1       4.578   4.820  17.651  0.00  0.00    +0.000 A 
ATOM      5  C   UNL     1       4.016   5.269  18.863  0.00  0.00    +0.000 A 
ATOM      6  C   UNL     1       2.823   4.750  19.383  0.00  0.00    +0.000 A 
ENDROOT
BRANCH   1   8
ATOM      7  O   UNL     1       0.284   2.280  18.614  0.00  0.00    +0.000 OA
ATOM      8  C   UNL     1       0.873   3.173  19.194  0.00  0.00    +0.000 C 
BRANCH   8   9
ATOM      9  O   UNL     1       0.440   3.721  20.350  0.00  0.00    +0.000 OA
ATOM     10  H   UNL     1      -0.378   4.245  20.278  0.00  0.00    +0.000 HD
ENDBRANCH   8   9
ENDBRANCH   1   8
BRANCH   4  11
ATOM     11  N   UNL     1       5.810   5.281  17.203  0.00  0.00    +0.000 N 
BRANCH  11  12
ATOM     12  C   UNL     1       6.745   4.422  16.444  0.00  0.00    +0.000 C 
BRANCH  12  13
ATOM     13  C   UNL     1       6.940   4.846  14.984  0.00  0.00    +0.000 C 
ATOM     14 CL   UNL     1       6.054   3.802  13.841  0.00  0.00    +0.000 Cl
ENDBRANCH  12  13
ENDBRANCH  11  12
BRANCH  11  15
ATOM     15  C   UNL     1       6.182   6.709  17.328  0.00  0.00    +0.000 C 
BRANCH  15  16
ATOM     16  C   UNL     1       7.545   6.889  18.007  0.00  0.00    +0.000 C 
ATOM     17 CL   UNL     1       8.086   8.582  17.886  0.00  0.00    +0.000 Cl
ENDBRANCH  15  16
ENDBRANCH  11  15
ENDBRANCH   4  11
TORSDOF 7
ENDMDL
MODEL 2
REMARK VINA RESULT:      -5.9      0.813      2.956
REMARK  Name = 
REMARK  7 active torsions:
REMARK  status: ('A' for Active; 'I' for Inactive)
REMARK    1  A    between atoms: C_2  and  O_3
REMARK    2  A    between atoms: C_2  and  C_4
REMARK    3  A    between atoms: C_7  and  N_8
REMARK    4  A    between atoms: N_8  and  C_9
REMARK    5  A    between atoms: N_8  and  C_12
REMARK    6  A    between atoms: C_9  and  C_10
REMARK    7  A    between atoms: C_12  and  C_13
REMARK                            x       y       z     vdW  Elec       q    Type
REMARK                         _______ _______ _______ _____ _____    ______ ____
ROOT
ATOM      1  C   UNL     1       2.018   3.609  18.437  0.00  0.00    +0.000 A 
ATOM      2  C   UNL     1       2.991   2.713  17.987  0.00  0.00    +0.000 A 
ATOM      3  C   UNL     1       4.128   3.182  17.308  0.00  0.00    +0.000 A 
ATOM      4  C   UNL     1       4.339   4.547  17.064  0.00  0.00    +0.000 A 
ATOM      5  C   UNL     1       3.326   5.418  17.513  0.00  0.00    +0.000 A 
ATOM      6  C   UNL     1       2.195   4.969  18.206  0.00  0.00    +0.000 A 
ENDROOT
BRANCH   1   8
ATOM      7  O   UNL     1       0.047   2.316  18.716  0.00  0.00    +0.000 OA
ATOM      8  C   UNL     1       0.859   3.084  19.199  0.00  0.00    +0.000 C 
BRANCH   8   9
ATOM      9  O   UNL     1       0.773   3.561  20.459  0.00  0.00    +0.000 OA
ATOM     10  H   UNL     1      -0.081   3.969  20.690  0.00  0.00    +0.000 HD
ENDBRANCH   8   9
ENDBRANCH   1   8
BRANCH   4  11
ATOM     11  N   UNL     1       5.498   5.025  16.462  0.00  0.00    +0.000 N 
BRANCH  11  12
ATOM     12  C   UNL     1       6.017   6.386  16.718  0.00  0.00    +0.000 C 
BRANCH  12  13
ATOM     13  C   UNL     1       7.168   6.438  17.728  0.00  0.00    +0.000 C 
ATOM     14 CL   UNL     1       7.917   8.053  17.835  0.00  0.00    +0.000 Cl
ENDBRANCH  12  13
ENDBRANCH  11  12
BRANCH  11  15
ATOM     15  C   UNL     1       6.360   4.134  15.653  0.00  0.00    +0.000 C 
BRANCH  15  16
ATOM     16  C   UNL     1       6.696   4.747  14.287  0.00  0.00    +0.000 C 
ATOM     17 CL   UNL     1       6.262   3.623  12.973  0.00  0.00    +0.000 Cl
ENDBRANCH  15  16
ENDBRANCH  11  15
ENDBRANCH   4  11
TORSDOF 7
ENDMDL
MODEL 3
REMARK VINA RESULT:      -5.8      1.335      1.744
REMARK  Name = 
REMARK  7 active torsions:
REMARK  status: ('A' for Active; 'I' for Inactive)
REMARK    1  A    between atoms: C_2  and  O_3
REMARK    2  A    between atoms: C_2  and  C_4
REMARK    3  A    between atoms: C_7  and  N_8
REMARK    4  A    between atoms: N_8  and  C_9
REMARK    5  A    between atoms: N_8  and  C_12
REMARK    6  A    between atoms: C_9  and  C_10
REMARK    7  A    between atoms: C_12  and  C_13
REMARK                            x       y       z     vdW  Elec       q    Type
REMARK                         _______ _______ _______ _____ _____    ______ ____
ROOT
ATOM      1  C   UNL     1       2.632   3.588  19.757  0.00  0.00    +0.000 A 
ATOM      2  C   UNL     1       3.961   3.177  19.883  0.00  0.00    +0.000 A 
ATOM      3  C   UNL     1       4.893   3.467  18.873  0.00  0.00    +0.000 A 
ATOM      4  C   UNL     1       4.540   4.179  17.716  0.00  0.00    +0.000 A 
ATOM      5  C   UNL     1       3.186   4.558  17.615  0.00  0.00    +0.000 A 
ATOM      6  C   UNL     1       2.248   4.292  18.620  0.00  0.00    +0.000 A 
ENDROOT
BRANCH   1   8
ATOM      7  O   UNL     1       2.056   3.133  22.014  0.00  0.00    +0.000 OA
ATOM      8  C   UNL     1       1.688   3.314  20.868  0.00  0.00    +0.000 C 
BRANCH   8   9
ATOM      9  O   UNL     1       0.395   3.252  20.484  0.00  0.00    +0.000 OA
ATOM     10  H   UNL     1       0.143   3.873  19.777  0.00  0.00    +0.000 HD
ENDBRANCH   8   9
ENDBRANCH   1   8
BRANCH   4  11
ATOM     11  N   UNL     1       5.472   4.537  16.749  0.00  0.00    +0.000 N 
BRANCH  11  12
ATOM     12  C   UNL     1       5.266   4.255  15.312  0.00  0.00    +0.000 C 
BRANCH  12  13
ATOM     13  C   UNL     1       6.542   4.336  14.468  0.00  0.00    +0.000 C 
ATOM     14 CL   UNL     1       6.329   3.658  12.832  0.00  0.00    +0.000 Cl
ENDBRANCH  12  13
ENDBRANCH  11  12
BRANCH  11  15
ATOM     15  C   UNL     1       6.651   5.364  17.094  0.00  0.00    +0.000 C 
BRANCH  15  16
ATOM     16  C   UNL     1       6.270   6.829  17.341  0.00  0.00    +0.000 C 
ATOM     17 CL   UNL     1       7.730   7.828  17.559  0.00  0.00    +0.000 Cl
ENDBRANCH  15  16
ENDBRANCH  11  15
ENDBRANCH   4  11
TORSDOF 7
ENDMDL
MODEL 4
REMARK VINA RESULT:      -5.8      3.967      5.969
REMARK  Name = 
REMARK  7 active torsions:
REMARK  status: ('A' for Active; 'I' for Inactive)
REMARK    1  A    between atoms: C_2  and  O_3
REMARK    2  A    between atoms: C_2  and  C_4
REMARK    3  A    between atoms: C_7  and  N_8
REMARK    4  A    between atoms: N_8  and  C_9
REMARK    5  A    between atoms: N_8  and  C_12
REMARK    6  A    between atoms: C_9  and  C_10
REMARK    7  A    between atoms: C_12  and  C_13
REMARK                            x       y       z     vdW  Elec       q    Type
REMARK                         _______ _______ _______ _____ _____    ______ ____
ROOT
ATOM      1  C   UNL     1       6.051   4.305  16.173  0.00  0.00    +0.000 A 
ATOM      2  C   UNL     1       4.770   3.756  16.080  0.00  0.00    +0.000 A 
ATOM      3  C   UNL     1       3.969   3.625  17.226  0.00  0.00    +0.000 A 
ATOM      4  C   UNL     1       4.407   4.041  18.493  0.00  0.00    +0.000 A 
ATOM      5  C   UNL     1       5.712   4.570  18.550  0.00  0.00    +0.000 A 
ATOM      6  C   UNL     1       6.517   4.723  17.415  0.00  0.00    +0.000 A 
ENDROOT
BRANCH   1   8
ATOM      7  O   UNL     1       7.696   5.344  14.813  0.00  0.00    +0.000 OA
ATOM      8  C   UNL     1       6.848   4.480  14.934  0.00  0.00    +0.000 C 
BRANCH   8   9
ATOM      9  O   UNL     1       6.523   3.615  13.949  0.00  0.00    +0.000 OA
ATOM     10  H   UNL     1       5.722   3.085  14.111  0.00  0.00    +0.000 HD
ENDBRANCH   8   9
ENDBRANCH   1   8
BRANCH   4  11
ATOM     11  N   UNL     1       3.591   3.986  19.617  0.00  0.00    +0.000 N 
BRANCH  11  12
ATOM     12  C   UNL     1       2.951   5.191  20.187  0.00  0.00    +0.000 C 
BRANCH  12  13
ATOM     13  C   UNL     1       2.112   5.989  19.183  0.00  0.00    +0.000 C 
ATOM     14 CL   UNL     1       3.071   7.207  18.299  0.00  0.00    +0.000 Cl
ENDBRANCH  12  13
ENDBRANCH  11  12
BRANCH  11  15
ATOM     15  C   UNL     1       3.194   2.688  20.209  0.00  0.00    +0.000 C 
BRANCH  15  16
ATOM     16  C   UNL     1       1.676   2.588  20.404  0.00  0.00    +0.000 C 
ATOM     17 CL   UNL     1       0.848   2.483  18.829  0.00  0.00    +0.000 Cl
ENDBRANCH  15  16
ENDBRANCH  11  15
ENDBRANCH   4  11
TORSDOF 7
ENDMDL
MODEL 5
REMARK VINA RESULT:      -5.8      1.340      3.214
REMARK  Name = 
REMARK  7 active torsions:
REMARK  status: ('A' for Active; 'I' for Inactive)
REMARK    1  A    between atoms: C_2  and  O_3
REMARK    2  A    between atoms: C_2  and  C_4
REMARK    3  A    between atoms: C_7  and  N_8
REMARK    4  A    between atoms: N_8  and  C_9
REMARK    5  A    between atoms: N_8  and  C_12
REMARK    6  A    between atoms: C_9  and  C_10
REMARK    7  A    between atoms: C_12  and  C_13
REMARK                            x       y       z     vdW  Elec       q    Type
REMARK                         _______ _______ _______ _____ _____    ______ ____
ROOT
ATOM      1  C   UNL     1       2.679   3.701  20.044  0.00  0.00    +0.000 A 
ATOM      2  C   UNL     1       3.155   5.013  20.120  0.00  0.00    +0.000 A 
ATOM      3  C   UNL     1       4.078   5.489  19.176  0.00  0.00    +0.000 A 
ATOM      4  C   UNL     1       4.549   4.686  18.125  0.00  0.00    +0.000 A 
ATOM      5  C   UNL     1       4.063   3.364  18.094  0.00  0.00    +0.000 A 
ATOM      6  C   UNL     1       3.129   2.879  19.017  0.00  0.00    +0.000 A 
ENDROOT
BRANCH   1   8
ATOM      7  O   UNL     1       1.936   2.980  22.180  0.00  0.00    +0.000 OA
ATOM      8  C   UNL     1       1.662   3.250  21.025  0.00  0.00    +0.000 C 
BRANCH   8   9
ATOM      9  O   UNL     1       0.419   3.138  20.512  0.00  0.00    +0.000 OA
ATOM     10  H   UNL     1       0.206   2.268  20.128  0.00  0.00    +0.000 HD
ENDBRANCH   8   9
ENDBRANCH   1   8
BRANCH   4  11
ATOM     11  N   UNL     1       5.403   5.174  17.141  0.00  0.00    +0.000 N 
BRANCH  11  12
ATOM     12  C   UNL     1       5.827   6.590  17.096  0.00  0.00    +0.000 C 
BRANCH  12  13
ATOM     13  C   UNL     1       7.315   6.809  17.390  0.00  0.00    +0.000 C 
ATOM     14 CL   UNL     1       7.821   6.099  18.947  0.00  0.00    +0.000 Cl
ENDBRANCH  12  13
ENDBRANCH  11  12
BRANCH  11  15
ATOM     15  C   UNL     1       6.059   4.260  16.179  0.00  0.00    +0.000 C 
BRANCH  15  16
ATOM     16  C   UNL     1       5.495   4.419  14.762  0.00  0.00    +0.000 C 
ATOM     17 CL   UNL     1       6.807   4.362  13.556  0.00  0.00    +0.000 Cl
ENDBRANCH  15  16
ENDBRANCH  11  15
ENDBRANCH   4  11
TORSDOF 7
ENDMDL
MODEL 6
REMARK VINA RESULT:      -5.8      1.825      2.230
REMARK  Name = 
REMARK  7 active torsions:
REMARK  status: ('A' for Active; 'I' for Inactive)
REMARK    1  A    between atoms: C_2  and  O_3
REMARK    2  A    between atoms: C_2  and  C_4
REMARK    3  A    between atoms: C_7  and  N_8
REMARK    4  A    between atoms: N_8  and  C_9
REMARK    5  A    between atoms: N_8  and  C_12
REMARK    6  A    between atoms: C_9  and  C_10
REMARK    7  A    between atoms: C_12  and  C_13
REMARK                            x       y       z     vdW  Elec       q    Type
REMARK                         _______ _______ _______ _____ _____    ______ ____
ROOT
ATOM      1  C   UNL     1       2.643   3.294  19.687  0.00  0.00    +0.000 A 
ATOM      2  C   UNL     1       4.032   3.370  19.824  0.00  0.00    +0.000 A 
ATOM      3  C   UNL     1       4.832   3.762  18.737  0.00  0.00    +0.000 A 
ATOM      4  C   UNL     1       4.281   4.099  17.491  0.00  0.00    +0.000 A 
ATOM      5  C   UNL     1       2.880   3.990  17.386  0.00  0.00    +0.000 A 
ATOM      6  C   UNL     1       2.067   3.617  18.463  0.00  0.00    +0.000 A 
ENDROOT
BRANCH   1   8
ATOM      7  O   UNL     1       2.318   2.576  21.926  0.00  0.00    +0.000 OA
ATOM      8  C   UNL     1       1.826   2.931  20.870  0.00  0.00    +0.000 C 
BRANCH   8   9
ATOM      9  O   UNL     1       0.495   3.001  20.657  0.00  0.00    +0.000 OA
ATOM     10  H   UNL     1      -0.034   3.275  21.428  0.00  0.00    +0.000 HD
ENDBRANCH   8   9
ENDBRANCH   1   8
BRANCH   4  11
ATOM     11  N   UNL     1       5.059   4.562  16.435  0.00  0.00    +0.000 N 
BRANCH  11  12
ATOM     12  C   UNL     1       5.816   3.648  15.554  0.00  0.00    +0.000 C 
BRANCH  12  13
ATOM     13  C   UNL     1       6.463   4.334  14.346  0.00  0.00    +0.000 C 
ATOM     14 CL   UNL     1       6.087   3.515  12.806  0.00  0.00    +0.000 Cl
ENDBRANCH  12  13
ENDBRANCH  11  12
BRANCH  11  15
ATOM     15  C   UNL     1       5.039   5.989  16.042  0.00  0.00    +0.000 C 
BRANCH  15  16
ATOM     16  C   UNL     1       5.102   6.919  17.259  0.00  0.00    +0.000 C 
ATOM     17 CL   UNL     1       3.482   7.556  17.645  0.00  0.00    +0.000 Cl
ENDBRANCH  15  16
ENDBRANCH  11  15
ENDBRANCH   4  11
TORSDOF 7
ENDMDL
MODEL 7
REMARK VINA RESULT:      -5.7      4.131      5.661
REMARK  Name = 
REMARK  7 active torsions:
REMARK  status: ('A' for Active; 'I' for Inactive)
REMARK    1  A    between atoms: C_2  and  O_3
REMARK    2  A    between atoms: C_2  and  C_4
REMARK    3  A    between atoms: C_7  and  N_8
REMARK    4  A    between atoms: N_8  and  C_9
REMARK    5  A    between atoms: N_8  and  C_12
REMARK    6  A    between atoms: C_9  and  C_10
REMARK    7  A    between atoms: C_12  and  C_13
REMARK                            x       y       z     vdW  Elec       q    Type
REMARK                         _______ _______ _______ _____ _____    ______ ____
ROOT
ATOM      1  C   UNL     1       6.505   4.616  15.371  0.00  0.00    +0.000 A 
ATOM      2  C   UNL     1       5.159   4.244  15.333  0.00  0.00    +0.000 A 
ATOM      3  C   UNL     1       4.441   4.050  16.524  0.00  0.00    +0.000 A 
ATOM      4  C   UNL     1       5.030   4.227  17.786  0.00  0.00    +0.000 A 
ATOM      5  C   UNL     1       6.394   4.581  17.785  0.00  0.00    +0.000 A 
ATOM      6  C   UNL     1       7.120   4.796  16.606  0.00  0.00    +0.000 A 
ENDROOT
BRANCH   1   8
ATOM      7  O   UNL     1       8.126   5.670  13.994  0.00  0.00    +0.000 OA
ATOM      8  C   UNL     1       7.216   4.867  14.095  0.00  0.00    +0.000 C 
BRANCH   8   9
ATOM      9  O   UNL     1       6.742   4.148  13.055  0.00  0.00    +0.000 OA
ATOM     10  H   UNL     1       6.727   3.184  13.191  0.00  0.00    +0.000 HD
ENDBRANCH   8   9
ENDBRANCH   1   8
BRANCH   4  11
ATOM     11  N   UNL     1       4.307   4.112  18.968  0.00  0.00    +0.000 N 
BRANCH  11  12
ATOM     12  C   UNL     1       4.093   2.812  19.638  0.00  0.00    +0.000 C 
BRANCH  12  13
ATOM     13  C   UNL     1       3.209   1.838  18.850  0.00  0.00    +0.000 C 
ATOM     14 CL   UNL     1       1.485   2.295  18.880  0.00  0.00    +0.000 Cl
ENDBRANCH  12  13
ENDBRANCH  11  12
BRANCH  11  15
ATOM     15  C   UNL     1       3.848   5.314  19.700  0.00  0.00    +0.000 C 
BRANCH  15  16
ATOM     16  C   UNL     1       2.611   5.944  19.049  0.00  0.00    +0.000 C 
ATOM     17 CL   UNL     1       3.085   7.273  17.960  0.00  0.00    +0.000 Cl
ENDBRANCH  15  16
ENDBRANCH  11  15
ENDBRANCH   4  11
TORSDOF 7
ENDMDL
MODEL 8
REMARK VINA RESULT:      -5.7      1.567      3.104
REMARK  Name = 
REMARK  7 active torsions:
REMARK  status: ('A' for Active; 'I' for Inactive)
REMARK    1  A    between atoms: C_2  and  O_3
REMARK    2  A    between atoms: C_2  and  C_4
REMARK    3  A    between atoms: C_7  and  N_8
REMARK    4  A    between atoms: N_8  and  C_9
REMARK    5  A    between atoms: N_8  and  C_12
REMARK    6  A    between atoms: C_9  and  C_10
REMARK    7  A    between atoms: C_12  and  C_13
REMARK                            x       y       z     vdW  Elec       q    Type
REMARK                         _______ _______ _______ _____ _____    ______ ____
ROOT
ATOM      1  C   UNL     1       2.757   3.372  19.811  0.00  0.00    +0.000 A 
ATOM      2  C   UNL     1       4.153   3.300  19.820  0.00  0.00    +0.000 A 
ATOM      3  C   UNL     1       4.892   3.701  18.695  0.00  0.00    +0.000 A 
ATOM      4  C   UNL     1       4.274   4.194  17.535  0.00  0.00    +0.000 A 
ATOM      5  C   UNL     1       2.866   4.231  17.555  0.00  0.00    +0.000 A 
ATOM      6  C   UNL     1       2.114   3.851  18.674  0.00  0.00    +0.000 A 
ENDROOT
BRANCH   1   8
ATOM      7  O   UNL     1       2.566   2.637  22.059  0.00  0.00    +0.000 OA
ATOM      8  C   UNL     1       2.012   2.993  21.035  0.00  0.00    +0.000 C 
BRANCH   8   9
ATOM      9  O   UNL     1       0.670   3.048  20.898  0.00  0.00    +0.000 OA
ATOM     10  H   UNL     1       0.165   2.978  21.728  0.00  0.00    +0.000 HD
ENDBRANCH   8   9
ENDBRANCH   1   8
BRANCH   4  11
ATOM     11  N   UNL     1       5.002   4.665  16.448  0.00  0.00    +0.000 N 
BRANCH  11  12
ATOM     12  C   UNL     1       5.099   6.106  16.129  0.00  0.00    +0.000 C 
BRANCH  12  13
ATOM     13  C   UNL     1       5.658   6.964  17.269  0.00  0.00    +0.000 C 
ATOM     14 CL   UNL     1       7.440   7.050  17.256  0.00  0.00    +0.000 Cl
ENDBRANCH  12  13
ENDBRANCH  11  12
BRANCH  11  15
ATOM     15  C   UNL     1       5.849   3.755  15.644  0.00  0.00    +0.000 C 
BRANCH  15  16
ATOM     16  C   UNL     1       5.848   4.135  14.158  0.00  0.00    +0.000 C 
ATOM     17 CL   UNL     1       7.391   4.906  13.709  0.00  0.00    +0.000 Cl
ENDBRANCH  15  16
ENDBRANCH  11  15
ENDBRANCH   4  11
TORSDOF 7
ENDMDL
MODEL 9
REMARK VINA RESULT:      -5.7      1.731      2.850
REMARK  Name = 
REMARK  7 active torsions:
REMARK  status: ('A' for Active; 'I' for Inactive)
REMARK    1  A    between atoms: C_2  and  O_3
REMARK    2  A    between atoms: C_2  and  C_4
REMARK    3  A    between atoms: C_7  and  N_8
REMARK    4  A    between atoms: N_8  and  C_9
REMARK    5  A    between atoms: N_8  and  C_12
REMARK    6  A    between atoms: C_9  and  C_10
REMARK    7  A    between atoms: C_12  and  C_13
REMARK                            x       y       z     vdW  Elec       q    Type
REMARK                         _______ _______ _______ _____ _____    ______ ____
ROOT
ATOM      1  C   UNL     1       2.513   3.574  19.851  0.00  0.00    +0.000 A 
ATOM      2  C   UNL     1       3.866   3.242  19.750  0.00  0.00    +0.000 A 
ATOM      3  C   UNL     1       4.621   3.666  18.644  0.00  0.00    +0.000 A 
ATOM      4  C   UNL     1       4.062   4.437  17.613  0.00  0.00    +0.000 A 
ATOM      5  C   UNL     1       2.690   4.733  17.739  0.00  0.00    +0.000 A 
ATOM      6  C   UNL     1       1.927   4.333  18.843  0.00  0.00    +0.000 A 
ENDROOT
BRANCH   1   8
ATOM      7  O   UNL     1       2.288   3.022  22.149  0.00  0.00    +0.000 OA
ATOM      8  C   UNL     1       1.761   3.157  21.060  0.00  0.00    +0.000 C 
BRANCH   8   9
ATOM      9  O   UNL     1       0.453   2.912  20.832  0.00  0.00    +0.000 OA
ATOM     10  H   UNL     1      -0.116   2.934  21.623  0.00  0.00    +0.000 HD
ENDBRANCH   8   9
ENDBRANCH   1   8
BRANCH   4  11
ATOM     11  N   UNL     1       4.820   4.926  16.554  0.00  0.00    +0.000 N 
BRANCH  11  12
ATOM     12  C   UNL     1       4.966   6.373  16.292  0.00  0.00    +0.000 C 
BRANCH  12  13
ATOM     13  C   UNL     1       5.439   7.185  17.502  0.00  0.00    +0.000 C 
ATOM     14 CL   UNL     1       7.133   7.723  17.351  0.00  0.00    +0.000 Cl
ENDBRANCH  12  13
ENDBRANCH  11  12
BRANCH  11  15
ATOM     15  C   UNL     1       5.650   4.020  15.729  0.00  0.00    +0.000 C 
BRANCH  15  16
ATOM     16  C   UNL     1       7.127   4.433  15.734  0.00  0.00    +0.000 C 
ATOM     17 CL   UNL     1       7.788   4.376  17.388  0.00  0.00    +0.000 Cl
ENDBRANCH  15  16
ENDBRANCH  11  15
ENDBRANCH   4  11
TORSDOF 7
ENDMDL
