MODEL 1
REMARK VINA RESULT:      -7.4      0.000      0.000
REMARK  Name = 
REMARK  10 active torsions:
REMARK  status: ('A' for Active; 'I' for Inactive)
REMARK    1  A    between atoms: O_1  and  C_2
REMARK    2  A    between atoms: C_5  and  C_6
REMARK    3  A    between atoms: C_6  and  C_7
REMARK    4  A    between atoms: C_7  and  C_8
REMARK    5  A    between atoms: C_12  and  C_13
REMARK    6  A    between atoms: C_13  and  C_14
REMARK    7  A    between atoms: C_14  and  C_15
REMARK    8  A    between atoms: C_18  and  O_19
REMARK    9  A    between atoms: O_19  and  C_20
REMARK   10  A    between atoms: C_20  and  C_21
REMARK                            x       y       z     vdW  Elec       q    Type
REMARK                         _______ _______ _______ _____ _____    ______ ____
ROOT
ATOM      1  C   UNL     1       2.329   3.501  20.149  0.00  0.00    +0.000 C 
ATOM      2  C   UNL     1       1.088   3.479  19.217  0.00  0.00    +0.000 C 
ATOM      3  C   UNL     1       1.437   3.698  17.741  0.00  0.00    +0.000 C 
ATOM      4  C   UNL     1       2.475   2.646  17.308  0.00  0.00    +0.000 C 
ATOM      5  C   UNL     1       3.746   2.742  18.173  0.00  0.00    +0.000 C 
ATOM      6  N   UNL     1       3.381   2.607  19.609  0.00  0.00    +0.000 NA
ATOM      7  H   UNL     1       4.215   2.545  20.236  0.00  0.00    +0.000 HD
ENDROOT
BRANCH   1   8
ATOM      8  C   UNL     1       2.902   4.894  20.538  0.00  0.00    +0.000 C 
BRANCH   8   9
ATOM      9  C   UNL     1       1.854   5.948  20.925  0.00  0.00    +0.000 C 
BRANCH   9  13
ATOM     10  C   UNL     1       1.965   9.299  18.172  0.00  0.00    +0.000 A 
ATOM     11  C   UNL     1       2.578   8.086  17.833  0.00  0.00    +0.000 A 
ATOM     12  C   UNL     1       2.541   7.010  18.720  0.00  0.00    +0.000 A 
ATOM     13  C   UNL     1       1.896   7.124  19.967  0.00  0.00    +0.000 A 
ATOM     14  C   UNL     1       1.284   8.349  20.301  0.00  0.00    +0.000 A 
ATOM     15  C   UNL     1       1.318   9.426  19.406  0.00  0.00    +0.000 A 
BRANCH  10  16
ATOM     16  O   UNL     1       1.987  10.344  17.318  0.00  0.00    +0.000 OA
ATOM     17  H   UNL     1       1.246  10.540  16.726  0.00  0.00    +0.000 HD
ENDBRANCH  10  16
ENDBRANCH   9  13
ENDBRANCH   8   9
ENDBRANCH   1   8
BRANCH   5  18
ATOM     18  C   UNL     1       4.543   4.018  17.801  0.00  0.00    +0.000 C 
BRANCH  18  19
ATOM     19  C   UNL     1       6.025   4.007  18.204  0.00  0.00    +0.000 C 
BRANCH  19  20
ATOM     20  C   UNL     1       6.593   5.398  18.046  0.00  0.00    +0.000 A 
ATOM     21  C   UNL     1       7.695   5.799  18.817  0.00  0.00    +0.000 A 
ATOM     22  C   UNL     1       8.200   7.095  18.708  0.00  0.00    +0.000 A 
ATOM     23  C   UNL     1       7.606   8.019  17.827  0.00  0.00    +0.000 A 
ATOM     24  C   UNL     1       6.507   7.616  17.057  0.00  0.00    +0.000 A 
ATOM     25  C   UNL     1       6.007   6.316  17.160  0.00  0.00    +0.000 A 
BRANCH  23  26
ATOM     26  O   UNL     1       8.061   9.292  17.695  0.00  0.00    +0.000 OA
BRANCH  26  27
ATOM     27  C   UNL     1       8.948   9.909  18.555  0.00  0.00    +0.000 C 
BRANCH  27  28
ATOM     28  C   UNL     1       9.170  11.350  18.127  0.00  0.00    +0.000 C 
ATOM     29  F   UNL     1      10.411  11.467  17.529  0.00  0.00    +0.000 F 
ENDBRANCH  27  28
ENDBRANCH  26  27
ENDBRANCH  23  26
ENDBRANCH  19  20
ENDBRANCH  18  19
ENDBRANCH   5  18
TORSDOF 10
ENDMDL
MODEL 2
REMARK VINA RESULT:      -7.4      1.092      1.817
REMARK  Name = 
REMARK  10 active torsions:
REMARK  status: ('A' for Active; 'I' for Inactive)
REMARK    1  A    between atoms: O_1  and  C_2
REMARK    2  A    between atoms: C_5  and  C_6
REMARK    3  A    between atoms: C_6  and  C_7
REMARK    4  A    between atoms: C_7  and  C_8
REMARK    5  A    between atoms: C_12  and  C_13
REMARK    6  A    between atoms: C_13  and  C_14
REMARK    7  A    between atoms: C_14  and  C_15
REMARK    8  A    between atoms: C_18  and  O_19
REMARK    9  A    between atoms: O_19  and  C_20
REMARK   10  A    between atoms: C_20  and  C_21
REMARK                            x       y       z     vdW  Elec       q    Type
REMARK                         _______ _______ _______ _____ _____    ______ ____
ROOT
ATOM      1  C   UNL     1       2.859   3.812  20.324  0.00  0.00    +0.000 C 
ATOM      2  C   UNL     1       1.453   3.154  20.324  0.00  0.00    +0.000 C 
ATOM      3  C   UNL     1       0.985   2.731  18.928  0.00  0.00    +0.000 C 
ATOM      4  C   UNL     1       2.036   1.794  18.306  0.00  0.00    +0.000 C 
ATOM      5  C   UNL     1       3.406   2.491  18.216  0.00  0.00    +0.000 C 
ATOM      6  N   UNL     1       3.812   2.966  19.566  0.00  0.00    +0.000 NA
ATOM      7  H   UNL     1       4.786   3.343  19.588  0.00  0.00    +0.000 HD
ENDROOT
BRANCH   1   8
ATOM      8  C   UNL     1       2.945   5.305  19.892  0.00  0.00    +0.000 C 
BRANCH   8   9
ATOM      9  C   UNL     1       2.078   6.274  20.709  0.00  0.00    +0.000 C 
BRANCH   9  13
ATOM     10  C   UNL     1       1.456   9.987  18.552  0.00  0.00    +0.000 A 
ATOM     11  C   UNL     1       0.914   9.815  19.832  0.00  0.00    +0.000 A 
ATOM     12  C   UNL     1       1.115   8.620  20.524  0.00  0.00    +0.000 A 
ATOM     13  C   UNL     1       1.858   7.569  19.949  0.00  0.00    +0.000 A 
ATOM     14  C   UNL     1       2.397   7.750  18.661  0.00  0.00    +0.000 A 
ATOM     15  C   UNL     1       2.198   8.953  17.970  0.00  0.00    +0.000 A 
BRANCH  10  16
ATOM     16  O   UNL     1       1.275  11.142  17.877  0.00  0.00    +0.000 OA
ATOM     17  H   UNL     1       1.854  11.409  17.149  0.00  0.00    +0.000 HD
ENDBRANCH  10  16
ENDBRANCH   9  13
ENDBRANCH   8   9
ENDBRANCH   1   8
BRANCH   5  18
ATOM     18  C   UNL     1       3.377   3.573  17.105  0.00  0.00    +0.000 C 
BRANCH  18  19
ATOM     19  C   UNL     1       4.656   3.684  16.264  0.00  0.00    +0.000 C 
BRANCH  19  20
ATOM     20  C   UNL     1       5.519   4.794  16.818  0.00  0.00    +0.000 A 
ATOM     21  C   UNL     1       5.073   6.124  16.763  0.00  0.00    +0.000 A 
ATOM     22  C   UNL     1       5.880   7.160  17.234  0.00  0.00    +0.000 A 
ATOM     23  C   UNL     1       7.156   6.884  17.764  0.00  0.00    +0.000 A 
ATOM     24  C   UNL     1       7.598   5.556  17.818  0.00  0.00    +0.000 A 
ATOM     25  C   UNL     1       6.787   4.518  17.355  0.00  0.00    +0.000 A 
BRANCH  23  26
ATOM     26  O   UNL     1       7.977   7.863  18.226  0.00  0.00    +0.000 OA
BRANCH  26  27
ATOM     27  C   UNL     1       8.117   9.112  17.657  0.00  0.00    +0.000 C 
BRANCH  27  28
ATOM     28  C   UNL     1       8.620  10.103  18.694  0.00  0.00    +0.000 C 
ATOM     29  F   UNL     1       9.830   9.666  19.199  0.00  0.00    +0.000 F 
ENDBRANCH  27  28
ENDBRANCH  26  27
ENDBRANCH  23  26
ENDBRANCH  19  20
ENDBRANCH  18  19
ENDBRANCH   5  18
TORSDOF 10
ENDMDL
MODEL 3
REMARK VINA RESULT:      -7.2      3.401      4.307
REMARK  Name = 
REMARK  10 active torsions:
REMARK  status: ('A' for Active; 'I' for Inactive)
REMARK    1  A    between atoms: O_1  and  C_2
REMARK    2  A    between atoms: C_5  and  C_6
REMARK    3  A    between atoms: C_6  and  C_7
REMARK    4  A    between atoms: C_7  and  C_8
REMARK    5  A    between atoms: C_12  and  C_13
REMARK    6  A    between atoms: C_13  and  C_14
REMARK    7  A    between atoms: C_14  and  C_15
REMARK    8  A    between atoms: C_18  and  O_19
REMARK    9  A    between atoms: O_19  and  C_20
REMARK   10  A    between atoms: C_20  and  C_21
REMARK                            x       y       z     vdW  Elec       q    Type
REMARK                         _______ _______ _______ _____ _____    ______ ____
ROOT
ATOM      1  C   UNL     1       1.470   3.285  20.474  0.00  0.00    +0.000 C 
ATOM      2  C   UNL     1       1.091   2.188  19.443  0.00  0.00    +0.000 C 
ATOM      3  C   UNL     1       2.085   2.083  18.281  0.00  0.00    +0.000 C 
ATOM      4  C   UNL     1       3.497   1.850  18.846  0.00  0.00    +0.000 C 
ATOM      5  C   UNL     1       3.907   2.995  19.790  0.00  0.00    +0.000 C 
ATOM      6  N   UNL     1       2.892   3.137  20.868  0.00  0.00    +0.000 NA
ATOM      7  H   UNL     1       3.175   3.820  21.606  0.00  0.00    +0.000 HD
ENDROOT
BRANCH   1   8
ATOM      8  C   UNL     1       1.126   4.757  20.106  0.00  0.00    +0.000 C 
BRANCH   8   9
ATOM      9  C   UNL     1       2.110   5.812  20.634  0.00  0.00    +0.000 C 
BRANCH   9  13
ATOM     10  C   UNL     1       2.010   9.363  18.144  0.00  0.00    +0.000 A 
ATOM     11  C   UNL     1       2.711   8.225  17.724  0.00  0.00    +0.000 A 
ATOM     12  C   UNL     1       2.742   7.084  18.526  0.00  0.00    +0.000 A 
ATOM     13  C   UNL     1       2.077   7.058  19.768  0.00  0.00    +0.000 A 
ATOM     14  C   UNL     1       1.378   8.207  20.185  0.00  0.00    +0.000 A 
ATOM     15  C   UNL     1       1.344   9.350  19.374  0.00  0.00    +0.000 A 
BRANCH  10  16
ATOM     16  O   UNL     1       1.967  10.469  17.372  0.00  0.00    +0.000 OA
ATOM     17  H   UNL     1       1.134  10.831  17.038  0.00  0.00    +0.000 HD
ENDBRANCH  10  16
ENDBRANCH   9  13
ENDBRANCH   8   9
ENDBRANCH   1   8
BRANCH   5  18
ATOM     18  C   UNL     1       4.197   4.278  18.970  0.00  0.00    +0.000 C 
BRANCH  18  19
ATOM     19  C   UNL     1       5.677   4.529  18.647  0.00  0.00    +0.000 C 
BRANCH  19  20
ATOM     20  C   UNL     1       5.877   4.459  17.151  0.00  0.00    +0.000 A 
ATOM     21  C   UNL     1       7.136   4.740  16.597  0.00  0.00    +0.000 A 
ATOM     22  C   UNL     1       7.320   4.718  15.214  0.00  0.00    +0.000 A 
ATOM     23  C   UNL     1       6.243   4.419  14.357  0.00  0.00    +0.000 A 
ATOM     24  C   UNL     1       4.988   4.138  14.912  0.00  0.00    +0.000 A 
ATOM     25  C   UNL     1       4.806   4.151  16.297  0.00  0.00    +0.000 A 
BRANCH  23  26
ATOM     26  O   UNL     1       6.376   4.395  13.005  0.00  0.00    +0.000 OA
BRANCH  26  27
ATOM     27  C   UNL     1       6.594   3.258  12.252  0.00  0.00    +0.000 C 
BRANCH  27  28
ATOM     28  C   UNL     1       5.274   2.724  11.721  0.00  0.00    +0.000 C 
ATOM     29  F   UNL     1       4.389   3.773  11.552  0.00  0.00    +0.000 F 
ENDBRANCH  27  28
ENDBRANCH  26  27
ENDBRANCH  23  26
ENDBRANCH  19  20
ENDBRANCH  18  19
ENDBRANCH   5  18
TORSDOF 10
ENDMDL
MODEL 4
REMARK VINA RESULT:      -7.2      2.992      6.028
REMARK  Name = 
REMARK  10 active torsions:
REMARK  status: ('A' for Active; 'I' for Inactive)
REMARK    1  A    between atoms: O_1  and  C_2
REMARK    2  A    between atoms: C_5  and  C_6
REMARK    3  A    between atoms: C_6  and  C_7
REMARK    4  A    between atoms: C_7  and  C_8
REMARK    5  A    between atoms: C_12  and  C_13
REMARK    6  A    between atoms: C_13  and  C_14
REMARK    7  A    between atoms: C_14  and  C_15
REMARK    8  A    between atoms: C_18  and  O_19
REMARK    9  A    between atoms: O_19  and  C_20
REMARK   10  A    between atoms: C_20  and  C_21
REMARK                            x       y       z     vdW  Elec       q    Type
REMARK                         _______ _______ _______ _____ _____    ______ ____
ROOT
ATOM      1  C   UNL     1       1.596   2.938  18.608  0.00  0.00    +0.000 C 
ATOM      2  C   UNL     1       2.183   1.984  19.682  0.00  0.00    +0.000 C 
ATOM      3  C   UNL     1       3.008   2.712  20.749  0.00  0.00    +0.000 C 
ATOM      4  C   UNL     1       2.142   3.808  21.394  0.00  0.00    +0.000 C 
ATOM      5  C   UNL     1       1.646   4.809  20.334  0.00  0.00    +0.000 C 
ATOM      6  N   UNL     1       0.915   4.079  19.265  0.00  0.00    +0.000 NA
ATOM      7  H   UNL     1       0.454   4.718  18.579  0.00  0.00    +0.000 HD
ENDROOT
BRANCH   1   8
ATOM      8  C   UNL     1       2.555   3.413  17.478  0.00  0.00    +0.000 C 
BRANCH   8   9
ATOM      9  C   UNL     1       3.998   2.896  17.583  0.00  0.00    +0.000 C 
BRANCH   9  13
ATOM     10  C   UNL     1       6.847   6.090  16.875  0.00  0.00    +0.000 A 
ATOM     11  C   UNL     1       6.773   5.476  18.132  0.00  0.00    +0.000 A 
ATOM     12  C   UNL     1       5.855   4.449  18.358  0.00  0.00    +0.000 A 
ATOM     13  C   UNL     1       4.989   4.018  17.333  0.00  0.00    +0.000 A 
ATOM     14  C   UNL     1       5.069   4.642  16.073  0.00  0.00    +0.000 A 
ATOM     15  C   UNL     1       5.995   5.670  15.848  0.00  0.00    +0.000 A 
BRANCH  10  16
ATOM     16  O   UNL     1       7.737   7.079  16.643  0.00  0.00    +0.000 OA
ATOM     17  H   UNL     1       7.862   7.813  17.261  0.00  0.00    +0.000 HD
ENDBRANCH  10  16
ENDBRANCH   9  13
ENDBRANCH   8   9
ENDBRANCH   1   8
BRANCH   5  18
ATOM     18  C   UNL     1       2.822   5.699  19.856  0.00  0.00    +0.000 C 
BRANCH  18  19
ATOM     19  C   UNL     1       2.576   6.464  18.548  0.00  0.00    +0.000 C 
BRANCH  19  20
ATOM     20  C   UNL     1       2.019   7.831  18.871  0.00  0.00    +0.000 A 
ATOM     21  C   UNL     1       1.582   8.122  20.174  0.00  0.00    +0.000 A 
ATOM     22  C   UNL     1       1.028   9.367  20.472  0.00  0.00    +0.000 A 
ATOM     23  C   UNL     1       0.893  10.345  19.468  0.00  0.00    +0.000 A 
ATOM     24  C   UNL     1       1.331  10.053  18.169  0.00  0.00    +0.000 A 
ATOM     25  C   UNL     1       1.894   8.810  17.873  0.00  0.00    +0.000 A 
BRANCH  23  26
ATOM     26  O   UNL     1       0.352  11.567  19.712  0.00  0.00    +0.000 OA
BRANCH  26  27
ATOM     27  C   UNL     1       0.823  12.759  19.197  0.00  0.00    +0.000 C 
BRANCH  27  28
ATOM     28  C   UNL     1      -0.301  13.502  18.495  0.00  0.00    +0.000 C 
ATOM     29  F   UNL     1      -1.090  12.599  17.806  0.00  0.00    +0.000 F 
ENDBRANCH  27  28
ENDBRANCH  26  27
ENDBRANCH  23  26
ENDBRANCH  19  20
ENDBRANCH  18  19
ENDBRANCH   5  18
TORSDOF 10
ENDMDL
MODEL 5
REMARK VINA RESULT:      -7.2      2.209      5.719
REMARK  Name = 
REMARK  10 active torsions:
REMARK  status: ('A' for Active; 'I' for Inactive)
REMARK    1  A    between atoms: O_1  and  C_2
REMARK    2  A    between atoms: C_5  and  C_6
REMARK    3  A    between atoms: C_6  and  C_7
REMARK    4  A    between atoms: C_7  and  C_8
REMARK    5  A    between atoms: C_12  and  C_13
REMARK    6  A    between atoms: C_13  and  C_14
REMARK    7  A    between atoms: C_14  and  C_15
REMARK    8  A    between atoms: C_18  and  O_19
REMARK    9  A    between atoms: O_19  and  C_20
REMARK   10  A    between atoms: C_20  and  C_21
REMARK                            x       y       z     vdW  Elec       q    Type
REMARK                         _______ _______ _______ _____ _____    ______ ____
ROOT
ATOM      1  C   UNL     1       2.976   2.504  17.595  0.00  0.00    +0.000 C 
ATOM      2  C   UNL     1       2.489   1.712  18.838  0.00  0.00    +0.000 C 
ATOM      3  C   UNL     1       2.115   2.614  20.020  0.00  0.00    +0.000 C 
ATOM      4  C   UNL     1       1.055   3.632  19.560  0.00  0.00    +0.000 C 
ATOM      5  C   UNL     1       1.584   4.483  18.391  0.00  0.00    +0.000 C 
ATOM      6  N   UNL     1       2.017   3.592  17.283  0.00  0.00    +0.000 NA
ATOM      7  H   UNL     1       2.275   4.116  16.417  0.00  0.00    +0.000 HD
ENDROOT
BRANCH   1   8
ATOM      8  C   UNL     1       4.444   3.019  17.610  0.00  0.00    +0.000 C 
BRANCH   8   9
ATOM      9  C   UNL     1       4.756   4.138  16.604  0.00  0.00    +0.000 C 
BRANCH   9  13
ATOM     10  C   UNL     1       7.672   6.904  18.236  0.00  0.00    +0.000 A 
ATOM     11  C   UNL     1       6.757   7.334  17.267  0.00  0.00    +0.000 A 
ATOM     12  C   UNL     1       5.820   6.442  16.743  0.00  0.00    +0.000 A 
ATOM     13  C   UNL     1       5.781   5.101  17.173  0.00  0.00    +0.000 A 
ATOM     14  C   UNL     1       6.707   4.677  18.147  0.00  0.00    +0.000 A 
ATOM     15  C   UNL     1       7.644   5.576  18.675  0.00  0.00    +0.000 A 
BRANCH  10  16
ATOM     16  O   UNL     1       8.577   7.761  18.756  0.00  0.00    +0.000 OA
ATOM     17  H   UNL     1       9.028   8.424  18.214  0.00  0.00    +0.000 HD
ENDBRANCH  10  16
ENDBRANCH   9  13
ENDBRANCH   8   9
ENDBRANCH   1   8
BRANCH   5  18
ATOM     18  C   UNL     1       2.653   5.481  18.906  0.00  0.00    +0.000 C 
BRANCH  18  19
ATOM     19  C   UNL     1       2.269   6.257  20.174  0.00  0.00    +0.000 C 
BRANCH  19  20
ATOM     20  C   UNL     1       1.873   7.665  19.793  0.00  0.00    +0.000 A 
ATOM     21  C   UNL     1       1.216   8.485  20.724  0.00  0.00    +0.000 A 
ATOM     22  C   UNL     1       0.809   9.772  20.368  0.00  0.00    +0.000 A 
ATOM     23  C   UNL     1       1.047  10.260  19.069  0.00  0.00    +0.000 A 
ATOM     24  C   UNL     1       1.703   9.439  18.142  0.00  0.00    +0.000 A 
ATOM     25  C   UNL     1       2.118   8.155  18.501  0.00  0.00    +0.000 A 
BRANCH  23  26
ATOM     26  O   UNL     1       0.660  11.503  18.678  0.00  0.00    +0.000 OA
BRANCH  26  27
ATOM     27  C   UNL     1       0.895  12.664  19.387  0.00  0.00    +0.000 C 
BRANCH  27  28
ATOM     28  C   UNL     1       1.495  13.719  18.473  0.00  0.00    +0.000 C 
ATOM     29  F   UNL     1       2.405  13.124  17.618  0.00  0.00    +0.000 F 
ENDBRANCH  27  28
ENDBRANCH  26  27
ENDBRANCH  23  26
ENDBRANCH  19  20
ENDBRANCH  18  19
ENDBRANCH   5  18
TORSDOF 10
ENDMDL
MODEL 6
REMARK VINA RESULT:      -7.2      3.321      6.448
REMARK  Name = 
REMARK  10 active torsions:
REMARK  status: ('A' for Active; 'I' for Inactive)
REMARK    1  A    between atoms: O_1  and  C_2
REMARK    2  A    between atoms: C_5  and  C_6
REMARK    3  A    between atoms: C_6  and  C_7
REMARK    4  A    between atoms: C_7  and  C_8
REMARK    5  A    between atoms: C_12  and  C_13
REMARK    6  A    between atoms: C_13  and  C_14
REMARK    7  A    between atoms: C_14  and  C_15
REMARK    8  A    between atoms: C_18  and  O_19
REMARK    9  A    between atoms: O_19  and  C_20
REMARK   10  A    between atoms: C_20  and  C_21
REMARK                            x       y       z     vdW  Elec       q    Type
REMARK                         _______ _______ _______ _____ _____    ______ ____
ROOT
ATOM      1  C   UNL     1       2.360   2.538  18.735  0.00  0.00    +0.000 C 
ATOM      2  C   UNL     1       1.890   2.155  20.164  0.00  0.00    +0.000 C 
ATOM      3  C   UNL     1       1.850   3.347  21.126  0.00  0.00    +0.000 C 
ATOM      4  C   UNL     1       0.960   4.450  20.526  0.00  0.00    +0.000 C 
ATOM      5  C   UNL     1       1.491   4.896  19.151  0.00  0.00    +0.000 C 
ATOM      6  N   UNL     1       1.599   3.716  18.253  0.00  0.00    +0.000 NA
ATOM      7  H   UNL     1       1.843   3.974  17.270  0.00  0.00    +0.000 HD
ENDROOT
BRANCH   1   8
ATOM      8  C   UNL     1       3.890   2.711  18.512  0.00  0.00    +0.000 C 
BRANCH   8   9
ATOM      9  C   UNL     1       4.302   3.125  17.092  0.00  0.00    +0.000 C 
BRANCH   9  13
ATOM     10  C   UNL     1       6.774   6.690  17.187  0.00  0.00    +0.000 A 
ATOM     11  C   UNL     1       5.894   6.469  16.119  0.00  0.00    +0.000 A 
ATOM     12  C   UNL     1       5.100   5.322  16.091  0.00  0.00    +0.000 A 
ATOM     13  C   UNL     1       5.172   4.368  17.126  0.00  0.00    +0.000 A 
ATOM     14  C   UNL     1       6.062   4.597  18.194  0.00  0.00    +0.000 A 
ATOM     15  C   UNL     1       6.854   5.752  18.222  0.00  0.00    +0.000 A 
BRANCH  10  16
ATOM     16  O   UNL     1       7.540   7.800  17.229  0.00  0.00    +0.000 OA
ATOM     17  H   UNL     1       8.477   7.769  17.467  0.00  0.00    +0.000 HD
ENDBRANCH  10  16
ENDBRANCH   9  13
ENDBRANCH   8   9
ENDBRANCH   1   8
BRANCH   5  18
ATOM     18  C   UNL     1       2.791   5.723  19.331  0.00  0.00    +0.000 C 
BRANCH  18  19
ATOM     19  C   UNL     1       2.872   7.007  18.493  0.00  0.00    +0.000 C 
BRANCH  19  20
ATOM     20  C   UNL     1       1.976   8.058  19.108  0.00  0.00    +0.000 A 
ATOM     21  C   UNL     1       1.669   8.005  20.477  0.00  0.00    +0.000 A 
ATOM     22  C   UNL     1       0.810   8.946  21.045  0.00  0.00    +0.000 A 
ATOM     23  C   UNL     1       0.235   9.957  20.250  0.00  0.00    +0.000 A 
ATOM     24  C   UNL     1       0.544  10.008  18.885  0.00  0.00    +0.000 A 
ATOM     25  C   UNL     1       1.410   9.071  18.318  0.00  0.00    +0.000 A 
BRANCH  23  26
ATOM     26  O   UNL     1      -0.613  10.888  20.760  0.00  0.00    +0.000 OA
BRANCH  26  27
ATOM     27  C   UNL     1      -0.406  11.588  21.932  0.00  0.00    +0.000 C 
BRANCH  27  28
ATOM     28  C   UNL     1      -1.217  10.968  23.058  0.00  0.00    +0.000 C 
ATOM     29  F   UNL     1      -2.230  11.835  23.427  0.00  0.00    +0.000 F 
ENDBRANCH  27  28
ENDBRANCH  26  27
ENDBRANCH  23  26
ENDBRANCH  19  20
ENDBRANCH  18  19
ENDBRANCH   5  18
TORSDOF 10
ENDMDL
MODEL 7
REMARK VINA RESULT:      -7.1      2.703      5.982
REMARK  Name = 
REMARK  10 active torsions:
REMARK  status: ('A' for Active; 'I' for Inactive)
REMARK    1  A    between atoms: O_1  and  C_2
REMARK    2  A    between atoms: C_5  and  C_6
REMARK    3  A    between atoms: C_6  and  C_7
REMARK    4  A    between atoms: C_7  and  C_8
REMARK    5  A    between atoms: C_12  and  C_13
REMARK    6  A    between atoms: C_13  and  C_14
REMARK    7  A    between atoms: C_14  and  C_15
REMARK    8  A    between atoms: C_18  and  O_19
REMARK    9  A    between atoms: O_19  and  C_20
REMARK   10  A    between atoms: C_20  and  C_21
REMARK                            x       y       z     vdW  Elec       q    Type
REMARK                         _______ _______ _______ _____ _____    ______ ____
ROOT
ATOM      1  C   UNL     1       2.426   2.544  18.388  0.00  0.00    +0.000 C 
ATOM      2  C   UNL     1       1.891   1.910  19.700  0.00  0.00    +0.000 C 
ATOM      3  C   UNL     1       1.759   2.918  20.847  0.00  0.00    +0.000 C 
ATOM      4  C   UNL     1       0.867   4.086  20.390  0.00  0.00    +0.000 C 
ATOM      5  C   UNL     1       1.458   4.774  19.147  0.00  0.00    +0.000 C 
ATOM      6  N   UNL     1       1.655   3.769  18.068  0.00  0.00    +0.000 NA
ATOM      7  H   UNL     1       1.943   4.198  17.160  0.00  0.00    +0.000 HD
ENDROOT
BRANCH   1   8
ATOM      8  C   UNL     1       3.960   2.788  18.290  0.00  0.00    +0.000 C 
BRANCH   8   9
ATOM      9  C   UNL     1       4.471   3.193  16.899  0.00  0.00    +0.000 C 
BRANCH   9  13
ATOM     10  C   UNL     1       6.933   6.756  17.148  0.00  0.00    +0.000 A 
ATOM     11  C   UNL     1       5.965   6.636  16.143  0.00  0.00    +0.000 A 
ATOM     12  C   UNL     1       5.174   5.489  16.064  0.00  0.00    +0.000 A 
ATOM     13  C   UNL     1       5.338   4.435  16.986  0.00  0.00    +0.000 A 
ATOM     14  C   UNL     1       6.316   4.564  17.991  0.00  0.00    +0.000 A 
ATOM     15  C   UNL     1       7.105   5.719  18.071  0.00  0.00    +0.000 A 
BRANCH  10  16
ATOM     16  O   UNL     1       7.697   7.865  17.238  0.00  0.00    +0.000 OA
ATOM     17  H   UNL     1       8.617   7.882  16.936  0.00  0.00    +0.000 HD
ENDBRANCH  10  16
ENDBRANCH   9  13
ENDBRANCH   8   9
ENDBRANCH   1   8
BRANCH   5  18
ATOM     18  C   UNL     1       2.718   5.588  19.542  0.00  0.00    +0.000 C 
BRANCH  18  19
ATOM     19  C   UNL     1       3.070   6.749  18.602  0.00  0.00    +0.000 C 
BRANCH  19  20
ATOM     20  C   UNL     1       2.170   7.924  18.906  0.00  0.00    +0.000 A 
ATOM     21  C   UNL     1       1.722   8.145  20.218  0.00  0.00    +0.000 A 
ATOM     22  C   UNL     1       0.858   9.204  20.501  0.00  0.00    +0.000 A 
ATOM     23  C   UNL     1       0.418  10.059  19.472  0.00  0.00    +0.000 A 
ATOM     24  C   UNL     1       0.867   9.837  18.164  0.00  0.00    +0.000 A 
ATOM     25  C   UNL     1       1.740   8.783  17.882  0.00  0.00    +0.000 A 
BRANCH  23  26
ATOM     26  O   UNL     1      -0.429  11.096  19.702  0.00  0.00    +0.000 OA
BRANCH  26  27
ATOM     27  C   UNL     1      -0.040  12.402  19.924  0.00  0.00    +0.000 C 
BRANCH  27  28
ATOM     28  C   UNL     1      -0.520  13.288  18.786  0.00  0.00    +0.000 C 
ATOM     29  F   UNL     1       0.499  14.141  18.407  0.00  0.00    +0.000 F 
ENDBRANCH  27  28
ENDBRANCH  26  27
ENDBRANCH  23  26
ENDBRANCH  19  20
ENDBRANCH  18  19
ENDBRANCH   5  18
TORSDOF 10
ENDMDL
MODEL 8
REMARK VINA RESULT:      -7.1      3.296      6.647
REMARK  Name = 
REMARK  10 active torsions:
REMARK  status: ('A' for Active; 'I' for Inactive)
REMARK    1  A    between atoms: O_1  and  C_2
REMARK    2  A    between atoms: C_5  and  C_6
REMARK    3  A    between atoms: C_6  and  C_7
REMARK    4  A    between atoms: C_7  and  C_8
REMARK    5  A    between atoms: C_12  and  C_13
REMARK    6  A    between atoms: C_13  and  C_14
REMARK    7  A    between atoms: C_14  and  C_15
REMARK    8  A    between atoms: C_18  and  O_19
REMARK    9  A    between atoms: O_19  and  C_20
REMARK   10  A    between atoms: C_20  and  C_21
REMARK                            x       y       z     vdW  Elec       q    Type
REMARK                         _______ _______ _______ _____ _____    ______ ____
ROOT
ATOM      1  C   UNL     1       2.230   3.193  17.972  0.00  0.00    +0.000 C 
ATOM      2  C   UNL     1       2.907   2.068  18.799  0.00  0.00    +0.000 C 
ATOM      3  C   UNL     1       3.405   2.543  20.169  0.00  0.00    +0.000 C 
ATOM      4  C   UNL     1       2.231   3.170  20.942  0.00  0.00    +0.000 C 
ATOM      5  C   UNL     1       1.628   4.351  20.159  0.00  0.00    +0.000 C 
ATOM      6  N   UNL     1       1.222   3.894  18.804  0.00  0.00    +0.000 NA
ATOM      7  H   UNL     1       0.699   4.623  18.268  0.00  0.00    +0.000 HD
ENDROOT
BRANCH   1   8
ATOM      8  C   UNL     1       3.164   4.195  17.235  0.00  0.00    +0.000 C 
BRANCH   8   9
ATOM      9  C   UNL     1       4.582   3.677  16.946  0.00  0.00    +0.000 C 
BRANCH   9  13
ATOM     10  C   UNL     1       7.574   6.444  18.433  0.00  0.00    +0.000 A 
ATOM     11  C   UNL     1       6.972   5.524  19.300  0.00  0.00    +0.000 A 
ATOM     12  C   UNL     1       6.009   4.634  18.819  0.00  0.00    +0.000 A 
ATOM     13  C   UNL     1       5.625   4.651  17.464  0.00  0.00    +0.000 A 
ATOM     14  C   UNL     1       6.234   5.582  16.600  0.00  0.00    +0.000 A 
ATOM     15  C   UNL     1       7.204   6.470  17.084  0.00  0.00    +0.000 A 
BRANCH  10  16
ATOM     16  O   UNL     1       8.513   7.303  18.885  0.00  0.00    +0.000 OA
ATOM     17  H   UNL     1       9.307   7.513  18.374  0.00  0.00    +0.000 HD
ENDBRANCH  10  16
ENDBRANCH   9  13
ENDBRANCH   8   9
ENDBRANCH   1   8
BRANCH   5  18
ATOM     18  C   UNL     1       2.599   5.560  20.196  0.00  0.00    +0.000 C 
BRANCH  18  19
ATOM     19  C   UNL     1       2.431   6.571  19.054  0.00  0.00    +0.000 C 
BRANCH  19  20
ATOM     20  C   UNL     1       1.817   7.839  19.600  0.00  0.00    +0.000 A 
ATOM     21  C   UNL     1       1.615   8.942  18.755  0.00  0.00    +0.000 A 
ATOM     22  C   UNL     1       1.086  10.131  19.260  0.00  0.00    +0.000 A 
ATOM     23  C   UNL     1       0.755  10.241  20.624  0.00  0.00    +0.000 A 
ATOM     24  C   UNL     1       0.957   9.138  21.465  0.00  0.00    +0.000 A 
ATOM     25  C   UNL     1       1.477   7.945  20.958  0.00  0.00    +0.000 A 
BRANCH  23  26
ATOM     26  O   UNL     1       0.246  11.381  21.159  0.00  0.00    +0.000 OA
BRANCH  26  27
ATOM     27  C   UNL     1      -1.088  11.592  21.448  0.00  0.00    +0.000 C 
BRANCH  27  28
ATOM     28  C   UNL     1      -1.250  11.949  22.917  0.00  0.00    +0.000 C 
ATOM     29  F   UNL     1      -2.369  11.313  23.423  0.00  0.00    +0.000 F 
ENDBRANCH  27  28
ENDBRANCH  26  27
ENDBRANCH  23  26
ENDBRANCH  19  20
ENDBRANCH  18  19
ENDBRANCH   5  18
TORSDOF 10
ENDMDL
MODEL 9
REMARK VINA RESULT:      -7.1      2.551      5.705
REMARK  Name = 
REMARK  10 active torsions:
REMARK  status: ('A' for Active; 'I' for Inactive)
REMARK    1  A    between atoms: O_1  and  C_2
REMARK    2  A    between atoms: C_5  and  C_6
REMARK    3  A    between atoms: C_6  and  C_7
REMARK    4  A    between atoms: C_7  and  C_8
REMARK    5  A    between atoms: C_12  and  C_13
REMARK    6  A    between atoms: C_13  and  C_14
REMARK    7  A    between atoms: C_14  and  C_15
REMARK    8  A    between atoms: C_18  and  O_19
REMARK    9  A    between atoms: O_19  and  C_20
REMARK   10  A    between atoms: C_20  and  C_21
REMARK                            x       y       z     vdW  Elec       q    Type
REMARK                         _______ _______ _______ _____ _____    ______ ____
ROOT
ATOM      1  C   UNL     1       2.567   2.452  17.680  0.00  0.00    +0.000 C 
ATOM      2  C   UNL     1       2.031   1.698  18.926  0.00  0.00    +0.000 C 
ATOM      3  C   UNL     1       1.755   2.622  20.118  0.00  0.00    +0.000 C 
ATOM      4  C   UNL     1       0.783   3.732  19.680  0.00  0.00    +0.000 C 
ATOM      5  C   UNL     1       1.367   4.541  18.507  0.00  0.00    +0.000 C 
ATOM      6  N   UNL     1       1.703   3.622  17.388  0.00  0.00    +0.000 NA
ATOM      7  H   UNL     1       1.993   4.126  16.520  0.00  0.00    +0.000 HD
ENDROOT
BRANCH   1   8
ATOM      8  C   UNL     1       4.075   2.835  17.673  0.00  0.00    +0.000 C 
BRANCH   8   9
ATOM      9  C   UNL     1       4.510   3.765  16.531  0.00  0.00    +0.000 C 
BRANCH   9  13
ATOM     10  C   UNL     1       7.365   6.711  17.943  0.00  0.00    +0.000 A 
ATOM     11  C   UNL     1       7.572   5.349  18.195  0.00  0.00    +0.000 A 
ATOM     12  C   UNL     1       6.653   4.403  17.740  0.00  0.00    +0.000 A 
ATOM     13  C   UNL     1       5.503   4.799  17.028  0.00  0.00    +0.000 A 
ATOM     14  C   UNL     1       5.300   6.171  16.781  0.00  0.00    +0.000 A 
ATOM     15  C   UNL     1       6.229   7.118  17.235  0.00  0.00    +0.000 A 
BRANCH  10  16
ATOM     16  O   UNL     1       8.252   7.633  18.371  0.00  0.00    +0.000 OA
ATOM     17  H   UNL     1       8.032   8.575  18.421  0.00  0.00    +0.000 HD
ENDBRANCH  10  16
ENDBRANCH   9  13
ENDBRANCH   8   9
ENDBRANCH   1   8
BRANCH   5  18
ATOM     18  C   UNL     1       2.528   5.438  19.010  0.00  0.00    +0.000 C 
BRANCH  18  19
ATOM     19  C   UNL     1       2.221   6.263  20.268  0.00  0.00    +0.000 C 
BRANCH  19  20
ATOM     20  C   UNL     1       1.876   7.677  19.861  0.00  0.00    +0.000 A 
ATOM     21  C   UNL     1       1.186   8.515  20.751  0.00  0.00    +0.000 A 
ATOM     22  C   UNL     1       0.827   9.808  20.370  0.00  0.00    +0.000 A 
ATOM     23  C   UNL     1       1.147  10.286  19.084  0.00  0.00    +0.000 A 
ATOM     24  C   UNL     1       1.836   9.448  18.198  0.00  0.00    +0.000 A 
ATOM     25  C   UNL     1       2.203   8.157  18.583  0.00  0.00    +0.000 A 
BRANCH  23  26
ATOM     26  O   UNL     1       0.809  11.535  18.669  0.00  0.00    +0.000 OA
BRANCH  26  27
ATOM     27  C   UNL     1       1.693  12.585  18.519  0.00  0.00    +0.000 C 
BRANCH  27  28
ATOM     28  C   UNL     1       2.075  13.140  19.881  0.00  0.00    +0.000 C 
ATOM     29  F   UNL     1       0.935  13.312  20.644  0.00  0.00    +0.000 F 
ENDBRANCH  27  28
ENDBRANCH  26  27
ENDBRANCH  23  26
ENDBRANCH  19  20
ENDBRANCH  18  19
ENDBRANCH   5  18
TORSDOF 10
ENDMDL
