MODEL 1
REMARK VINA RESULT:      -6.2      0.000      0.000
REMARK  Name = 
REMARK  2 active torsions:
REMARK  status: ('A' for Active; 'I' for Inactive)
REMARK    1  A    between atoms: C_1  and  C_2
REMARK    2  A    between atoms: C_6  and  C_7
REMARK                            x       y       z     vdW  Elec       q    Type
REMARK                         _______ _______ _______ _____ _____    ______ ____
ROOT
ATOM      1  C   UNL     1       5.980   4.096  14.831  0.00  0.00    +0.000 C 
ATOM      2  C   UNL     1       6.326   4.281  16.259  0.00  0.00    +0.000 A 
ATOM      3  N   UNL     1       7.602   4.601  16.658  0.00  0.00    +0.000 N 
ATOM      4  C   UNL     1       7.592   4.769  18.012  0.00  0.00    +0.000 A 
ATOM      5  N   UNL     1       6.395   4.568  18.509  0.00  0.00    +0.000 NA
ATOM      6  C   UNL     1       5.595   4.236  17.435  0.00  0.00    +0.000 A 
ATOM      7  H   UNL     1       8.407   4.714  16.057  0.00  0.00    +0.000 HD
ENDROOT
BRANCH   6   8
ATOM      8  C   UNL     1       4.178   3.942  17.589  0.00  0.00    +0.000 A 
ATOM      9  C   UNL     1       3.757   2.611  17.652  0.00  0.00    +0.000 A 
ATOM     10  C   UNL     1       2.406   2.349  17.802  0.00  0.00    +0.000 A 
ATOM     11  N   UNL     1       1.458   3.310  17.888  0.00  0.00    +0.000 NA
ATOM     12  C   UNL     1       1.886   4.584  17.803  0.00  0.00    +0.000 A 
ATOM     13  C   UNL     1       3.213   4.946  17.649  0.00  0.00    +0.000 A 
ENDBRANCH   6   8
TORSDOF 1
ENDMDL
MODEL 2
REMARK VINA RESULT:      -6.1      0.179      1.366
REMARK  Name = 
REMARK  2 active torsions:
REMARK  status: ('A' for Active; 'I' for Inactive)
REMARK    1  A    between atoms: C_1  and  C_2
REMARK    2  A    between atoms: C_6  and  C_7
REMARK                            x       y       z     vdW  Elec       q    Type
REMARK                         _______ _______ _______ _____ _____    ______ ____
ROOT
ATOM      1  C   UNL     1       5.832   4.516  14.741  0.00  0.00    +0.000 C 
ATOM      2  C   UNL     1       6.256   4.478  16.159  0.00  0.00    +0.000 A 
ATOM      3  N   UNL     1       7.554   4.734  16.532  0.00  0.00    +0.000 N 
ATOM      4  C   UNL     1       7.618   4.691  17.894  0.00  0.00    +0.000 A 
ATOM      5  N   UNL     1       6.449   4.415  18.419  0.00  0.00    +0.000 NA
ATOM      6  C   UNL     1       5.589   4.252  17.352  0.00  0.00    +0.000 A 
ATOM      7  H   UNL     1       8.326   4.939  15.914  0.00  0.00    +0.000 HD
ENDROOT
BRANCH   6   8
ATOM      8  C   UNL     1       4.181   3.936  17.536  0.00  0.00    +0.000 A 
ATOM      9  C   UNL     1       3.253   4.976  17.641  0.00  0.00    +0.000 A 
ATOM     10  C   UNL     1       1.916   4.658  17.811  0.00  0.00    +0.000 A 
ATOM     11  N   UNL     1       1.448   3.391  17.888  0.00  0.00    +0.000 NA
ATOM     12  C   UNL     1       2.364   2.407  17.805  0.00  0.00    +0.000 A 
ATOM     13  C   UNL     1       3.720   2.624  17.638  0.00  0.00    +0.000 A 
ENDBRANCH   6   8
TORSDOF 1
ENDMDL
MODEL 3
REMARK VINA RESULT:      -5.7      1.010      4.585
REMARK  Name = 
REMARK  2 active torsions:
REMARK  status: ('A' for Active; 'I' for Inactive)
REMARK    1  A    between atoms: C_1  and  C_2
REMARK    2  A    between atoms: C_6  and  C_7
REMARK                            x       y       z     vdW  Elec       q    Type
REMARK                         _______ _______ _______ _____ _____    ______ ____
ROOT
ATOM      1  C   UNL     1       3.612   1.467  18.238  0.00  0.00    +0.000 C 
ATOM      2  C   UNL     1       3.115   2.846  18.033  0.00  0.00    +0.000 A 
ATOM      3  N   UNL     1       1.820   3.200  18.329  0.00  0.00    +0.000 N 
ATOM      4  C   UNL     1       1.684   4.537  18.099  0.00  0.00    +0.000 A 
ATOM      5  N   UNL     1       2.804   5.064  17.665  0.00  0.00    +0.000 NA
ATOM      6  C   UNL     1       3.703   4.020  17.591  0.00  0.00    +0.000 A 
ATOM      7  H   UNL     1       1.096   2.586  18.677  0.00  0.00    +0.000 HD
ENDROOT
BRANCH   6   8
ATOM      8  C   UNL     1       5.076   4.213  17.148  0.00  0.00    +0.000 A 
ATOM      9  C   UNL     1       6.070   4.481  18.093  0.00  0.00    +0.000 A 
ATOM     10  C   UNL     1       7.371   4.658  17.655  0.00  0.00    +0.000 A 
ATOM     11  N   UNL     1       7.744   4.591  16.357  0.00  0.00    +0.000 NA
ATOM     12  C   UNL     1       6.765   4.352  15.463  0.00  0.00    +0.000 A 
ATOM     13  C   UNL     1       5.436   4.166  15.803  0.00  0.00    +0.000 A 
ENDBRANCH   6   8
TORSDOF 1
ENDMDL
MODEL 4
REMARK VINA RESULT:      -5.6      1.054      4.610
REMARK  Name = 
REMARK  2 active torsions:
REMARK  status: ('A' for Active; 'I' for Inactive)
REMARK    1  A    between atoms: C_1  and  C_2
REMARK    2  A    between atoms: C_6  and  C_7
REMARK                            x       y       z     vdW  Elec       q    Type
REMARK                         _______ _______ _______ _____ _____    ______ ____
ROOT
ATOM      1  C   UNL     1       2.640   6.358  18.075  0.00  0.00    +0.000 C 
ATOM      2  C   UNL     1       2.663   4.879  18.004  0.00  0.00    +0.000 A 
ATOM      3  N   UNL     1       1.555   4.123  18.308  0.00  0.00    +0.000 N 
ATOM      4  C   UNL     1       1.865   2.813  18.087  0.00  0.00    +0.000 A 
ATOM      5  N   UNL     1       3.101   2.678  17.672  0.00  0.00    +0.000 NA
ATOM      6  C   UNL     1       3.626   3.953  17.638  0.00  0.00    +0.000 A 
ATOM      7  H   UNL     1       0.660   4.471  18.621  0.00  0.00    +0.000 HD
ENDROOT
BRANCH   6   8
ATOM      8  C   UNL     1       4.994   4.215  17.217  0.00  0.00    +0.000 A 
ATOM      9  C   UNL     1       5.315   4.166  15.858  0.00  0.00    +0.000 A 
ATOM     10  C   UNL     1       6.621   4.422  15.475  0.00  0.00    +0.000 A 
ATOM     11  N   UNL     1       7.616   4.714  16.343  0.00  0.00    +0.000 NA
ATOM     12  C   UNL     1       7.287   4.735  17.649  0.00  0.00    +0.000 A 
ATOM     13  C   UNL     1       6.012   4.489  18.129  0.00  0.00    +0.000 A 
ENDBRANCH   6   8
TORSDOF 1
ENDMDL
MODEL 5
REMARK VINA RESULT:      -5.6      1.103      4.623
REMARK  Name = 
REMARK  2 active torsions:
REMARK  status: ('A' for Active; 'I' for Inactive)
REMARK    1  A    between atoms: C_1  and  C_2
REMARK    2  A    between atoms: C_6  and  C_7
REMARK                            x       y       z     vdW  Elec       q    Type
REMARK                         _______ _______ _______ _____ _____    ______ ____
ROOT
ATOM      1  C   UNL     1       2.697   6.434  18.117  0.00  0.00    +0.000 C 
ATOM      2  C   UNL     1       2.681   4.957  18.021  0.00  0.00    +0.000 A 
ATOM      3  N   UNL     1       1.569   4.222  18.362  0.00  0.00    +0.000 N 
ATOM      4  C   UNL     1       1.836   2.909  18.105  0.00  0.00    +0.000 A 
ATOM      5  N   UNL     1       3.048   2.752  17.631  0.00  0.00    +0.000 NA
ATOM      6  C   UNL     1       3.603   4.014  17.595  0.00  0.00    +0.000 A 
ATOM      7  H   UNL     1       0.698   4.586  18.721  0.00  0.00    +0.000 HD
ENDROOT
BRANCH   6   8
ATOM      8  C   UNL     1       4.956   4.251  17.116  0.00  0.00    +0.000 A 
ATOM      9  C   UNL     1       5.976   4.502  18.037  0.00  0.00    +0.000 A 
ATOM     10  C   UNL     1       7.258   4.721  17.564  0.00  0.00    +0.000 A 
ATOM     11  N   UNL     1       7.589   4.711  16.253  0.00  0.00    +0.000 NA
ATOM     12  C   UNL     1       6.586   4.487  15.383  0.00  0.00    +0.000 A 
ATOM     13  C   UNL     1       5.272   4.262  15.758  0.00  0.00    +0.000 A 
ENDBRANCH   6   8
TORSDOF 1
ENDMDL
MODEL 6
REMARK VINA RESULT:      -5.6      0.936      2.238
REMARK  Name = 
REMARK  2 active torsions:
REMARK  status: ('A' for Active; 'I' for Inactive)
REMARK    1  A    between atoms: C_1  and  C_2
REMARK    2  A    between atoms: C_6  and  C_7
REMARK                            x       y       z     vdW  Elec       q    Type
REMARK                         _______ _______ _______ _____ _____    ______ ____
ROOT
ATOM      1  C   UNL     1       6.289   5.300  19.228  0.00  0.00    +0.000 C 
ATOM      2  C   UNL     1       6.268   4.852  17.818  0.00  0.00    +0.000 A 
ATOM      3  N   UNL     1       7.363   4.996  16.997  0.00  0.00    +0.000 N 
ATOM      4  C   UNL     1       7.063   4.434  15.791  0.00  0.00    +0.000 A 
ATOM      5  N   UNL     1       5.845   3.948  15.779  0.00  0.00    +0.000 NA
ATOM      6  C   UNL     1       5.321   4.222  17.026  0.00  0.00    +0.000 A 
ATOM      7  H   UNL     1       8.245   5.423  17.244  0.00  0.00    +0.000 HD
ENDROOT
BRANCH   6   8
ATOM      8  C   UNL     1       3.972   3.828  17.401  0.00  0.00    +0.000 A 
ATOM      9  C   UNL     1       2.986   4.807  17.546  0.00  0.00    +0.000 A 
ATOM     10  C   UNL     1       1.707   4.414  17.900  0.00  0.00    +0.000 A 
ATOM     11  N   UNL     1       1.348   3.129  18.121  0.00  0.00    +0.000 NA
ATOM     12  C   UNL     1       2.320   2.205  17.996  0.00  0.00    +0.000 A 
ATOM     13  C   UNL     1       3.628   2.500  17.650  0.00  0.00    +0.000 A 
ENDBRANCH   6   8
TORSDOF 1
ENDMDL
MODEL 7
REMARK VINA RESULT:      -5.6      0.935      1.785
REMARK  Name = 
REMARK  2 active torsions:
REMARK  status: ('A' for Active; 'I' for Inactive)
REMARK    1  A    between atoms: C_1  and  C_2
REMARK    2  A    between atoms: C_6  and  C_7
REMARK                            x       y       z     vdW  Elec       q    Type
REMARK                         _______ _______ _______ _____ _____    ______ ____
ROOT
ATOM      1  C   UNL     1       6.326   5.238  19.231  0.00  0.00    +0.000 C 
ATOM      2  C   UNL     1       6.277   4.819  17.812  0.00  0.00    +0.000 A 
ATOM      3  N   UNL     1       7.365   4.950  16.981  0.00  0.00    +0.000 N 
ATOM      4  C   UNL     1       7.036   4.420  15.768  0.00  0.00    +0.000 A 
ATOM      5  N   UNL     1       5.806   3.967  15.762  0.00  0.00    +0.000 NA
ATOM      6  C   UNL     1       5.304   4.230  17.020  0.00  0.00    +0.000 A 
ATOM      7  H   UNL     1       8.261   5.349  17.226  0.00  0.00    +0.000 HD
ENDROOT
BRANCH   6   8
ATOM      8  C   UNL     1       3.949   3.864  17.404  0.00  0.00    +0.000 A 
ATOM      9  C   UNL     1       3.628   2.516  17.586  0.00  0.00    +0.000 A 
ATOM     10  C   UNL     1       2.335   2.187  17.955  0.00  0.00    +0.000 A 
ATOM     11  N   UNL     1       1.352   3.095  18.148  0.00  0.00    +0.000 NA
ATOM     12  C   UNL     1       1.681   4.386  17.948  0.00  0.00    +0.000 A 
ATOM     13  C   UNL     1       2.943   4.814  17.574  0.00  0.00    +0.000 A 
ENDBRANCH   6   8
TORSDOF 1
ENDMDL
MODEL 8
REMARK VINA RESULT:      -5.6      1.900      4.081
REMARK  Name = 
REMARK  2 active torsions:
REMARK  status: ('A' for Active; 'I' for Inactive)
REMARK    1  A    between atoms: C_1  and  C_2
REMARK    2  A    between atoms: C_6  and  C_7
REMARK                            x       y       z     vdW  Elec       q    Type
REMARK                         _______ _______ _______ _____ _____    ______ ____
ROOT
ATOM      1  C   UNL     1       1.462   3.866  18.072  0.00  0.00    +0.000 C 
ATOM      2  C   UNL     1       2.745   3.509  18.717  0.00  0.00    +0.000 A 
ATOM      3  N   UNL     1       2.797   2.688  19.819  0.00  0.00    +0.000 N 
ATOM      4  C   UNL     1       4.109   2.492  20.139  0.00  0.00    +0.000 A 
ATOM      5  N   UNL     1       4.902   3.142  19.321  0.00  0.00    +0.000 NA
ATOM      6  C   UNL     1       4.071   3.805  18.442  0.00  0.00    +0.000 A 
ATOM      7  H   UNL     1       2.008   2.280  20.300  0.00  0.00    +0.000 HD
ENDROOT
BRANCH   6   8
ATOM      8  C   UNL     1       4.589   4.640  17.369  0.00  0.00    +0.000 A 
ATOM      9  C   UNL     1       5.117   4.037  16.224  0.00  0.00    +0.000 A 
ATOM     10  C   UNL     1       5.602   4.847  15.212  0.00  0.00    +0.000 A 
ATOM     11  N   UNL     1       5.601   6.199  15.263  0.00  0.00    +0.000 NA
ATOM     12  C   UNL     1       5.107   6.756  16.385  0.00  0.00    +0.000 A 
ATOM     13  C   UNL     1       4.603   6.032  17.452  0.00  0.00    +0.000 A 
ENDBRANCH   6   8
TORSDOF 1
ENDMDL
MODEL 9
REMARK VINA RESULT:      -5.6      1.914      4.249
REMARK  Name = 
REMARK  2 active torsions:
REMARK  status: ('A' for Active; 'I' for Inactive)
REMARK    1  A    between atoms: C_1  and  C_2
REMARK    2  A    between atoms: C_6  and  C_7
REMARK                            x       y       z     vdW  Elec       q    Type
REMARK                         _______ _______ _______ _____ _____    ______ ____
ROOT
ATOM      1  C   UNL     1       1.504   3.764  18.063  0.00  0.00    +0.000 C 
ATOM      2  C   UNL     1       2.792   3.450  18.722  0.00  0.00    +0.000 A 
ATOM      3  N   UNL     1       2.857   2.650  19.839  0.00  0.00    +0.000 N 
ATOM      4  C   UNL     1       4.172   2.493  20.170  0.00  0.00    +0.000 A 
ATOM      5  N   UNL     1       4.953   3.149  19.346  0.00  0.00    +0.000 NA
ATOM      6  C   UNL     1       4.111   3.775  18.450  0.00  0.00    +0.000 A 
ATOM      7  H   UNL     1       2.075   2.230  20.322  0.00  0.00    +0.000 HD
ENDROOT
BRANCH   6   8
ATOM      8  C   UNL     1       4.615   4.605  17.366  0.00  0.00    +0.000 A 
ATOM      9  C   UNL     1       4.594   5.996  17.500  0.00  0.00    +0.000 A 
ATOM     10  C   UNL     1       5.080   6.770  16.460  0.00  0.00    +0.000 A 
ATOM     11  N   UNL     1       5.575   6.260  15.310  0.00  0.00    +0.000 NA
ATOM     12  C   UNL     1       5.566   4.918  15.196  0.00  0.00    +0.000 A 
ATOM     13  C   UNL     1       5.097   4.061  16.177  0.00  0.00    +0.000 A 
ENDBRANCH   6   8
TORSDOF 1
ENDMDL
