MODEL 1
REMARK VINA RESULT:      -7.4      0.000      0.000
REMARK  Name = 
REMARK  10 active torsions:
REMARK  status: ('A' for Active; 'I' for Inactive)
REMARK    1  A    between atoms: C_1  and  C_2
REMARK    2  A    between atoms: C_2  and  C_3
REMARK    3  A    between atoms: C_3  and  C_4
REMARK    4  A    between atoms: C_4  and  C_5
REMARK    5  A    between atoms: N_7  and  C_8
REMARK    6  A    between atoms: C_8  and  C_9
REMARK    7  A    between atoms: C_15  and  O_16
REMARK    8  A    between atoms: N_20  and  C_21
REMARK    9  A    between atoms: C_21  and  C_22
REMARK   10  A    between atoms: C_22  and  C_23
REMARK                            x       y       z     vdW  Elec       q    Type
REMARK                         _______ _______ _______ _____ _____    ______ ____
ROOT
ATOM      1  C   UNL     1       6.236   6.394  17.198  0.00  0.00    +0.000 A 
ATOM      2  N   UNL     1       5.186   7.018  17.662  0.00  0.00    +0.000 NA
ATOM      3  N   UNL     1       4.131   6.220  17.301  0.00  0.00    +0.000 N 
ATOM      4  C   UNL     1       4.594   5.087  16.647  0.00  0.00    +0.000 A 
ATOM      5  O   UNL     1       3.922   4.151  16.243  0.00  0.00    +0.000 OA
ATOM      6  N   UNL     1       5.970   5.220  16.590  0.00  0.00    +0.000 N 
ENDROOT
BRANCH   1   7
ATOM      7  C   UNL     1       7.611   6.988  17.370  0.00  0.00    +0.000 C 
BRANCH   7   8
ATOM      8  C   UNL     1       7.544   8.496  17.598  0.00  0.00    +0.000 C 
BRANCH   8  10
ATOM      9  C   UNL     1       9.005  10.435  18.282  0.00  0.00    +0.000 C 
ATOM     10  C   UNL     1       8.634   8.985  18.557  0.00  0.00    +0.000 C 
ENDBRANCH   8  10
ENDBRANCH   7   8
ENDBRANCH   1   7
BRANCH   3  11
ATOM     11  C   UNL     1       2.775   6.434  17.745  0.00  0.00    +0.000 C 
BRANCH  11  12
ATOM     12  C   UNL     1       2.527   6.266  19.258  0.00  0.00    +0.000 C 
ATOM     13  O   UNL     1       2.692   7.176  20.067  0.00  0.00    +0.000 OA
ATOM     14  N   UNL     1       2.106   4.983  19.659  0.00  0.00    +0.000 N 
ATOM     15  C   UNL     1       1.937   4.691  21.085  0.00  0.00    +0.000 C 
ATOM     16  C   UNL     1       2.387   3.265  21.424  0.00  0.00    +0.000 C 
ATOM     17  C   UNL     1       1.794   2.217  20.477  0.00  0.00    +0.000 C 
ATOM     18  C   UNL     1       1.967   2.608  19.010  0.00  0.00    +0.000 C 
ATOM     19  C   UNL     1       1.450   4.026  18.757  0.00  0.00    +0.000 C 
BRANCH  18  20
ATOM     20  O   UNL     1       3.348   2.538  18.651  0.00  0.00    +0.000 OA
ATOM     21  H   UNL     1       3.394   2.157  17.753  0.00  0.00    +0.000 HD
ENDBRANCH  18  20
ENDBRANCH  11  12
ENDBRANCH   3  11
BRANCH   6  22
ATOM     22  C   UNL     1       6.741   4.316  15.742  0.00  0.00    +0.000 C 
BRANCH  22  23
ATOM     23  C   UNL     1       7.143   4.790  14.348  0.00  0.00    +0.000 C 
BRANCH  23  24
ATOM     24  C   UNL     1       6.460   3.958  13.285  0.00  0.00    +0.000 A 
ATOM     25  C   UNL     1       7.222   3.133  12.445  0.00  0.00    +0.000 A 
ATOM     26  C   UNL     1       6.613   2.397  11.429  0.00  0.00    +0.000 A 
ATOM     27  C   UNL     1       5.235   2.480  11.240  0.00  0.00    +0.000 A 
ATOM     28  C   UNL     1       4.467   3.299  12.067  0.00  0.00    +0.000 A 
ATOM     29  C   UNL     1       5.076   4.038  13.085  0.00  0.00    +0.000 A 
ENDBRANCH  23  24
ENDBRANCH  22  23
ENDBRANCH   6  22
TORSDOF 9
ENDMDL
MODEL 2
REMARK VINA RESULT:      -7.3      4.619      7.948
REMARK  Name = 
REMARK  10 active torsions:
REMARK  status: ('A' for Active; 'I' for Inactive)
REMARK    1  A    between atoms: C_1  and  C_2
REMARK    2  A    between atoms: C_2  and  C_3
REMARK    3  A    between atoms: C_3  and  C_4
REMARK    4  A    between atoms: C_4  and  C_5
REMARK    5  A    between atoms: N_7  and  C_8
REMARK    6  A    between atoms: C_8  and  C_9
REMARK    7  A    between atoms: C_15  and  O_16
REMARK    8  A    between atoms: N_20  and  C_21
REMARK    9  A    between atoms: C_21  and  C_22
REMARK   10  A    between atoms: C_22  and  C_23
REMARK                            x       y       z     vdW  Elec       q    Type
REMARK                         _______ _______ _______ _____ _____    ______ ____
ROOT
ATOM      1  C   UNL     1       0.941   8.341  20.401  0.00  0.00    +0.000 A 
ATOM      2  N   UNL     1       1.786   7.352  20.526  0.00  0.00    +0.000 NA
ATOM      3  N   UNL     1       2.512   7.379  19.364  0.00  0.00    +0.000 N 
ATOM      4  C   UNL     1       2.099   8.438  18.568  0.00  0.00    +0.000 A 
ATOM      5  O   UNL     1       2.574   8.774  17.495  0.00  0.00    +0.000 OA
ATOM      6  N   UNL     1       1.073   9.053  19.263  0.00  0.00    +0.000 N 
ENDROOT
BRANCH   1   7
ATOM      7  C   UNL     1      -0.071   8.619  21.484  0.00  0.00    +0.000 C 
BRANCH   7   8
ATOM      8  C   UNL     1       0.343   9.813  22.341  0.00  0.00    +0.000 C 
BRANCH   8  10
ATOM      9  C   UNL     1      -1.048  11.874  22.764  0.00  0.00    +0.000 C 
ATOM     10  C   UNL     1      -0.839  10.408  23.113  0.00  0.00    +0.000 C 
ENDBRANCH   8  10
ENDBRANCH   7   8
ENDBRANCH   1   7
BRANCH   3  11
ATOM     11  C   UNL     1       3.677   6.560  19.127  0.00  0.00    +0.000 C 
BRANCH  11  12
ATOM     12  C   UNL     1       3.465   5.333  18.216  0.00  0.00    +0.000 C 
ATOM     13  O   UNL     1       3.780   5.320  17.029  0.00  0.00    +0.000 OA
ATOM     14  N   UNL     1       2.870   4.219  18.839  0.00  0.00    +0.000 N 
ATOM     15  C   UNL     1       2.536   3.038  18.040  0.00  0.00    +0.000 C 
ATOM     16  C   UNL     1       1.216   2.404  18.496  0.00  0.00    +0.000 C 
ATOM     17  C   UNL     1       1.155   2.194  20.013  0.00  0.00    +0.000 C 
ATOM     18  C   UNL     1       1.558   3.452  20.781  0.00  0.00    +0.000 C 
ATOM     19  C   UNL     1       2.905   3.986  20.290  0.00  0.00    +0.000 C 
BRANCH  18  20
ATOM     20  O   UNL     1       0.560   4.462  20.613  0.00  0.00    +0.000 OA
ATOM     21  H   UNL     1       1.004   5.245  20.234  0.00  0.00    +0.000 HD
ENDBRANCH  18  20
ENDBRANCH  11  12
ENDBRANCH   3  11
BRANCH   6  22
ATOM     22  C   UNL     1       0.251  10.051  18.587  0.00  0.00    +0.000 C 
BRANCH  22  23
ATOM     23  C   UNL     1      -1.138  10.352  19.145  0.00  0.00    +0.000 C 
BRANCH  23  24
ATOM     24  C   UNL     1      -2.143  10.495  18.023  0.00  0.00    +0.000 A 
ATOM     25  C   UNL     1      -1.947   9.805  16.818  0.00  0.00    +0.000 A 
ATOM     26  C   UNL     1      -2.837   9.964  15.756  0.00  0.00    +0.000 A 
ATOM     27  C   UNL     1      -3.931  10.817  15.887  0.00  0.00    +0.000 A 
ATOM     28  C   UNL     1      -4.134  11.510  17.080  0.00  0.00    +0.000 A 
ATOM     29  C   UNL     1      -3.243  11.353  18.144  0.00  0.00    +0.000 A 
ENDBRANCH  23  24
ENDBRANCH  22  23
ENDBRANCH   6  22
TORSDOF 9
ENDMDL
MODEL 3
REMARK VINA RESULT:      -7.2      4.409      8.420
REMARK  Name = 
REMARK  10 active torsions:
REMARK  status: ('A' for Active; 'I' for Inactive)
REMARK    1  A    between atoms: C_1  and  C_2
REMARK    2  A    between atoms: C_2  and  C_3
REMARK    3  A    between atoms: C_3  and  C_4
REMARK    4  A    between atoms: C_4  and  C_5
REMARK    5  A    between atoms: N_7  and  C_8
REMARK    6  A    between atoms: C_8  and  C_9
REMARK    7  A    between atoms: C_15  and  O_16
REMARK    8  A    between atoms: N_20  and  C_21
REMARK    9  A    between atoms: C_21  and  C_22
REMARK   10  A    between atoms: C_22  and  C_23
REMARK                            x       y       z     vdW  Elec       q    Type
REMARK                         _______ _______ _______ _____ _____    ______ ____
ROOT
ATOM      1  C   UNL     1       1.108   7.907  20.645  0.00  0.00    +0.000 A 
ATOM      2  N   UNL     1       1.691   6.740  20.726  0.00  0.00    +0.000 NA
ATOM      3  N   UNL     1       2.486   6.682  19.610  0.00  0.00    +0.000 N 
ATOM      4  C   UNL     1       2.386   7.865  18.892  0.00  0.00    +0.000 A 
ATOM      5  O   UNL     1       3.003   8.158  17.880  0.00  0.00    +0.000 OA
ATOM      6  N   UNL     1       1.482   8.651  19.584  0.00  0.00    +0.000 N 
ENDROOT
BRANCH   1   7
ATOM      7  C   UNL     1       0.113   8.335  21.694  0.00  0.00    +0.000 C 
BRANCH   7   8
ATOM      8  C   UNL     1       0.384   9.758  22.174  0.00  0.00    +0.000 C 
BRANCH   8  10
ATOM      9  C   UNL     1      -1.119  11.677  22.825  0.00  0.00    +0.000 C 
ATOM     10  C   UNL     1      -0.688  10.254  23.149  0.00  0.00    +0.000 C 
ENDBRANCH   8  10
ENDBRANCH   7   8
ENDBRANCH   1   7
BRANCH   3  11
ATOM     11  C   UNL     1       3.444   5.631  19.364  0.00  0.00    +0.000 C 
BRANCH  11  12
ATOM     12  C   UNL     1       3.395   4.990  17.961  0.00  0.00    +0.000 C 
ATOM     13  O   UNL     1       2.381   4.476  17.496  0.00  0.00    +0.000 OA
ATOM     14  N   UNL     1       4.607   5.022  17.244  0.00  0.00    +0.000 N 
ATOM     15  C   UNL     1       4.694   4.354  15.943  0.00  0.00    +0.000 C 
ATOM     16  C   UNL     1       6.060   3.686  15.744  0.00  0.00    +0.000 C 
ATOM     17  C   UNL     1       7.229   4.622  16.067  0.00  0.00    +0.000 C 
ATOM     18  C   UNL     1       7.050   5.316  17.416  0.00  0.00    +0.000 C 
ATOM     19  C   UNL     1       5.680   5.992  17.507  0.00  0.00    +0.000 C 
BRANCH  18  20
ATOM     20  O   UNL     1       7.175   4.361  18.472  0.00  0.00    +0.000 OA
ATOM     21  H   UNL     1       7.828   3.695  18.183  0.00  0.00    +0.000 HD
ENDBRANCH  18  20
ENDBRANCH  11  12
ENDBRANCH   3  11
BRANCH   6  22
ATOM     22  C   UNL     1       0.964   9.863  18.957  0.00  0.00    +0.000 C 
BRANCH  22  23
ATOM     23  C   UNL     1      -0.018   9.721  17.797  0.00  0.00    +0.000 C 
BRANCH  23  24
ATOM     24  C   UNL     1      -1.306  10.455  18.097  0.00  0.00    +0.000 A 
ATOM     25  C   UNL     1      -1.320  11.478  19.058  0.00  0.00    +0.000 A 
ATOM     26  C   UNL     1      -2.509  12.131  19.382  0.00  0.00    +0.000 A 
ATOM     27  C   UNL     1      -3.697  11.767  18.752  0.00  0.00    +0.000 A 
ATOM     28  C   UNL     1      -3.695  10.749  17.798  0.00  0.00    +0.000 A 
ATOM     29  C   UNL     1      -2.506  10.093  17.473  0.00  0.00    +0.000 A 
ENDBRANCH  23  24
ENDBRANCH  22  23
ENDBRANCH   6  22
TORSDOF 9
ENDMDL
MODEL 4
REMARK VINA RESULT:      -7.1      4.510      8.070
REMARK  Name = 
REMARK  10 active torsions:
REMARK  status: ('A' for Active; 'I' for Inactive)
REMARK    1  A    between atoms: C_1  and  C_2
REMARK    2  A    between atoms: C_2  and  C_3
REMARK    3  A    between atoms: C_3  and  C_4
REMARK    4  A    between atoms: C_4  and  C_5
REMARK    5  A    between atoms: N_7  and  C_8
REMARK    6  A    between atoms: C_8  and  C_9
REMARK    7  A    between atoms: C_15  and  O_16
REMARK    8  A    between atoms: N_20  and  C_21
REMARK    9  A    between atoms: C_21  and  C_22
REMARK   10  A    between atoms: C_22  and  C_23
REMARK                            x       y       z     vdW  Elec       q    Type
REMARK                         _______ _______ _______ _____ _____    ______ ____
ROOT
ATOM      1  C   UNL     1       1.307   8.217  20.194  0.00  0.00    +0.000 A 
ATOM      2  N   UNL     1       2.124   7.198  20.253  0.00  0.00    +0.000 NA
ATOM      3  N   UNL     1       2.782   7.223  19.051  0.00  0.00    +0.000 N 
ATOM      4  C   UNL     1       2.359   8.310  18.299  0.00  0.00    +0.000 A 
ATOM      5  O   UNL     1       2.783   8.650  17.205  0.00  0.00    +0.000 OA
ATOM      6  N   UNL     1       1.397   8.946  19.063  0.00  0.00    +0.000 N 
ENDROOT
BRANCH   1   7
ATOM      7  C   UNL     1       0.371   8.508  21.340  0.00  0.00    +0.000 C 
BRANCH   7   8
ATOM      8  C   UNL     1       0.835   9.718  22.147  0.00  0.00    +0.000 C 
BRANCH   8  10
ATOM      9  C   UNL     1      -1.205  10.863  23.090  0.00  0.00    +0.000 C 
ATOM     10  C   UNL     1      -0.127  10.903  22.017  0.00  0.00    +0.000 C 
ENDBRANCH   8  10
ENDBRANCH   7   8
ENDBRANCH   1   7
BRANCH   3  11
ATOM     11  C   UNL     1       3.902   6.371  18.732  0.00  0.00    +0.000 C 
BRANCH  11  12
ATOM     12  C   UNL     1       3.567   5.076  17.963  0.00  0.00    +0.000 C 
ATOM     13  O   UNL     1       3.793   4.934  16.763  0.00  0.00    +0.000 OA
ATOM     14  N   UNL     1       2.967   4.059  18.731  0.00  0.00    +0.000 N 
ATOM     15  C   UNL     1       2.520   2.828  18.076  0.00  0.00    +0.000 C 
ATOM     16  C   UNL     1       1.210   2.311  18.681  0.00  0.00    +0.000 C 
ATOM     17  C   UNL     1       1.250   2.249  20.211  0.00  0.00    +0.000 C 
ATOM     18  C   UNL     1       1.766   3.550  20.823  0.00  0.00    +0.000 C 
ATOM     19  C   UNL     1       3.097   3.963  20.191  0.00  0.00    +0.000 C 
BRANCH  18  20
ATOM     20  O   UNL     1       0.807   4.592  20.626  0.00  0.00    +0.000 OA
ATOM     21  H   UNL     1       0.097   4.227  20.064  0.00  0.00    +0.000 HD
ENDBRANCH  18  20
ENDBRANCH  11  12
ENDBRANCH   3  11
BRANCH   6  22
ATOM     22  C   UNL     1       0.572   9.984  18.454  0.00  0.00    +0.000 C 
BRANCH  22  23
ATOM     23  C   UNL     1      -0.606   9.560  17.580  0.00  0.00    +0.000 C 
BRANCH  23  24
ATOM     24  C   UNL     1      -1.862  10.296  17.987  0.00  0.00    +0.000 A 
ATOM     25  C   UNL     1      -3.101   9.917  17.448  0.00  0.00    +0.000 A 
ATOM     26  C   UNL     1      -4.262  10.618  17.776  0.00  0.00    +0.000 A 
ATOM     27  C   UNL     1      -4.197  11.706  18.643  0.00  0.00    +0.000 A 
ATOM     28  C   UNL     1      -2.970  12.094  19.182  0.00  0.00    +0.000 A 
ATOM     29  C   UNL     1      -1.806  11.394  18.855  0.00  0.00    +0.000 A 
ENDBRANCH  23  24
ENDBRANCH  22  23
ENDBRANCH   6  22
TORSDOF 9
ENDMDL
MODEL 5
REMARK VINA RESULT:      -7.1      4.100      7.295
REMARK  Name = 
REMARK  10 active torsions:
REMARK  status: ('A' for Active; 'I' for Inactive)
REMARK    1  A    between atoms: C_1  and  C_2
REMARK    2  A    between atoms: C_2  and  C_3
REMARK    3  A    between atoms: C_3  and  C_4
REMARK    4  A    between atoms: C_4  and  C_5
REMARK    5  A    between atoms: N_7  and  C_8
REMARK    6  A    between atoms: C_8  and  C_9
REMARK    7  A    between atoms: C_15  and  O_16
REMARK    8  A    between atoms: N_20  and  C_21
REMARK    9  A    between atoms: C_21  and  C_22
REMARK   10  A    between atoms: C_22  and  C_23
REMARK                            x       y       z     vdW  Elec       q    Type
REMARK                         _______ _______ _______ _____ _____    ______ ____
ROOT
ATOM      1  C   UNL     1       2.050   6.497  19.945  0.00  0.00    +0.000 A 
ATOM      2  N   UNL     1       1.732   7.647  20.479  0.00  0.00    +0.000 NA
ATOM      3  N   UNL     1       1.945   8.556  19.474  0.00  0.00    +0.000 N 
ATOM      4  C   UNL     1       2.358   7.902  18.321  0.00  0.00    +0.000 A 
ATOM      5  O   UNL     1       2.580   8.412  17.233  0.00  0.00    +0.000 OA
ATOM      6  N   UNL     1       2.419   6.560  18.650  0.00  0.00    +0.000 N 
ENDROOT
BRANCH   1   7
ATOM      7  C   UNL     1       1.977   5.233  20.764  0.00  0.00    +0.000 C 
BRANCH   7   8
ATOM      8  C   UNL     1       0.921   4.275  20.220  0.00  0.00    +0.000 C 
BRANCH   8  10
ATOM      9  C   UNL     1       2.361   2.712  21.579  0.00  0.00    +0.000 C 
ATOM     10  C   UNL     1       1.233   2.815  20.563  0.00  0.00    +0.000 C 
ENDBRANCH   8  10
ENDBRANCH   7   8
ENDBRANCH   1   7
BRANCH   3  11
ATOM     11  C   UNL     1       1.572   9.947  19.559  0.00  0.00    +0.000 C 
BRANCH  11  12
ATOM     12  C   UNL     1       0.136  10.288  19.108  0.00  0.00    +0.000 C 
ATOM     13  O   UNL     1      -0.278  10.068  17.972  0.00  0.00    +0.000 OA
ATOM     14  N   UNL     1      -0.677  10.885  20.092  0.00  0.00    +0.000 N 
ATOM     15  C   UNL     1      -2.024  11.336  19.739  0.00  0.00    +0.000 C 
ATOM     16  C   UNL     1      -2.385  12.644  20.453  0.00  0.00    +0.000 C 
ATOM     17  C   UNL     1      -2.094  12.597  21.957  0.00  0.00    +0.000 C 
ATOM     18  C   UNL     1      -0.688  12.076  22.251  0.00  0.00    +0.000 C 
ATOM     19  C   UNL     1      -0.435  10.747  21.535  0.00  0.00    +0.000 C 
BRANCH  18  20
ATOM     20  O   UNL     1       0.282  13.034  21.824  0.00  0.00    +0.000 OA
ATOM     21  H   UNL     1       0.474  13.611  22.589  0.00  0.00    +0.000 HD
ENDBRANCH  18  20
ENDBRANCH  11  12
ENDBRANCH   3  11
BRANCH   6  22
ATOM     22  C   UNL     1       3.062   5.628  17.729  0.00  0.00    +0.000 C 
BRANCH  22  23
ATOM     23  C   UNL     1       4.210   4.765  18.247  0.00  0.00    +0.000 C 
BRANCH  23  24
ATOM     24  C   UNL     1       5.499   5.555  18.275  0.00  0.00    +0.000 A 
ATOM     25  C   UNL     1       5.731   6.547  17.311  0.00  0.00    +0.000 A 
ATOM     26  C   UNL     1       6.936   7.250  17.292  0.00  0.00    +0.000 A 
ATOM     27  C   UNL     1       7.922   6.968  18.235  0.00  0.00    +0.000 A 
ATOM     28  C   UNL     1       7.703   5.981  19.196  0.00  0.00    +0.000 A 
ATOM     29  C   UNL     1       6.497   5.275  19.216  0.00  0.00    +0.000 A 
ENDBRANCH  23  24
ENDBRANCH  22  23
ENDBRANCH   6  22
TORSDOF 9
ENDMDL
MODEL 6
REMARK VINA RESULT:      -7.1      3.268      6.017
REMARK  Name = 
REMARK  10 active torsions:
REMARK  status: ('A' for Active; 'I' for Inactive)
REMARK    1  A    between atoms: C_1  and  C_2
REMARK    2  A    between atoms: C_2  and  C_3
REMARK    3  A    between atoms: C_3  and  C_4
REMARK    4  A    between atoms: C_4  and  C_5
REMARK    5  A    between atoms: N_7  and  C_8
REMARK    6  A    between atoms: C_8  and  C_9
REMARK    7  A    between atoms: C_15  and  O_16
REMARK    8  A    between atoms: N_20  and  C_21
REMARK    9  A    between atoms: C_21  and  C_22
REMARK   10  A    between atoms: C_22  and  C_23
REMARK                            x       y       z     vdW  Elec       q    Type
REMARK                         _______ _______ _______ _____ _____    ______ ____
ROOT
ATOM      1  C   UNL     1       2.412   6.167  19.795  0.00  0.00    +0.000 A 
ATOM      2  N   UNL     1       1.610   7.141  19.453  0.00  0.00    +0.000 NA
ATOM      3  N   UNL     1       2.269   7.779  18.434  0.00  0.00    +0.000 N 
ATOM      4  C   UNL     1       3.462   7.128  18.157  0.00  0.00    +0.000 A 
ATOM      5  O   UNL     1       4.258   7.407  17.274  0.00  0.00    +0.000 OA
ATOM      6  N   UNL     1       3.537   6.079  19.056  0.00  0.00    +0.000 N 
ENDROOT
BRANCH   1   7
ATOM      7  C   UNL     1       2.046   5.242  20.928  0.00  0.00    +0.000 C 
BRANCH   7   8
ATOM      8  C   UNL     1       1.042   4.181  20.481  0.00  0.00    +0.000 C 
BRANCH   8  10
ATOM      9  C   UNL     1       2.767   2.629  21.470  0.00  0.00    +0.000 C 
ATOM     10  C   UNL     1       1.292   2.829  21.155  0.00  0.00    +0.000 C 
ENDBRANCH   8  10
ENDBRANCH   7   8
ENDBRANCH   1   7
BRANCH   3  11
ATOM     11  C   UNL     1       1.683   8.828  17.634  0.00  0.00    +0.000 C 
BRANCH  11  12
ATOM     12  C   UNL     1       1.885  10.265  18.157  0.00  0.00    +0.000 C 
ATOM     13  O   UNL     1       2.777  11.006  17.749  0.00  0.00    +0.000 OA
ATOM     14  N   UNL     1       0.976  10.676  19.151  0.00  0.00    +0.000 N 
ATOM     15  C   UNL     1       1.140  11.987  19.784  0.00  0.00    +0.000 C 
ATOM     16  C   UNL     1       0.800  11.938  21.277  0.00  0.00    +0.000 C 
ATOM     17  C   UNL     1      -0.542  11.253  21.556  0.00  0.00    +0.000 C 
ATOM     18  C   UNL     1      -0.662   9.914  20.830  0.00  0.00    +0.000 C 
ATOM     19  C   UNL     1      -0.349  10.068  19.340  0.00  0.00    +0.000 C 
BRANCH  18  20
ATOM     20  O   UNL     1       0.243   8.969  21.407  0.00  0.00    +0.000 OA
ATOM     21  H   UNL     1       0.407   9.251  22.327  0.00  0.00    +0.000 HD
ENDBRANCH  18  20
ENDBRANCH  11  12
ENDBRANCH   3  11
BRANCH   6  22
ATOM     22  C   UNL     1       4.792   5.347  19.197  0.00  0.00    +0.000 C 
BRANCH  22  23
ATOM     23  C   UNL     1       4.966   4.043  18.422  0.00  0.00    +0.000 C 
BRANCH  23  24
ATOM     24  C   UNL     1       5.595   4.307  17.072  0.00  0.00    +0.000 A 
ATOM     25  C   UNL     1       4.840   4.131  15.903  0.00  0.00    +0.000 A 
ATOM     26  C   UNL     1       5.419   4.322  14.649  0.00  0.00    +0.000 A 
ATOM     27  C   UNL     1       6.759   4.688  14.549  0.00  0.00    +0.000 A 
ATOM     28  C   UNL     1       7.520   4.863  15.705  0.00  0.00    +0.000 A 
ATOM     29  C   UNL     1       6.942   4.671  16.962  0.00  0.00    +0.000 A 
ENDBRANCH  23  24
ENDBRANCH  22  23
ENDBRANCH   6  22
TORSDOF 9
ENDMDL
MODEL 7
REMARK VINA RESULT:      -7.1      4.604      7.889
REMARK  Name = 
REMARK  10 active torsions:
REMARK  status: ('A' for Active; 'I' for Inactive)
REMARK    1  A    between atoms: C_1  and  C_2
REMARK    2  A    between atoms: C_2  and  C_3
REMARK    3  A    between atoms: C_3  and  C_4
REMARK    4  A    between atoms: C_4  and  C_5
REMARK    5  A    between atoms: N_7  and  C_8
REMARK    6  A    between atoms: C_8  and  C_9
REMARK    7  A    between atoms: C_15  and  O_16
REMARK    8  A    between atoms: N_20  and  C_21
REMARK    9  A    between atoms: C_21  and  C_22
REMARK   10  A    between atoms: C_22  and  C_23
REMARK                            x       y       z     vdW  Elec       q    Type
REMARK                         _______ _______ _______ _____ _____    ______ ____
ROOT
ATOM      1  C   UNL     1       1.235   8.416  20.408  0.00  0.00    +0.000 A 
ATOM      2  N   UNL     1       2.009   7.392  20.161  0.00  0.00    +0.000 NA
ATOM      3  N   UNL     1       2.392   7.566  18.856  0.00  0.00    +0.000 N 
ATOM      4  C   UNL     1       1.856   8.744  18.355  0.00  0.00    +0.000 A 
ATOM      5  O   UNL     1       2.046   9.219  17.246  0.00  0.00    +0.000 OA
ATOM      6  N   UNL     1       1.105   9.284  19.384  0.00  0.00    +0.000 N 
ENDROOT
BRANCH   1   7
ATOM      7  C   UNL     1       0.579   8.565  21.757  0.00  0.00    +0.000 C 
BRANCH   7   8
ATOM      8  C   UNL     1       0.641  10.007  22.253  0.00  0.00    +0.000 C 
BRANCH   8  10
ATOM      9  C   UNL     1      -1.021  11.840  22.746  0.00  0.00    +0.000 C 
ATOM     10  C   UNL     1      -0.613  10.403  23.039  0.00  0.00    +0.000 C 
ENDBRANCH   8  10
ENDBRANCH   7   8
ENDBRANCH   1   7
BRANCH   3  11
ATOM     11  C   UNL     1       3.387   6.754  18.197  0.00  0.00    +0.000 C 
BRANCH  11  12
ATOM     12  C   UNL     1       4.037   5.653  19.061  0.00  0.00    +0.000 C 
ATOM     13  O   UNL     1       5.104   5.810  19.651  0.00  0.00    +0.000 OA
ATOM     14  N   UNL     1       3.326   4.438  19.122  0.00  0.00    +0.000 N 
ATOM     15  C   UNL     1       3.905   3.298  19.835  0.00  0.00    +0.000 C 
ATOM     16  C   UNL     1       3.605   1.976  19.119  0.00  0.00    +0.000 C 
ATOM     17  C   UNL     1       2.125   1.824  18.754  0.00  0.00    +0.000 C 
ATOM     18  C   UNL     1       1.578   3.066  18.053  0.00  0.00    +0.000 C 
ATOM     19  C   UNL     1       1.884   4.330  18.861  0.00  0.00    +0.000 C 
BRANCH  18  20
ATOM     20  O   UNL     1       2.161   3.185  16.753  0.00  0.00    +0.000 OA
ATOM     21  H   UNL     1       2.601   2.336  16.556  0.00  0.00    +0.000 HD
ENDBRANCH  18  20
ENDBRANCH  11  12
ENDBRANCH   3  11
BRANCH   6  22
ATOM     22  C   UNL     1       0.205  10.398  19.102  0.00  0.00    +0.000 C 
BRANCH  22  23
ATOM     23  C   UNL     1      -1.286  10.219  19.381  0.00  0.00    +0.000 C 
BRANCH  23  24
ATOM     24  C   UNL     1      -2.094  10.462  18.126  0.00  0.00    +0.000 A 
ATOM     25  C   UNL     1      -3.211  11.310  18.167  0.00  0.00    +0.000 A 
ATOM     26  C   UNL     1      -3.995  11.505  17.030  0.00  0.00    +0.000 A 
ATOM     27  C   UNL     1      -3.674  10.853  15.842  0.00  0.00    +0.000 A 
ATOM     28  C   UNL     1      -2.568  10.006  15.791  0.00  0.00    +0.000 A 
ATOM     29  C   UNL     1      -1.781   9.808  16.928  0.00  0.00    +0.000 A 
ENDBRANCH  23  24
ENDBRANCH  22  23
ENDBRANCH   6  22
TORSDOF 9
ENDMDL
MODEL 8
REMARK VINA RESULT:      -7.1      4.525      7.463
REMARK  Name = 
REMARK  10 active torsions:
REMARK  status: ('A' for Active; 'I' for Inactive)
REMARK    1  A    between atoms: C_1  and  C_2
REMARK    2  A    between atoms: C_2  and  C_3
REMARK    3  A    between atoms: C_3  and  C_4
REMARK    4  A    between atoms: C_4  and  C_5
REMARK    5  A    between atoms: N_7  and  C_8
REMARK    6  A    between atoms: C_8  and  C_9
REMARK    7  A    between atoms: C_15  and  O_16
REMARK    8  A    between atoms: N_20  and  C_21
REMARK    9  A    between atoms: C_21  and  C_22
REMARK   10  A    between atoms: C_22  and  C_23
REMARK                            x       y       z     vdW  Elec       q    Type
REMARK                         _______ _______ _______ _____ _____    ______ ____
ROOT
ATOM      1  C   UNL     1       2.383   7.306  18.722  0.00  0.00    +0.000 A 
ATOM      2  N   UNL     1       2.085   8.524  18.353  0.00  0.00    +0.000 NA
ATOM      3  N   UNL     1       1.500   9.079  19.461  0.00  0.00    +0.000 N 
ATOM      4  C   UNL     1       1.500   8.168  20.508  0.00  0.00    +0.000 A 
ATOM      5  O   UNL     1       1.103   8.363  21.646  0.00  0.00    +0.000 OA
ATOM      6  N   UNL     1       2.081   7.017  20.005  0.00  0.00    +0.000 N 
ENDROOT
BRANCH   1   7
ATOM      7  C   UNL     1       3.023   6.350  17.747  0.00  0.00    +0.000 C 
BRANCH   7   8
ATOM      8  C   UNL     1       4.466   6.039  18.137  0.00  0.00    +0.000 C 
BRANCH   8  10
ATOM      9  C   UNL     1       5.302   5.474  15.825  0.00  0.00    +0.000 C 
ATOM     10  C   UNL     1       5.088   4.962  17.242  0.00  0.00    +0.000 C 
ENDBRANCH   8  10
ENDBRANCH   7   8
ENDBRANCH   1   7
BRANCH   3  11
ATOM     11  C   UNL     1       1.152  10.476  19.569  0.00  0.00    +0.000 C 
BRANCH  11  12
ATOM     12  C   UNL     1      -0.310  10.834  19.232  0.00  0.00    +0.000 C 
ATOM     13  O   UNL     1      -0.834  10.559  18.155  0.00  0.00    +0.000 OA
ATOM     14  N   UNL     1      -1.011  11.515  20.246  0.00  0.00    +0.000 N 
ATOM     15  C   UNL     1      -2.374  11.987  19.991  0.00  0.00    +0.000 C 
ATOM     16  C   UNL     1      -2.631  13.347  20.651  0.00  0.00    +0.000 C 
ATOM     17  C   UNL     1      -2.202  13.381  22.121  0.00  0.00    +0.000 C 
ATOM     18  C   UNL     1      -0.789  12.835  22.318  0.00  0.00    +0.000 C 
ATOM     19  C   UNL     1      -0.639  11.458  21.667  0.00  0.00    +0.000 C 
BRANCH  18  20
ATOM     20  O   UNL     1       0.162  13.734  21.743  0.00  0.00    +0.000 OA
ATOM     21  H   UNL     1       0.168  13.572  20.781  0.00  0.00    +0.000 HD
ENDBRANCH  18  20
ENDBRANCH  11  12
ENDBRANCH   3  11
BRANCH   6  22
ATOM     22  C   UNL     1       2.005   5.782  20.779  0.00  0.00    +0.000 C 
BRANCH  22  23
ATOM     23  C   UNL     1       1.152   4.635  20.240  0.00  0.00    +0.000 C 
BRANCH  23  24
ATOM     24  C   UNL     1       2.019   3.609  19.546  0.00  0.00    +0.000 A 
ATOM     25  C   UNL     1       1.625   3.084  18.306  0.00  0.00    +0.000 A 
ATOM     26  C   UNL     1       2.388   2.101  17.677  0.00  0.00    +0.000 A 
ATOM     27  C   UNL     1       3.552   1.630  18.280  0.00  0.00    +0.000 A 
ATOM     28  C   UNL     1       3.952   2.142  19.514  0.00  0.00    +0.000 A 
ATOM     29  C   UNL     1       3.189   3.126  20.147  0.00  0.00    +0.000 A 
ENDBRANCH  23  24
ENDBRANCH  22  23
ENDBRANCH   6  22
TORSDOF 9
ENDMDL
MODEL 9
REMARK VINA RESULT:      -7.1      4.434      7.679
REMARK  Name = 
REMARK  10 active torsions:
REMARK  status: ('A' for Active; 'I' for Inactive)
REMARK    1  A    between atoms: C_1  and  C_2
REMARK    2  A    between atoms: C_2  and  C_3
REMARK    3  A    between atoms: C_3  and  C_4
REMARK    4  A    between atoms: C_4  and  C_5
REMARK    5  A    between atoms: N_7  and  C_8
REMARK    6  A    between atoms: C_8  and  C_9
REMARK    7  A    between atoms: C_15  and  O_16
REMARK    8  A    between atoms: N_20  and  C_21
REMARK    9  A    between atoms: C_21  and  C_22
REMARK   10  A    between atoms: C_22  and  C_23
REMARK                            x       y       z     vdW  Elec       q    Type
REMARK                         _______ _______ _______ _____ _____    ______ ____
ROOT
ATOM      1  C   UNL     1       1.865   6.662  20.348  0.00  0.00    +0.000 A 
ATOM      2  N   UNL     1       1.387   7.558  21.171  0.00  0.00    +0.000 NA
ATOM      3  N   UNL     1       1.449   8.731  20.465  0.00  0.00    +0.000 N 
ATOM      4  C   UNL     1       1.938   8.494  19.188  0.00  0.00    +0.000 A 
ATOM      5  O   UNL     1       2.067   9.313  18.292  0.00  0.00    +0.000 OA
ATOM      6  N   UNL     1       2.202   7.137  19.132  0.00  0.00    +0.000 N 
ENDROOT
BRANCH   1   7
ATOM      7  C   UNL     1       1.992   5.223  20.781  0.00  0.00    +0.000 C 
BRANCH   7   8
ATOM      8  C   UNL     1       0.842   4.374  20.244  0.00  0.00    +0.000 C 
BRANCH   8  10
ATOM      9  C   UNL     1       1.943   2.719  21.797  0.00  0.00    +0.000 C 
ATOM     10  C   UNL     1       0.983   2.898  20.630  0.00  0.00    +0.000 C 
ENDBRANCH   8  10
ENDBRANCH   7   8
ENDBRANCH   1   7
BRANCH   3  11
ATOM     11  C   UNL     1       0.874   9.973  20.923  0.00  0.00    +0.000 C 
BRANCH  11  12
ATOM     12  C   UNL     1      -0.180  10.611  19.994  0.00  0.00    +0.000 C 
ATOM     13  O   UNL     1      -1.029   9.953  19.396  0.00  0.00    +0.000 OA
ATOM     14  N   UNL     1      -0.100  12.011  19.866  0.00  0.00    +0.000 N 
ATOM     15  C   UNL     1      -0.991  12.704  18.933  0.00  0.00    +0.000 C 
ATOM     16  C   UNL     1      -0.280  13.867  18.232  0.00  0.00    +0.000 C 
ATOM     17  C   UNL     1       0.464  14.781  19.211  0.00  0.00    +0.000 C 
ATOM     18  C   UNL     1       1.340  13.989  20.181  0.00  0.00    +0.000 C 
ATOM     19  C   UNL     1       0.535  12.881  20.866  0.00  0.00    +0.000 C 
BRANCH  18  20
ATOM     20  O   UNL     1       2.438  13.407  19.476  0.00  0.00    +0.000 OA
ATOM     21  H   UNL     1       3.251  13.648  19.960  0.00  0.00    +0.000 HD
ENDBRANCH  18  20
ENDBRANCH  11  12
ENDBRANCH   3  11
BRANCH   6  22
ATOM     22  C   UNL     1       2.963   6.604  18.007  0.00  0.00    +0.000 C 
BRANCH  22  23
ATOM     23  C   UNL     1       4.261   5.852  18.294  0.00  0.00    +0.000 C 
BRANCH  23  24
ATOM     24  C   UNL     1       4.021   4.359  18.296  0.00  0.00    +0.000 A 
ATOM     25  C   UNL     1       3.086   3.800  17.412  0.00  0.00    +0.000 A 
ATOM     26  C   UNL     1       2.817   2.432  17.436  0.00  0.00    +0.000 A 
ATOM     27  C   UNL     1       3.478   1.608  18.344  0.00  0.00    +0.000 A 
ATOM     28  C   UNL     1       4.408   2.153  19.229  0.00  0.00    +0.000 A 
ATOM     29  C   UNL     1       4.678   3.523  19.208  0.00  0.00    +0.000 A 
ENDBRANCH  23  24
ENDBRANCH  22  23
ENDBRANCH   6  22
TORSDOF 9
ENDMDL
