MODEL 1
REMARK VINA RESULT:      -8.1      0.000      0.000
REMARK  Name = 
REMARK  7 active torsions:
REMARK  status: ('A' for Active; 'I' for Inactive)
REMARK    1  A    between atoms: C_1  and  O_2
REMARK    2  A    between atoms: O_2  and  C_3
REMARK    3  A    between atoms: C_6  and  C_7
REMARK    4  A    between atoms: C_7  and  O_8
REMARK    5  A    between atoms: O_8  and  N_9
REMARK    6  A    between atoms: N_9  and  C_10
REMARK    7  A    between atoms: C_10  and  C_11
REMARK                            x       y       z     vdW  Elec       q    Type
REMARK                         _______ _______ _______ _____ _____    ______ ____
ROOT
ATOM      1  N   UNL     1       4.249   6.044  18.245  0.00  0.00    +0.000 N 
ATOM      2  C   UNL     1       5.234   5.567  17.342  0.00  0.00    +0.000 A 
ATOM      3  C   UNL     1       4.995   5.582  15.969  0.00  0.00    +0.000 A 
ATOM      4  C   UNL     1       5.951   5.067  15.094  0.00  0.00    +0.000 A 
ATOM      5  C   UNL     1       7.144   4.574  15.598  0.00  0.00    +0.000 A 
ATOM      6  C   UNL     1       7.334   4.627  16.964  0.00  0.00    +0.000 A 
ATOM      7  N   UNL     1       6.412   5.100  17.830  0.00  0.00    +0.000 NA
ENDROOT
BRANCH   1   8
ATOM      8  O   UNL     1       2.991   6.509  17.763  0.00  0.00    +0.000 OA
BRANCH   8   9
ATOM      9  C   UNL     1       3.004   7.939  17.906  0.00  0.00    +0.000 C 
BRANCH   9  13
ATOM     10  C   UNL     1       0.189   9.724  20.684  0.00  0.00    +0.000 A 
ATOM     11  C   UNL     1       0.964   8.629  21.065  0.00  0.00    +0.000 A 
ATOM     12  C   UNL     1       1.826   8.010  20.150  0.00  0.00    +0.000 A 
ATOM     13  C   UNL     1       1.921   8.471  18.829  0.00  0.00    +0.000 A 
ATOM     14  C   UNL     1       1.074   9.516  18.432  0.00  0.00    +0.000 A 
ATOM     15  C   UNL     1       0.220  10.142  19.351  0.00  0.00    +0.000 A 
BRANCH  10  17
ATOM     16  C   UNL     1      -0.445   9.691  22.961  0.00  0.00    +0.000 C 
ATOM     17  O   UNL     1      -0.582  10.278  21.668  0.00  0.00    +0.000 OA
ENDBRANCH  10  17
ENDBRANCH   9  13
ENDBRANCH   8   9
ENDBRANCH   1   8
BRANCH   1  18
ATOM     18  C   UNL     1       4.140   5.203  19.448  0.00  0.00    +0.000 C 
BRANCH  18  19
ATOM     19  C   UNL     1       2.929   4.296  19.377  0.00  0.00    +0.000 A 
ATOM     20  C   UNL     1       1.891   4.428  20.310  0.00  0.00    +0.000 A 
ATOM     21  C   UNL     1       0.797   3.562  20.283  0.00  0.00    +0.000 A 
ATOM     22  C   UNL     1       0.724   2.556  19.322  0.00  0.00    +0.000 A 
ATOM     23  C   UNL     1       1.734   2.430  18.372  0.00  0.00    +0.000 A 
ATOM     24  C   UNL     1       2.828   3.298  18.398  0.00  0.00    +0.000 A 
ENDBRANCH  18  19
ENDBRANCH   1  18
TORSDOF 6
ENDMDL
MODEL 2
REMARK VINA RESULT:      -7.9      1.612      4.414
REMARK  Name = 
REMARK  7 active torsions:
REMARK  status: ('A' for Active; 'I' for Inactive)
REMARK    1  A    between atoms: C_1  and  O_2
REMARK    2  A    between atoms: O_2  and  C_3
REMARK    3  A    between atoms: C_6  and  C_7
REMARK    4  A    between atoms: C_7  and  O_8
REMARK    5  A    between atoms: O_8  and  N_9
REMARK    6  A    between atoms: N_9  and  C_10
REMARK    7  A    between atoms: C_10  and  C_11
REMARK                            x       y       z     vdW  Elec       q    Type
REMARK                         _______ _______ _______ _____ _____    ______ ____
ROOT
ATOM      1  N   UNL     1       2.885   5.741  18.429  0.00  0.00    +0.000 N 
ATOM      2  C   UNL     1       2.434   4.645  19.207  0.00  0.00    +0.000 A 
ATOM      3  C   UNL     1       2.217   4.795  20.575  0.00  0.00    +0.000 A 
ATOM      4  C   UNL     1       1.819   3.698  21.339  0.00  0.00    +0.000 A 
ATOM      5  C   UNL     1       1.612   2.475  20.722  0.00  0.00    +0.000 A 
ATOM      6  C   UNL     1       1.803   2.404  19.357  0.00  0.00    +0.000 A 
ATOM      7  N   UNL     1       2.211   3.448  18.603  0.00  0.00    +0.000 NA
ENDROOT
BRANCH   1   8
ATOM      8  O   UNL     1       3.158   6.999  19.041  0.00  0.00    +0.000 OA
BRANCH   8   9
ATOM      9  C   UNL     1       2.298   7.957  18.404  0.00  0.00    +0.000 C 
BRANCH   9  13
ATOM     10  C   UNL     1       0.429  10.576  21.315  0.00  0.00    +0.000 A 
ATOM     11  C   UNL     1       0.780   9.271  21.657  0.00  0.00    +0.000 A 
ATOM     12  C   UNL     1       1.324   8.403  20.702  0.00  0.00    +0.000 A 
ATOM     13  C   UNL     1       1.518   8.823  19.378  0.00  0.00    +0.000 A 
ATOM     14  C   UNL     1       1.081  10.108  19.023  0.00  0.00    +0.000 A 
ATOM     15  C   UNL     1       0.547  10.980  19.982  0.00  0.00    +0.000 A 
BRANCH  10  17
ATOM     16  C   UNL     1      -1.134  10.792  23.075  0.00  0.00    +0.000 C 
ATOM     17  O   UNL     1      -0.050  11.351  22.335  0.00  0.00    +0.000 OA
ENDBRANCH  10  17
ENDBRANCH   9  13
ENDBRANCH   8   9
ENDBRANCH   1   8
BRANCH   1  18
ATOM     18  C   UNL     1       3.895   5.342  17.435  0.00  0.00    +0.000 C 
BRANCH  18  19
ATOM     19  C   UNL     1       5.282   5.784  17.854  0.00  0.00    +0.000 A 
ATOM     20  C   UNL     1       5.949   6.792  17.142  0.00  0.00    +0.000 A 
ATOM     21  C   UNL     1       7.247   7.167  17.490  0.00  0.00    +0.000 A 
ATOM     22  C   UNL     1       7.895   6.544  18.554  0.00  0.00    +0.000 A 
ATOM     23  C   UNL     1       7.236   5.560  19.287  0.00  0.00    +0.000 A 
ATOM     24  C   UNL     1       5.935   5.186  18.940  0.00  0.00    +0.000 A 
ENDBRANCH  18  19
ENDBRANCH   1  18
TORSDOF 6
ENDMDL
MODEL 3
REMARK VINA RESULT:      -7.9      1.450      4.498
REMARK  Name = 
REMARK  7 active torsions:
REMARK  status: ('A' for Active; 'I' for Inactive)
REMARK    1  A    between atoms: C_1  and  O_2
REMARK    2  A    between atoms: O_2  and  C_3
REMARK    3  A    between atoms: C_6  and  C_7
REMARK    4  A    between atoms: C_7  and  O_8
REMARK    5  A    between atoms: O_8  and  N_9
REMARK    6  A    between atoms: N_9  and  C_10
REMARK    7  A    between atoms: C_10  and  C_11
REMARK                            x       y       z     vdW  Elec       q    Type
REMARK                         _______ _______ _______ _____ _____    ______ ____
ROOT
ATOM      1  N   UNL     1       2.984   5.739  18.035  0.00  0.00    +0.000 N 
ATOM      2  C   UNL     1       2.297   4.701  18.714  0.00  0.00    +0.000 A 
ATOM      3  C   UNL     1       1.870   4.883  20.028  0.00  0.00    +0.000 A 
ATOM      4  C   UNL     1       1.237   3.839  20.703  0.00  0.00    +0.000 A 
ATOM      5  C   UNL     1       1.012   2.639  20.047  0.00  0.00    +0.000 A 
ATOM      6  C   UNL     1       1.422   2.539  18.733  0.00  0.00    +0.000 A 
ATOM      7  N   UNL     1       2.057   3.529  18.070  0.00  0.00    +0.000 NA
ENDROOT
BRANCH   1   8
ATOM      8  O   UNL     1       3.278   6.966  18.697  0.00  0.00    +0.000 OA
BRANCH   8   9
ATOM      9  C   UNL     1       2.442   7.965  18.093  0.00  0.00    +0.000 C 
BRANCH   9  13
ATOM     10  C   UNL     1      -0.091  10.178  20.835  0.00  0.00    +0.000 A 
ATOM     11  C   UNL     1       0.161  10.664  19.552  0.00  0.00    +0.000 A 
ATOM     12  C   UNL     1       1.029   9.985  18.688  0.00  0.00    +0.000 A 
ATOM     13  C   UNL     1       1.673   8.808  19.097  0.00  0.00    +0.000 A 
ATOM     14  C   UNL     1       1.482   8.375  20.417  0.00  0.00    +0.000 A 
ATOM     15  C   UNL     1       0.604   9.049  21.277  0.00  0.00    +0.000 A 
BRANCH  10  17
ATOM     16  C   UNL     1      -0.943  10.666  22.985  0.00  0.00    +0.000 C 
ATOM     17  O   UNL     1      -0.989  10.894  21.577  0.00  0.00    +0.000 OA
ENDBRANCH  10  17
ENDBRANCH   9  13
ENDBRANCH   8   9
ENDBRANCH   1   8
BRANCH   1  18
ATOM     18  C   UNL     1       4.100   5.230  17.221  0.00  0.00    +0.000 C 
BRANCH  18  19
ATOM     19  C   UNL     1       5.433   5.720  17.749  0.00  0.00    +0.000 A 
ATOM     20  C   UNL     1       6.133   6.731  17.074  0.00  0.00    +0.000 A 
ATOM     21  C   UNL     1       7.385   7.151  17.525  0.00  0.00    +0.000 A 
ATOM     22  C   UNL     1       7.953   6.569  18.656  0.00  0.00    +0.000 A 
ATOM     23  C   UNL     1       7.258   5.583  19.353  0.00  0.00    +0.000 A 
ATOM     24  C   UNL     1       6.004   5.164  18.902  0.00  0.00    +0.000 A 
ENDBRANCH  18  19
ENDBRANCH   1  18
TORSDOF 6
ENDMDL
MODEL 4
REMARK VINA RESULT:      -7.8      0.189      1.398
REMARK  Name = 
REMARK  7 active torsions:
REMARK  status: ('A' for Active; 'I' for Inactive)
REMARK    1  A    between atoms: C_1  and  O_2
REMARK    2  A    between atoms: O_2  and  C_3
REMARK    3  A    between atoms: C_6  and  C_7
REMARK    4  A    between atoms: C_7  and  O_8
REMARK    5  A    between atoms: O_8  and  N_9
REMARK    6  A    between atoms: N_9  and  C_10
REMARK    7  A    between atoms: C_10  and  C_11
REMARK                            x       y       z     vdW  Elec       q    Type
REMARK                         _______ _______ _______ _____ _____    ______ ____
ROOT
ATOM      1  N   UNL     1       4.232   5.951  18.252  0.00  0.00    +0.000 N 
ATOM      2  C   UNL     1       5.207   5.529  17.313  0.00  0.00    +0.000 A 
ATOM      3  C   UNL     1       4.930   5.565  15.948  0.00  0.00    +0.000 A 
ATOM      4  C   UNL     1       5.878   5.103  15.035  0.00  0.00    +0.000 A 
ATOM      5  C   UNL     1       7.101   4.641  15.495  0.00  0.00    +0.000 A 
ATOM      6  C   UNL     1       7.327   4.672  16.857  0.00  0.00    +0.000 A 
ATOM      7  N   UNL     1       6.414   5.093  17.758  0.00  0.00    +0.000 NA
ENDROOT
BRANCH   1   8
ATOM      8  O   UNL     1       2.946   6.382  17.816  0.00  0.00    +0.000 OA
BRANCH   8   9
ATOM      9  C   UNL     1       2.984   7.818  17.792  0.00  0.00    +0.000 C 
BRANCH   9  13
ATOM     10  C   UNL     1       0.259   9.488  20.726  0.00  0.00    +0.000 A 
ATOM     11  C   UNL     1       0.504  10.154  19.526  0.00  0.00    +0.000 A 
ATOM     12  C   UNL     1       1.431   9.650  18.605  0.00  0.00    +0.000 A 
ATOM     13  C   UNL     1       2.142   8.471  18.874  0.00  0.00    +0.000 A 
ATOM     14  C   UNL     1       1.954   7.857  20.121  0.00  0.00    +0.000 A 
ATOM     15  C   UNL     1       1.016   8.355  21.037  0.00  0.00    +0.000 A 
BRANCH  10  17
ATOM     16  C   UNL     1      -0.559   9.777  22.925  0.00  0.00    +0.000 C 
ATOM     17  O   UNL     1      -0.699  10.042  21.530  0.00  0.00    +0.000 OA
ENDBRANCH  10  17
ENDBRANCH   9  13
ENDBRANCH   8   9
ENDBRANCH   1   8
BRANCH   1  18
ATOM     18  C   UNL     1       4.186   5.081  19.438  0.00  0.00    +0.000 C 
BRANCH  18  19
ATOM     19  C   UNL     1       2.987   4.157  19.397  0.00  0.00    +0.000 A 
ATOM     20  C   UNL     1       2.892   3.164  18.411  0.00  0.00    +0.000 A 
ATOM     21  C   UNL     1       1.766   2.344  18.335  0.00  0.00    +0.000 A 
ATOM     22  C   UNL     1       0.721   2.503  19.243  0.00  0.00    +0.000 A 
ATOM     23  C   UNL     1       0.813   3.467  20.244  0.00  0.00    +0.000 A 
ATOM     24  C   UNL     1       1.941   4.286  20.322  0.00  0.00    +0.000 A 
ENDBRANCH  18  19
ENDBRANCH   1  18
TORSDOF 6
ENDMDL
MODEL 5
REMARK VINA RESULT:      -7.8      1.168      4.234
REMARK  Name = 
REMARK  7 active torsions:
REMARK  status: ('A' for Active; 'I' for Inactive)
REMARK    1  A    between atoms: C_1  and  O_2
REMARK    2  A    between atoms: O_2  and  C_3
REMARK    3  A    between atoms: C_6  and  C_7
REMARK    4  A    between atoms: C_7  and  O_8
REMARK    5  A    between atoms: O_8  and  N_9
REMARK    6  A    between atoms: N_9  and  C_10
REMARK    7  A    between atoms: C_10  and  C_11
REMARK                            x       y       z     vdW  Elec       q    Type
REMARK                         _______ _______ _______ _____ _____    ______ ____
ROOT
ATOM      1  N   UNL     1       3.020   5.283  18.388  0.00  0.00    +0.000 N 
ATOM      2  C   UNL     1       2.693   4.341  19.396  0.00  0.00    +0.000 A 
ATOM      3  C   UNL     1       1.411   4.313  19.943  0.00  0.00    +0.000 A 
ATOM      4  C   UNL     1       1.113   3.414  20.967  0.00  0.00    +0.000 A 
ATOM      5  C   UNL     1       2.088   2.534  21.409  0.00  0.00    +0.000 A 
ATOM      6  C   UNL     1       3.325   2.586  20.796  0.00  0.00    +0.000 A 
ATOM      7  N   UNL     1       3.640   3.464  19.820  0.00  0.00    +0.000 NA
ENDROOT
BRANCH   1   8
ATOM      8  O   UNL     1       2.057   6.235  17.947  0.00  0.00    +0.000 OA
BRANCH   8   9
ATOM      9  C   UNL     1       2.615   7.533  18.211  0.00  0.00    +0.000 C 
BRANCH   9  13
ATOM     10  C   UNL     1       0.688  10.033  21.187  0.00  0.00    +0.000 A 
ATOM     11  C   UNL     1       1.105   8.742  21.508  0.00  0.00    +0.000 A 
ATOM     12  C   UNL     1       1.669   7.909  20.533  0.00  0.00    +0.000 A 
ATOM     13  C   UNL     1       1.816   8.352  19.210  0.00  0.00    +0.000 A 
ATOM     14  C   UNL     1       1.314   9.618  18.877  0.00  0.00    +0.000 A 
ATOM     15  C   UNL     1       0.760  10.455  19.857  0.00  0.00    +0.000 A 
BRANCH  10  17
ATOM     16  C   UNL     1      -0.671  10.079  23.121  0.00  0.00    +0.000 C 
ATOM     17  O   UNL     1       0.195  10.775  22.225  0.00  0.00    +0.000 OA
ENDBRANCH  10  17
ENDBRANCH   9  13
ENDBRANCH   8   9
ENDBRANCH   1   8
BRANCH   1  18
ATOM     18  C   UNL     1       4.365   5.853  18.573  0.00  0.00    +0.000 C 
BRANCH  18  19
ATOM     19  C   UNL     1       5.304   5.413  17.468  0.00  0.00    +0.000 A 
ATOM     20  C   UNL     1       4.871   5.398  16.135  0.00  0.00    +0.000 A 
ATOM     21  C   UNL     1       5.713   4.945  15.119  0.00  0.00    +0.000 A 
ATOM     22  C   UNL     1       6.999   4.503  15.421  0.00  0.00    +0.000 A 
ATOM     23  C   UNL     1       7.453   4.536  16.737  0.00  0.00    +0.000 A 
ATOM     24  C   UNL     1       6.611   4.992  17.754  0.00  0.00    +0.000 A 
ENDBRANCH  18  19
ENDBRANCH   1  18
TORSDOF 6
ENDMDL
MODEL 6
REMARK VINA RESULT:      -7.7      1.145      4.228
REMARK  Name = 
REMARK  7 active torsions:
REMARK  status: ('A' for Active; 'I' for Inactive)
REMARK    1  A    between atoms: C_1  and  O_2
REMARK    2  A    between atoms: O_2  and  C_3
REMARK    3  A    between atoms: C_6  and  C_7
REMARK    4  A    between atoms: C_7  and  O_8
REMARK    5  A    between atoms: O_8  and  N_9
REMARK    6  A    between atoms: N_9  and  C_10
REMARK    7  A    between atoms: C_10  and  C_11
REMARK                            x       y       z     vdW  Elec       q    Type
REMARK                         _______ _______ _______ _____ _____    ______ ____
ROOT
ATOM      1  N   UNL     1       3.094   5.394  18.369  0.00  0.00    +0.000 N 
ATOM      2  C   UNL     1       2.745   4.448  19.366  0.00  0.00    +0.000 A 
ATOM      3  C   UNL     1       1.472   4.460  19.932  0.00  0.00    +0.000 A 
ATOM      4  C   UNL     1       1.155   3.555  20.945  0.00  0.00    +0.000 A 
ATOM      5  C   UNL     1       2.101   2.631  21.357  0.00  0.00    +0.000 A 
ATOM      6  C   UNL     1       3.329   2.645  20.726  0.00  0.00    +0.000 A 
ATOM      7  N   UNL     1       3.664   3.527  19.760  0.00  0.00    +0.000 NA
ENDROOT
BRANCH   1   8
ATOM      8  O   UNL     1       2.162   6.391  17.959  0.00  0.00    +0.000 OA
BRANCH   8   9
ATOM      9  C   UNL     1       2.671   7.646  18.437  0.00  0.00    +0.000 C 
BRANCH   9  13
ATOM     10  C   UNL     1       0.165  10.082  21.008  0.00  0.00    +0.000 A 
ATOM     11  C   UNL     1       0.701   8.881  21.471  0.00  0.00    +0.000 A 
ATOM     12  C   UNL     1       1.457   8.061  20.623  0.00  0.00    +0.000 A 
ATOM     13  C   UNL     1       1.682   8.425  19.288  0.00  0.00    +0.000 A 
ATOM     14  C   UNL     1       1.067   9.590  18.807  0.00  0.00    +0.000 A 
ATOM     15  C   UNL     1       0.320  10.415  19.660  0.00  0.00    +0.000 A 
BRANCH  10  17
ATOM     16  C   UNL     1      -0.720  10.198  23.197  0.00  0.00    +0.000 C 
ATOM     17  O   UNL     1      -0.516  10.826  21.932  0.00  0.00    +0.000 OA
ENDBRANCH  10  17
ENDBRANCH   9  13
ENDBRANCH   8   9
ENDBRANCH   1   8
BRANCH   1  18
ATOM     18  C   UNL     1       4.463   5.908  18.542  0.00  0.00    +0.000 C 
BRANCH  18  19
ATOM     19  C   UNL     1       5.367   5.454  17.414  0.00  0.00    +0.000 A 
ATOM     20  C   UNL     1       6.587   4.823  17.696  0.00  0.00    +0.000 A 
ATOM     21  C   UNL     1       7.448   4.449  16.664  0.00  0.00    +0.000 A 
ATOM     22  C   UNL     1       7.101   4.698  15.338  0.00  0.00    +0.000 A 
ATOM     23  C   UNL     1       5.880   5.300  15.041  0.00  0.00    +0.000 A 
ATOM     24  C   UNL     1       5.017   5.672  16.074  0.00  0.00    +0.000 A 
ENDBRANCH  18  19
ENDBRANCH   1  18
TORSDOF 6
ENDMDL
MODEL 7
REMARK VINA RESULT:      -7.6      1.510      4.510
REMARK  Name = 
REMARK  7 active torsions:
REMARK  status: ('A' for Active; 'I' for Inactive)
REMARK    1  A    between atoms: C_1  and  O_2
REMARK    2  A    between atoms: O_2  and  C_3
REMARK    3  A    between atoms: C_6  and  C_7
REMARK    4  A    between atoms: C_7  and  O_8
REMARK    5  A    between atoms: O_8  and  N_9
REMARK    6  A    between atoms: N_9  and  C_10
REMARK    7  A    between atoms: C_10  and  C_11
REMARK                            x       y       z     vdW  Elec       q    Type
REMARK                         _______ _______ _______ _____ _____    ______ ____
ROOT
ATOM      1  N   UNL     1       2.897   5.623  18.022  0.00  0.00    +0.000 N 
ATOM      2  C   UNL     1       2.219   4.617  18.756  0.00  0.00    +0.000 A 
ATOM      3  C   UNL     1       1.832   4.848  20.074  0.00  0.00    +0.000 A 
ATOM      4  C   UNL     1       1.208   3.835  20.802  0.00  0.00    +0.000 A 
ATOM      5  C   UNL     1       0.951   2.617  20.195  0.00  0.00    +0.000 A 
ATOM      6  C   UNL     1       1.322   2.467  18.873  0.00  0.00    +0.000 A 
ATOM      7  N   UNL     1       1.947   3.427  18.159  0.00  0.00    +0.000 NA
ENDROOT
BRANCH   1   8
ATOM      8  O   UNL     1       3.224   6.868  18.633  0.00  0.00    +0.000 OA
BRANCH   8   9
ATOM      9  C   UNL     1       2.391   7.859  18.010  0.00  0.00    +0.000 C 
BRANCH   9  13
ATOM     10  C   UNL     1      -0.051  10.230  20.701  0.00  0.00    +0.000 A 
ATOM     11  C   UNL     1       0.242  10.690  19.417  0.00  0.00    +0.000 A 
ATOM     12  C   UNL     1       1.083   9.957  18.570  0.00  0.00    +0.000 A 
ATOM     13  C   UNL     1       1.657   8.751  18.996  0.00  0.00    +0.000 A 
ATOM     14  C   UNL     1       1.428   8.341  20.317  0.00  0.00    +0.000 A 
ATOM     15  C   UNL     1       0.577   9.069  21.161  0.00  0.00    +0.000 A 
BRANCH  10  17
ATOM     16  C   UNL     1      -0.483  12.332  21.691  0.00  0.00    +0.000 C 
ATOM     17  O   UNL     1      -0.918  10.999  21.426  0.00  0.00    +0.000 OA
ENDBRANCH  10  17
ENDBRANCH   9  13
ENDBRANCH   8   9
ENDBRANCH   1   8
BRANCH   1  18
ATOM     18  C   UNL     1       3.983   5.074  17.194  0.00  0.00    +0.000 C 
BRANCH  18  19
ATOM     19  C   UNL     1       5.332   5.602  17.637  0.00  0.00    +0.000 A 
ATOM     20  C   UNL     1       5.972   5.057  18.759  0.00  0.00    +0.000 A 
ATOM     21  C   UNL     1       7.190   5.574  19.203  0.00  0.00    +0.000 A 
ATOM     22  C   UNL     1       7.785   6.639  18.531  0.00  0.00    +0.000 A 
ATOM     23  C   UNL     1       7.175   7.173  17.399  0.00  0.00    +0.000 A 
ATOM     24  C   UNL     1       5.957   6.655  16.953  0.00  0.00    +0.000 A 
ENDBRANCH  18  19
ENDBRANCH   1  18
TORSDOF 6
ENDMDL
MODEL 8
REMARK VINA RESULT:      -7.6      1.568      4.420
REMARK  Name = 
REMARK  7 active torsions:
REMARK  status: ('A' for Active; 'I' for Inactive)
REMARK    1  A    between atoms: C_1  and  O_2
REMARK    2  A    between atoms: O_2  and  C_3
REMARK    3  A    between atoms: C_6  and  C_7
REMARK    4  A    between atoms: C_7  and  O_8
REMARK    5  A    between atoms: O_8  and  N_9
REMARK    6  A    between atoms: N_9  and  C_10
REMARK    7  A    between atoms: C_10  and  C_11
REMARK                            x       y       z     vdW  Elec       q    Type
REMARK                         _______ _______ _______ _____ _____    ______ ____
ROOT
ATOM      1  N   UNL     1       3.027   5.795  18.207  0.00  0.00    +0.000 N 
ATOM      2  C   UNL     1       2.513   4.761  19.030  0.00  0.00    +0.000 A 
ATOM      3  C   UNL     1       2.244   5.001  20.376  0.00  0.00    +0.000 A 
ATOM      4  C   UNL     1       1.784   3.964  21.187  0.00  0.00    +0.000 A 
ATOM      5  C   UNL     1       1.567   2.711  20.637  0.00  0.00    +0.000 A 
ATOM      6  C   UNL     1       1.813   2.551  19.288  0.00  0.00    +0.000 A 
ATOM      7  N   UNL     1       2.281   3.535  18.491  0.00  0.00    +0.000 NA
ENDROOT
BRANCH   1   8
ATOM      8  O   UNL     1       3.310   7.080  18.753  0.00  0.00    +0.000 OA
BRANCH   8   9
ATOM      9  C   UNL     1       2.598   8.032  17.946  0.00  0.00    +0.000 C 
BRANCH   9  13
ATOM     10  C   UNL     1      -0.273  10.417  20.156  0.00  0.00    +0.000 A 
ATOM     11  C   UNL     1       0.486   9.442  20.802  0.00  0.00    +0.000 A 
ATOM     12  C   UNL     1       1.366   8.627  20.080  0.00  0.00    +0.000 A 
ATOM     13  C   UNL     1       1.497   8.766  18.690  0.00  0.00    +0.000 A 
ATOM     14  C   UNL     1       0.666   9.688  18.038  0.00  0.00    +0.000 A 
ATOM     15  C   UNL     1      -0.207  10.512  18.764  0.00  0.00    +0.000 A 
BRANCH  10  17
ATOM     16  C   UNL     1      -1.194  12.554  20.576  0.00  0.00    +0.000 C 
ATOM     17  O   UNL     1      -1.066  11.187  20.963  0.00  0.00    +0.000 OA
ENDBRANCH  10  17
ENDBRANCH   9  13
ENDBRANCH   8   9
ENDBRANCH   1   8
BRANCH   1  18
ATOM     18  C   UNL     1       4.065   5.310  17.284  0.00  0.00    +0.000 C 
BRANCH  18  19
ATOM     19  C   UNL     1       5.446   5.742  17.733  0.00  0.00    +0.000 A 
ATOM     20  C   UNL     1       6.030   5.173  18.874  0.00  0.00    +0.000 A 
ATOM     21  C   UNL     1       7.278   5.603  19.323  0.00  0.00    +0.000 A 
ATOM     22  C   UNL     1       7.961   6.605  18.638  0.00  0.00    +0.000 A 
ATOM     23  C   UNL     1       7.407   7.162  17.488  0.00  0.00    +0.000 A 
ATOM     24  C   UNL     1       6.158   6.729  17.037  0.00  0.00    +0.000 A 
ENDBRANCH  18  19
ENDBRANCH   1  18
TORSDOF 6
ENDMDL
MODEL 9
REMARK VINA RESULT:      -7.6      1.131      1.332
REMARK  Name = 
REMARK  7 active torsions:
REMARK  status: ('A' for Active; 'I' for Inactive)
REMARK    1  A    between atoms: C_1  and  O_2
REMARK    2  A    between atoms: O_2  and  C_3
REMARK    3  A    between atoms: C_6  and  C_7
REMARK    4  A    between atoms: C_7  and  O_8
REMARK    5  A    between atoms: O_8  and  N_9
REMARK    6  A    between atoms: N_9  and  C_10
REMARK    7  A    between atoms: C_10  and  C_11
REMARK                            x       y       z     vdW  Elec       q    Type
REMARK                         _______ _______ _______ _____ _____    ______ ____
ROOT
ATOM      1  N   UNL     1       3.627   6.035  18.063  0.00  0.00    +0.000 N 
ATOM      2  C   UNL     1       4.557   5.471  17.154  0.00  0.00    +0.000 A 
ATOM      3  C   UNL     1       5.494   6.280  16.513  0.00  0.00    +0.000 A 
ATOM      4  C   UNL     1       6.373   5.722  15.585  0.00  0.00    +0.000 A 
ATOM      5  C   UNL     1       6.326   4.361  15.333  0.00  0.00    +0.000 A 
ATOM      6  C   UNL     1       5.403   3.609  16.032  0.00  0.00    +0.000 A 
ATOM      7  N   UNL     1       4.528   4.133  16.917  0.00  0.00    +0.000 NA
ENDROOT
BRANCH   1   8
ATOM      8  O   UNL     1       3.614   7.439  18.307  0.00  0.00    +0.000 OA
BRANCH   8   9
ATOM      9  C   UNL     1       2.307   7.905  17.934  0.00  0.00    +0.000 C 
BRANCH   9  13
ATOM     10  C   UNL     1       0.675  10.308  21.157  0.00  0.00    +0.000 A 
ATOM     11  C   UNL     1       1.034   8.978  21.375  0.00  0.00    +0.000 A 
ATOM     12  C   UNL     1       1.500   8.182  20.321  0.00  0.00    +0.000 A 
ATOM     13  C   UNL     1       1.607   8.700  19.022  0.00  0.00    +0.000 A 
ATOM     14  C   UNL     1       1.161  10.010  18.796  0.00  0.00    +0.000 A 
ATOM     15  C   UNL     1       0.705  10.810  19.853  0.00  0.00    +0.000 A 
BRANCH  10  17
ATOM     16  C   UNL     1      -0.713  10.369  23.069  0.00  0.00    +0.000 C 
ATOM     17  O   UNL     1       0.277  11.007  22.263  0.00  0.00    +0.000 OA
ENDBRANCH  10  17
ENDBRANCH   9  13
ENDBRANCH   8   9
ENDBRANCH   1   8
BRANCH   1  18
ATOM     18  C   UNL     1       2.283   5.453  17.920  0.00  0.00    +0.000 C 
BRANCH  18  19
ATOM     19  C   UNL     1       1.955   4.535  19.080  0.00  0.00    +0.000 A 
ATOM     20  C   UNL     1       2.451   4.810  20.362  0.00  0.00    +0.000 A 
ATOM     21  C   UNL     1       2.197   3.942  21.424  0.00  0.00    +0.000 A 
ATOM     22  C   UNL     1       1.442   2.789  21.220  0.00  0.00    +0.000 A 
ATOM     23  C   UNL     1       0.920   2.516  19.958  0.00  0.00    +0.000 A 
ATOM     24  C   UNL     1       1.173   3.386  18.895  0.00  0.00    +0.000 A 
ENDBRANCH  18  19
ENDBRANCH   1  18
TORSDOF 6
ENDMDL
