MODEL 1
REMARK VINA RESULT:      -7.5      0.000      0.000
REMARK  Name = 
REMARK  6 active torsions:
REMARK  status: ('A' for Active; 'I' for Inactive)
REMARK    1  A    between atoms: C_1  and  O_2
REMARK    2  A    between atoms: O_2  and  C_3
REMARK    3  A    between atoms: C_6  and  C_7
REMARK    4  A    between atoms: C_9  and  N_10
REMARK    5  A    between atoms: N_13  and  C_14
REMARK    6  A    between atoms: C_17  and  C_18
REMARK                            x       y       z     vdW  Elec       q    Type
REMARK                         _______ _______ _______ _____ _____    ______ ____
ROOT
ATOM      1  N   UNL     1      -0.650  11.824  20.582  0.00  0.00    +0.000 N 
ATOM      2  C   UNL     1      -0.342  10.549  20.136  0.00  0.00    +0.000 C 
ATOM      3  O   UNL     1      -1.189   9.684  19.898  0.00  0.00    +0.000 OA
ATOM      4  N   UNL     1       1.028  10.301  20.015  0.00  0.00    +0.000 N 
ATOM      5  H   UNL     1      -0.046  12.577  20.282  0.00  0.00    +0.000 HD
ATOM      6  H   UNL     1       1.568  10.726  20.754  0.00  0.00    +0.000 HD
ENDROOT
BRANCH   1  13
ATOM      7  C   UNL     1      -2.960  12.511  20.042  0.00  0.00    +0.000 A 
ATOM      8  C   UNL     1      -4.259  12.836  20.479  0.00  0.00    +0.000 A 
ATOM      9  C   UNL     1      -4.569  12.904  21.840  0.00  0.00    +0.000 A 
ATOM     10  C   UNL     1      -3.585  12.653  22.786  0.00  0.00    +0.000 A 
ATOM     11  C   UNL     1      -3.891  12.704  24.257  0.00  0.00    +0.000 C 
ATOM     12  C   UNL     1      -2.295  12.326  22.355  0.00  0.00    +0.000 A 
ATOM     13  C   UNL     1      -1.967  12.211  20.992  0.00  0.00    +0.000 A 
BRANCH   7  15
ATOM     14  C   UNL     1      -3.399  11.546  17.919  0.00  0.00    +0.000 C 
ATOM     15  O   UNL     1      -2.615  12.442  18.710  0.00  0.00    +0.000 OA
ENDBRANCH   7  15
ENDBRANCH   1  13
BRANCH   4  16
ATOM     16  C   UNL     1       1.429   8.998  19.598  0.00  0.00    +0.000 A 
ATOM     17  C   UNL     1       1.532   7.965  20.540  0.00  0.00    +0.000 A 
ATOM     18  C   UNL     1       2.181   6.770  20.222  0.00  0.00    +0.000 A 
ATOM     19  C   UNL     1       2.780   6.620  18.974  0.00  0.00    +0.000 A 
ATOM     20  C   UNL     1       2.538   7.583  17.981  0.00  0.00    +0.000 A 
ATOM     21  C   UNL     1       1.840   8.765  18.287  0.00  0.00    +0.000 A 
BRANCH  19  22
ATOM     22  C   UNL     1       3.723   5.493  18.689  0.00  0.00    +0.000 C 
ATOM     23  O   UNL     1       4.913   5.653  18.951  0.00  0.00    +0.000 OA
ATOM     24  N   UNL     1       3.219   4.285  18.212  0.00  0.00    +0.000 N 
ATOM     25  C   UNL     1       1.833   3.905  17.983  0.00  0.00    +0.000 C 
ATOM     26  C   UNL     1       1.794   2.426  18.314  0.00  0.00    +0.000 C 
ATOM     27  C   UNL     1       3.158   1.929  17.855  0.00  0.00    +0.000 C 
ATOM     28  C   UNL     1       4.089   3.127  18.055  0.00  0.00    +0.000 C 
ENDBRANCH  19  22
ENDBRANCH   4  16
TORSDOF 4
ENDMDL
MODEL 2
REMARK VINA RESULT:      -7.5      6.710      9.269
REMARK  Name = 
REMARK  6 active torsions:
REMARK  status: ('A' for Active; 'I' for Inactive)
REMARK    1  A    between atoms: C_1  and  O_2
REMARK    2  A    between atoms: O_2  and  C_3
REMARK    3  A    between atoms: C_6  and  C_7
REMARK    4  A    between atoms: C_9  and  N_10
REMARK    5  A    between atoms: N_13  and  C_14
REMARK    6  A    between atoms: C_17  and  C_18
REMARK                            x       y       z     vdW  Elec       q    Type
REMARK                         _______ _______ _______ _____ _____    ______ ____
ROOT
ATOM      1  N   UNL     1       9.606   9.589  19.244  0.00  0.00    +0.000 N 
ATOM      2  C   UNL     1       8.629   8.878  18.567  0.00  0.00    +0.000 C 
ATOM      3  O   UNL     1       7.861   9.384  17.743  0.00  0.00    +0.000 OA
ATOM      4  N   UNL     1       8.552   7.530  18.923  0.00  0.00    +0.000 N 
ATOM      5  H   UNL     1      10.459   9.099  19.473  0.00  0.00    +0.000 HD
ATOM      6  H   UNL     1       8.699   7.378  19.910  0.00  0.00    +0.000 HD
ENDROOT
BRANCH   1  13
ATOM      7  C   UNL     1       9.299  11.800  20.300  0.00  0.00    +0.000 A 
ATOM      8  C   UNL     1       9.458  13.199  20.246  0.00  0.00    +0.000 A 
ATOM      9  C   UNL     1       9.974  13.826  19.109  0.00  0.00    +0.000 A 
ATOM     10  C   UNL     1      10.334  13.067  18.004  0.00  0.00    +0.000 A 
ATOM     11  C   UNL     1      10.906  13.710  16.772  0.00  0.00    +0.000 C 
ATOM     12  C   UNL     1      10.181  11.677  18.056  0.00  0.00    +0.000 A 
ATOM     13  C   UNL     1       9.703  11.018  19.203  0.00  0.00    +0.000 A 
BRANCH   7  15
ATOM     14  C   UNL     1       8.188  11.990  22.387  0.00  0.00    +0.000 C 
ATOM     15  O   UNL     1       8.787  11.148  21.399  0.00  0.00    +0.000 OA
ENDBRANCH   7  15
ENDBRANCH   1  13
BRANCH   4  16
ATOM     16  C   UNL     1       7.545   6.737  18.297  0.00  0.00    +0.000 A 
ATOM     17  C   UNL     1       6.510   7.359  17.587  0.00  0.00    +0.000 A 
ATOM     18  C   UNL     1       5.373   6.642  17.206  0.00  0.00    +0.000 A 
ATOM     19  C   UNL     1       5.239   5.308  17.582  0.00  0.00    +0.000 A 
ATOM     20  C   UNL     1       6.341   4.646  18.148  0.00  0.00    +0.000 A 
ATOM     21  C   UNL     1       7.506   5.357  18.485  0.00  0.00    +0.000 A 
BRANCH  19  22
ATOM     22  C   UNL     1       3.935   4.585  17.453  0.00  0.00    +0.000 C 
ATOM     23  O   UNL     1       3.779   3.839  16.489  0.00  0.00    +0.000 OA
ATOM     24  N   UNL     1       2.978   4.720  18.457  0.00  0.00    +0.000 N 
ATOM     25  C   UNL     1       3.072   5.453  19.710  0.00  0.00    +0.000 C 
ATOM     26  C   UNL     1       2.256   4.627  20.685  0.00  0.00    +0.000 C 
ATOM     27  C   UNL     1       1.133   4.072  19.820  0.00  0.00    +0.000 C 
ATOM     28  C   UNL     1       1.758   3.924  18.431  0.00  0.00    +0.000 C 
ENDBRANCH  19  22
ENDBRANCH   4  16
TORSDOF 4
ENDMDL
MODEL 3
REMARK VINA RESULT:      -7.5      1.069      2.052
REMARK  Name = 
REMARK  6 active torsions:
REMARK  status: ('A' for Active; 'I' for Inactive)
REMARK    1  A    between atoms: C_1  and  O_2
REMARK    2  A    between atoms: O_2  and  C_3
REMARK    3  A    between atoms: C_6  and  C_7
REMARK    4  A    between atoms: C_9  and  N_10
REMARK    5  A    between atoms: N_13  and  C_14
REMARK    6  A    between atoms: C_17  and  C_18
REMARK                            x       y       z     vdW  Elec       q    Type
REMARK                         _______ _______ _______ _____ _____    ______ ____
ROOT
ATOM      1  N   UNL     1      -0.478  11.958  20.354  0.00  0.00    +0.000 N 
ATOM      2  C   UNL     1      -0.183  10.670  19.940  0.00  0.00    +0.000 C 
ATOM      3  O   UNL     1      -0.987   9.735  19.986  0.00  0.00    +0.000 OA
ATOM      4  N   UNL     1       1.131  10.499  19.496  0.00  0.00    +0.000 N 
ATOM      5  H   UNL     1      -0.032  12.717  19.859  0.00  0.00    +0.000 HD
ATOM      6  H   UNL     1       1.799  11.023  20.042  0.00  0.00    +0.000 HD
ENDROOT
BRANCH   1  13
ATOM      7  C   UNL     1      -1.775  12.135  22.448  0.00  0.00    +0.000 A 
ATOM      8  C   UNL     1      -2.954  12.528  23.112  0.00  0.00    +0.000 A 
ATOM      9  C   UNL     1      -4.045  13.041  22.406  0.00  0.00    +0.000 A 
ATOM     10  C   UNL     1      -3.979  13.164  21.025  0.00  0.00    +0.000 A 
ATOM     11  C   UNL     1      -5.131  13.726  20.239  0.00  0.00    +0.000 C 
ATOM     12  C   UNL     1      -2.808  12.778  20.363  0.00  0.00    +0.000 A 
ATOM     13  C   UNL     1      -1.681  12.297  21.054  0.00  0.00    +0.000 A 
BRANCH   7  15
ATOM     14  C   UNL     1      -0.725  10.210  23.355  0.00  0.00    +0.000 C 
ATOM     15  O   UNL     1      -0.683  11.618  23.109  0.00  0.00    +0.000 OA
ENDBRANCH   7  15
ENDBRANCH   1  13
BRANCH   4  16
ATOM     16  C   UNL     1       1.525   9.191  19.087  0.00  0.00    +0.000 A 
ATOM     17  C   UNL     1       1.667   8.175  20.042  0.00  0.00    +0.000 A 
ATOM     18  C   UNL     1       2.311   6.978  19.722  0.00  0.00    +0.000 A 
ATOM     19  C   UNL     1       2.869   6.810  18.457  0.00  0.00    +0.000 A 
ATOM     20  C   UNL     1       2.586   7.755  17.457  0.00  0.00    +0.000 A 
ATOM     21  C   UNL     1       1.893   8.938  17.767  0.00  0.00    +0.000 A 
BRANCH  19  22
ATOM     22  C   UNL     1       3.807   5.683  18.158  0.00  0.00    +0.000 C 
ATOM     23  O   UNL     1       5.013   5.889  18.273  0.00  0.00    +0.000 OA
ATOM     24  N   UNL     1       3.290   4.430  17.837  0.00  0.00    +0.000 N 
ATOM     25  C   UNL     1       1.899   4.004  17.795  0.00  0.00    +0.000 C 
ATOM     26  C   UNL     1       1.941   2.557  18.243  0.00  0.00    +0.000 C 
ATOM     27  C   UNL     1       3.261   2.053  17.676  0.00  0.00    +0.000 C 
ATOM     28  C   UNL     1       4.172   3.281  17.676  0.00  0.00    +0.000 C 
ENDBRANCH  19  22
ENDBRANCH   4  16
TORSDOF 4
ENDMDL
MODEL 4
REMARK VINA RESULT:      -7.5      2.621      9.696
REMARK  Name = 
REMARK  6 active torsions:
REMARK  status: ('A' for Active; 'I' for Inactive)
REMARK    1  A    between atoms: C_1  and  O_2
REMARK    2  A    between atoms: O_2  and  C_3
REMARK    3  A    between atoms: C_6  and  C_7
REMARK    4  A    between atoms: C_9  and  N_10
REMARK    5  A    between atoms: N_13  and  C_14
REMARK    6  A    between atoms: C_17  and  C_18
REMARK                            x       y       z     vdW  Elec       q    Type
REMARK                         _______ _______ _______ _____ _____    ______ ____
ROOT
ATOM      1  N   UNL     1       3.993   5.394  18.715  0.00  0.00    +0.000 N 
ATOM      2  C   UNL     1       3.331   6.610  18.669  0.00  0.00    +0.000 C 
ATOM      3  O   UNL     1       3.496   7.446  17.776  0.00  0.00    +0.000 OA
ATOM      4  N   UNL     1       2.479   6.839  19.752  0.00  0.00    +0.000 N 
ATOM      5  H   UNL     1       3.493   4.611  19.111  0.00  0.00    +0.000 HD
ATOM      6  H   UNL     1       2.856   6.497  20.624  0.00  0.00    +0.000 HD
ENDROOT
BRANCH   1  13
ATOM      7  C   UNL     1       6.398   5.012  18.309  0.00  0.00    +0.000 A 
ATOM      8  C   UNL     1       7.431   4.627  17.432  0.00  0.00    +0.000 A 
ATOM      9  C   UNL     1       7.170   4.328  16.093  0.00  0.00    +0.000 A 
ATOM     10  C   UNL     1       5.873   4.414  15.605  0.00  0.00    +0.000 A 
ATOM     11  C   UNL     1       5.557   4.085  14.173  0.00  0.00    +0.000 C 
ATOM     12  C   UNL     1       4.844   4.793  16.475  0.00  0.00    +0.000 A 
ATOM     13  C   UNL     1       5.074   5.059  17.837  0.00  0.00    +0.000 A 
BRANCH   7  15
ATOM     14  C   UNL     1       7.972   5.632  19.973  0.00  0.00    +0.000 C 
ATOM     15  O   UNL     1       6.619   5.321  19.633  0.00  0.00    +0.000 OA
ENDBRANCH   7  15
ENDBRANCH   1  13
BRANCH   4  16
ATOM     16  C   UNL     1       1.790   8.086  19.799  0.00  0.00    +0.000 A 
ATOM     17  C   UNL     1       1.060   8.437  20.943  0.00  0.00    +0.000 A 
ATOM     18  C   UNL     1       0.159   9.504  20.916  0.00  0.00    +0.000 A 
ATOM     19  C   UNL     1      -0.060  10.194  19.727  0.00  0.00    +0.000 A 
ATOM     20  C   UNL     1       0.785   9.950  18.631  0.00  0.00    +0.000 A 
ATOM     21  C   UNL     1       1.728   8.908  18.675  0.00  0.00    +0.000 A 
BRANCH  19  22
ATOM     22  C   UNL     1      -1.209  11.142  19.572  0.00  0.00    +0.000 C 
ATOM     23  O   UNL     1      -1.186  12.188  20.215  0.00  0.00    +0.000 OA
ATOM     24  N   UNL     1      -2.218  10.847  18.658  0.00  0.00    +0.000 N 
ATOM     25  C   UNL     1      -2.312   9.723  17.738  0.00  0.00    +0.000 C 
ATOM     26  C   UNL     1      -3.011  10.298  16.522  0.00  0.00    +0.000 C 
ATOM     27  C   UNL     1      -3.978  11.311  17.119  0.00  0.00    +0.000 C 
ATOM     28  C   UNL     1      -3.275  11.811  18.383  0.00  0.00    +0.000 C 
ENDBRANCH  19  22
ENDBRANCH   4  16
TORSDOF 4
ENDMDL
MODEL 5
REMARK VINA RESULT:      -7.4      2.379      9.096
REMARK  Name = 
REMARK  6 active torsions:
REMARK  status: ('A' for Active; 'I' for Inactive)
REMARK    1  A    between atoms: C_1  and  O_2
REMARK    2  A    between atoms: O_2  and  C_3
REMARK    3  A    between atoms: C_6  and  C_7
REMARK    4  A    between atoms: C_9  and  N_10
REMARK    5  A    between atoms: N_13  and  C_14
REMARK    6  A    between atoms: C_17  and  C_18
REMARK                            x       y       z     vdW  Elec       q    Type
REMARK                         _______ _______ _______ _____ _____    ______ ____
ROOT
ATOM      1  N   UNL     1       3.256   5.894  19.830  0.00  0.00    +0.000 N 
ATOM      2  C   UNL     1       2.400   6.949  19.559  0.00  0.00    +0.000 C 
ATOM      3  O   UNL     1       1.990   7.224  18.427  0.00  0.00    +0.000 OA
ATOM      4  N   UNL     1       2.063   7.714  20.678  0.00  0.00    +0.000 N 
ATOM      5  H   UNL     1       3.149   5.429  20.721  0.00  0.00    +0.000 HD
ATOM      6  H   UNL     1       2.837   7.838  21.313  0.00  0.00    +0.000 HD
ENDROOT
BRANCH   1  13
ATOM      7  C   UNL     1       3.319   3.955  18.303  0.00  0.00    +0.000 A 
ATOM      8  C   UNL     1       3.958   3.258  17.258  0.00  0.00    +0.000 A 
ATOM      9  C   UNL     1       5.181   3.691  16.741  0.00  0.00    +0.000 A 
ATOM     10  C   UNL     1       5.790   4.825  17.261  0.00  0.00    +0.000 A 
ATOM     11  C   UNL     1       7.099   5.324  16.716  0.00  0.00    +0.000 C 
ATOM     12  C   UNL     1       5.156   5.522  18.296  0.00  0.00    +0.000 A 
ATOM     13  C   UNL     1       3.905   5.131  18.806  0.00  0.00    +0.000 A 
BRANCH   7  15
ATOM     14  C   UNL     1       1.905   2.142  18.886  0.00  0.00    +0.000 C 
ATOM     15  O   UNL     1       2.118   3.554  18.843  0.00  0.00    +0.000 OA
ENDBRANCH   7  15
ENDBRANCH   1  13
BRANCH   4  16
ATOM     16  C   UNL     1       1.214   8.842  20.475  0.00  0.00    +0.000 A 
ATOM     17  C   UNL     1       0.076   9.010  21.275  0.00  0.00    +0.000 A 
ATOM     18  C   UNL     1      -0.913   9.934  20.926  0.00  0.00    +0.000 A 
ATOM     19  C   UNL     1      -0.795  10.659  19.744  0.00  0.00    +0.000 A 
ATOM     20  C   UNL     1       0.416  10.609  19.031  0.00  0.00    +0.000 A 
ATOM     21  C   UNL     1       1.432   9.716  19.412  0.00  0.00    +0.000 A 
BRANCH  19  22
ATOM     22  C   UNL     1      -1.944  11.437  19.184  0.00  0.00    +0.000 C 
ATOM     23  O   UNL     1      -2.162  12.557  19.640  0.00  0.00    +0.000 OA
ATOM     24  N   UNL     1      -2.677  10.906  18.124  0.00  0.00    +0.000 N 
ATOM     25  C   UNL     1      -2.455   9.664  17.398  0.00  0.00    +0.000 C 
ATOM     26  C   UNL     1      -2.885   9.983  15.979  0.00  0.00    +0.000 C 
ATOM     27  C   UNL     1      -4.046  10.949  16.174  0.00  0.00    +0.000 C 
ATOM     28  C   UNL     1      -3.711  11.694  17.467  0.00  0.00    +0.000 C 
ENDBRANCH  19  22
ENDBRANCH   4  16
TORSDOF 4
ENDMDL
MODEL 6
REMARK VINA RESULT:      -7.3      2.213      3.040
REMARK  Name = 
REMARK  6 active torsions:
REMARK  status: ('A' for Active; 'I' for Inactive)
REMARK    1  A    between atoms: C_1  and  O_2
REMARK    2  A    between atoms: O_2  and  C_3
REMARK    3  A    between atoms: C_6  and  C_7
REMARK    4  A    between atoms: C_9  and  N_10
REMARK    5  A    between atoms: N_13  and  C_14
REMARK    6  A    between atoms: C_17  and  C_18
REMARK                            x       y       z     vdW  Elec       q    Type
REMARK                         _______ _______ _______ _____ _____    ______ ____
ROOT
ATOM      1  N   UNL     1      -1.856  11.817  18.455  0.00  0.00    +0.000 N 
ATOM      2  C   UNL     1      -1.041  10.698  18.440  0.00  0.00    +0.000 C 
ATOM      3  O   UNL     1      -1.425   9.574  18.104  0.00  0.00    +0.000 OA
ATOM      4  N   UNL     1       0.263  10.934  18.883  0.00  0.00    +0.000 N 
ATOM      5  H   UNL     1      -1.425  12.706  18.240  0.00  0.00    +0.000 HD
ATOM      6  H   UNL     1       0.301  11.582  19.656  0.00  0.00    +0.000 HD
ENDROOT
BRANCH   1  13
ATOM      7  C   UNL     1      -3.820  11.516  16.988  0.00  0.00    +0.000 A 
ATOM      8  C   UNL     1      -5.218  11.406  16.845  0.00  0.00    +0.000 A 
ATOM      9  C   UNL     1      -6.072  11.566  17.938  0.00  0.00    +0.000 A 
ATOM     10  C   UNL     1      -5.546  11.844  19.192  0.00  0.00    +0.000 A 
ATOM     11  C   UNL     1      -6.439  12.007  20.391  0.00  0.00    +0.000 C 
ATOM     12  C   UNL     1      -4.159  11.950  19.339  0.00  0.00    +0.000 A 
ATOM     13  C   UNL     1      -3.274  11.753  18.263  0.00  0.00    +0.000 A 
BRANCH   7  15
ATOM     14  C   UNL     1      -3.280  10.345  14.997  0.00  0.00    +0.000 C 
ATOM     15  O   UNL     1      -2.947  11.373  15.933  0.00  0.00    +0.000 OA
ENDBRANCH   7  15
ENDBRANCH   1  13
BRANCH   4  16
ATOM     16  C   UNL     1       1.156   9.823  18.934  0.00  0.00    +0.000 A 
ATOM     17  C   UNL     1       1.875   9.453  17.789  0.00  0.00    +0.000 A 
ATOM     18  C   UNL     1       2.533   8.223  17.725  0.00  0.00    +0.000 A 
ATOM     19  C   UNL     1       2.430   7.328  18.787  0.00  0.00    +0.000 A 
ATOM     20  C   UNL     1       1.850   7.763  19.991  0.00  0.00    +0.000 A 
ATOM     21  C   UNL     1       1.232   9.022  20.072  0.00  0.00    +0.000 A 
BRANCH  19  22
ATOM     22  C   UNL     1       2.866   5.902  18.655  0.00  0.00    +0.000 C 
ATOM     23  O   UNL     1       2.163   5.033  19.164  0.00  0.00    +0.000 OA
ATOM     24  N   UNL     1       4.001   5.602  17.905  0.00  0.00    +0.000 N 
ATOM     25  C   UNL     1       4.850   6.503  17.139  0.00  0.00    +0.000 C 
ATOM     26  C   UNL     1       5.297   5.672  15.953  0.00  0.00    +0.000 C 
ATOM     27  C   UNL     1       5.427   4.271  16.535  0.00  0.00    +0.000 C 
ATOM     28  C   UNL     1       4.373   4.218  17.642  0.00  0.00    +0.000 C 
ENDBRANCH  19  22
ENDBRANCH   4  16
TORSDOF 4
ENDMDL
MODEL 7
REMARK VINA RESULT:      -7.3      7.408     11.823
REMARK  Name = 
REMARK  6 active torsions:
REMARK  status: ('A' for Active; 'I' for Inactive)
REMARK    1  A    between atoms: C_1  and  O_2
REMARK    2  A    between atoms: O_2  and  C_3
REMARK    3  A    between atoms: C_6  and  C_7
REMARK    4  A    between atoms: C_9  and  N_10
REMARK    5  A    between atoms: N_13  and  C_14
REMARK    6  A    between atoms: C_17  and  C_18
REMARK                            x       y       z     vdW  Elec       q    Type
REMARK                         _______ _______ _______ _____ _____    ______ ____
ROOT
ATOM      1  N   UNL     1       7.768   6.579  18.378  0.00  0.00    +0.000 N 
ATOM      2  C   UNL     1       7.899   7.957  18.321  0.00  0.00    +0.000 C 
ATOM      3  O   UNL     1       7.186   8.684  17.624  0.00  0.00    +0.000 OA
ATOM      4  N   UNL     1       8.945   8.464  19.096  0.00  0.00    +0.000 N 
ATOM      5  H   UNL     1       7.981   6.130  19.258  0.00  0.00    +0.000 HD
ATOM      6  H   UNL     1       9.764   7.874  19.081  0.00  0.00    +0.000 HD
ENDROOT
BRANCH   1  13
ATOM      7  C   UNL     1       5.691   5.319  17.938  0.00  0.00    +0.000 A 
ATOM      8  C   UNL     1       4.857   4.640  17.027  0.00  0.00    +0.000 A 
ATOM      9  C   UNL     1       5.246   4.440  15.700  0.00  0.00    +0.000 A 
ATOM     10  C   UNL     1       6.477   4.909  15.263  0.00  0.00    +0.000 A 
ATOM     11  C   UNL     1       6.918   4.721  13.838  0.00  0.00    +0.000 C 
ATOM     12  C   UNL     1       7.306   5.586  16.164  0.00  0.00    +0.000 A 
ATOM     13  C   UNL     1       6.921   5.837  17.493  0.00  0.00    +0.000 A 
BRANCH   7  15
ATOM     14  C   UNL     1       3.944   5.486  19.534  0.00  0.00    +0.000 C 
ATOM     15  O   UNL     1       5.345   5.528  19.255  0.00  0.00    +0.000 OA
ENDBRANCH   7  15
ENDBRANCH   1  13
BRANCH   4  16
ATOM     16  C   UNL     1       9.169   9.872  19.062  0.00  0.00    +0.000 A 
ATOM     17  C   UNL     1       9.497  10.496  17.851  0.00  0.00    +0.000 A 
ATOM     18  C   UNL     1       9.991  11.803  17.831  0.00  0.00    +0.000 A 
ATOM     19  C   UNL     1      10.212  12.477  19.029  0.00  0.00    +0.000 A 
ATOM     20  C   UNL     1       9.734  11.915  20.225  0.00  0.00    +0.000 A 
ATOM     21  C   UNL     1       9.190  10.619  20.238  0.00  0.00    +0.000 A 
BRANCH  19  22
ATOM     22  C   UNL     1      10.999  13.749  19.079  0.00  0.00    +0.000 C 
ATOM     23  O   UNL     1      12.224  13.670  19.121  0.00  0.00    +0.000 OA
ATOM     24  N   UNL     1      10.330  14.968  19.001  0.00  0.00    +0.000 N 
ATOM     25  C   UNL     1       8.908  15.216  18.815  0.00  0.00    +0.000 C 
ATOM     26  C   UNL     1       8.858  16.487  17.990  0.00  0.00    +0.000 C 
ATOM     27  C   UNL     1      10.053  17.282  18.498  0.00  0.00    +0.000 C 
ATOM     28  C   UNL     1      11.074  16.218  18.908  0.00  0.00    +0.000 C 
ENDBRANCH  19  22
ENDBRANCH   4  16
TORSDOF 4
ENDMDL
MODEL 8
REMARK VINA RESULT:      -7.2      2.437      9.614
REMARK  Name = 
REMARK  6 active torsions:
REMARK  status: ('A' for Active; 'I' for Inactive)
REMARK    1  A    between atoms: C_1  and  O_2
REMARK    2  A    between atoms: O_2  and  C_3
REMARK    3  A    between atoms: C_6  and  C_7
REMARK    4  A    between atoms: C_9  and  N_10
REMARK    5  A    between atoms: N_13  and  C_14
REMARK    6  A    between atoms: C_17  and  C_18
REMARK                            x       y       z     vdW  Elec       q    Type
REMARK                         _______ _______ _______ _____ _____    ______ ____
ROOT
ATOM      1  N   UNL     1       2.310   6.640  20.756  0.00  0.00    +0.000 N 
ATOM      2  C   UNL     1       1.388   7.674  20.755  0.00  0.00    +0.000 C 
ATOM      3  O   UNL     1       0.606   7.894  19.825  0.00  0.00    +0.000 OA
ATOM      4  N   UNL     1       1.442   8.489  21.888  0.00  0.00    +0.000 N 
ATOM      5  H   UNL     1       2.527   6.216  21.647  0.00  0.00    +0.000 HD
ATOM      6  H   UNL     1       2.385   8.648  22.211  0.00  0.00    +0.000 HD
ENDROOT
BRANCH   1  13
ATOM      7  C   UNL     1       1.895   4.624  19.392  0.00  0.00    +0.000 A 
ATOM      8  C   UNL     1       2.148   3.883  18.220  0.00  0.00    +0.000 A 
ATOM      9  C   UNL     1       3.095   4.307  17.285  0.00  0.00    +0.000 A 
ATOM     10  C   UNL     1       3.810   5.476  17.507  0.00  0.00    +0.000 A 
ATOM     11  C   UNL     1       4.826   5.966  16.513  0.00  0.00    +0.000 C 
ATOM     12  C   UNL     1       3.558   6.217  18.667  0.00  0.00    +0.000 A 
ATOM     13  C   UNL     1       2.581   5.834  19.604  0.00  0.00    +0.000 A 
BRANCH   7  15
ATOM     14  C   UNL     1       1.336   3.084  21.107  0.00  0.00    +0.000 C 
ATOM     15  O   UNL     1       0.975   4.234  20.339  0.00  0.00    +0.000 OA
ENDBRANCH   7  15
ENDBRANCH   1  13
BRANCH   4  16
ATOM     16  C   UNL     1       0.550   9.600  21.946  0.00  0.00    +0.000 A 
ATOM     17  C   UNL     1       0.820  10.750  21.191  0.00  0.00    +0.000 A 
ATOM     18  C   UNL     1       0.133  11.942  21.434  0.00  0.00    +0.000 A 
ATOM     19  C   UNL     1      -0.792  12.007  22.472  0.00  0.00    +0.000 A 
ATOM     20  C   UNL     1      -1.178  10.820  23.118  0.00  0.00    +0.000 A 
ATOM     21  C   UNL     1      -0.521   9.609  22.837  0.00  0.00    +0.000 A 
BRANCH  19  22
ATOM     22  C   UNL     1      -1.336  13.315  22.956  0.00  0.00    +0.000 C 
ATOM     23  O   UNL     1      -0.567  14.085  23.527  0.00  0.00    +0.000 OA
ATOM     24  N   UNL     1      -2.660  13.648  22.681  0.00  0.00    +0.000 N 
ATOM     25  C   UNL     1      -3.643  12.904  21.907  0.00  0.00    +0.000 C 
ATOM     26  C   UNL     1      -4.479  13.978  21.239  0.00  0.00    +0.000 C 
ATOM     27  C   UNL     1      -4.514  15.090  22.278  0.00  0.00    +0.000 C 
ATOM     28  C   UNL     1      -3.180  14.967  23.016  0.00  0.00    +0.000 C 
ENDBRANCH  19  22
ENDBRANCH   4  16
TORSDOF 4
ENDMDL
MODEL 9
REMARK VINA RESULT:      -7.2      2.486      9.734
REMARK  Name = 
REMARK  6 active torsions:
REMARK  status: ('A' for Active; 'I' for Inactive)
REMARK    1  A    between atoms: C_1  and  O_2
REMARK    2  A    between atoms: O_2  and  C_3
REMARK    3  A    between atoms: C_6  and  C_7
REMARK    4  A    between atoms: C_9  and  N_10
REMARK    5  A    between atoms: N_13  and  C_14
REMARK    6  A    between atoms: C_17  and  C_18
REMARK                            x       y       z     vdW  Elec       q    Type
REMARK                         _______ _______ _______ _____ _____    ______ ____
ROOT
ATOM      1  N   UNL     1       1.860   7.979  21.100  0.00  0.00    +0.000 N 
ATOM      2  C   UNL     1       0.682   8.694  21.238  0.00  0.00    +0.000 C 
ATOM      3  O   UNL     1      -0.416   8.288  20.846  0.00  0.00    +0.000 OA
ATOM      4  N   UNL     1       0.842   9.951  21.827  0.00  0.00    +0.000 N 
ATOM      5  H   UNL     1       2.555   8.089  21.825  0.00  0.00    +0.000 HD
ATOM      6  H   UNL     1       1.688  10.416  21.532  0.00  0.00    +0.000 HD
ENDROOT
BRANCH   1  13
ATOM      7  C   UNL     1       2.442   6.816  19.001  0.00  0.00    +0.000 A 
ATOM      8  C   UNL     1       2.577   5.611  18.283  0.00  0.00    +0.000 A 
ATOM      9  C   UNL     1       2.205   4.387  18.844  0.00  0.00    +0.000 A 
ATOM     10  C   UNL     1       1.686   4.347  20.131  0.00  0.00    +0.000 A 
ATOM     11  C   UNL     1       1.290   3.044  20.768  0.00  0.00    +0.000 C 
ATOM     12  C   UNL     1       1.554   5.541  20.849  0.00  0.00    +0.000 A 
ATOM     13  C   UNL     1       1.959   6.780  20.322  0.00  0.00    +0.000 A 
BRANCH   7  15
ATOM     14  C   UNL     1       1.775   8.692  17.712  0.00  0.00    +0.000 C 
ATOM     15  O   UNL     1       2.791   8.041  18.478  0.00  0.00    +0.000 OA
ENDBRANCH   7  15
ENDBRANCH   1  13
BRANCH   4  16
ATOM     16  C   UNL     1      -0.319  10.766  21.970  0.00  0.00    +0.000 A 
ATOM     17  C   UNL     1      -0.573  11.786  21.044  0.00  0.00    +0.000 A 
ATOM     18  C   UNL     1      -1.532  12.768  21.306  0.00  0.00    +0.000 A 
ATOM     19  C   UNL     1      -2.206  12.767  22.524  0.00  0.00    +0.000 A 
ATOM     20  C   UNL     1      -2.071  11.660  23.378  0.00  0.00    +0.000 A 
ATOM     21  C   UNL     1      -1.142  10.645  23.089  0.00  0.00    +0.000 A 
BRANCH  19  22
ATOM     22  C   UNL     1      -3.020  13.942  22.969  0.00  0.00    +0.000 C 
ATOM     23  O   UNL     1      -4.203  13.985  22.638  0.00  0.00    +0.000 OA
ATOM     24  N   UNL     1      -2.440  14.900  23.797  0.00  0.00    +0.000 N 
ATOM     25  C   UNL     1      -1.104  14.913  24.376  0.00  0.00    +0.000 C 
ATOM     26  C   UNL     1      -1.291  15.580  25.724  0.00  0.00    +0.000 C 
ATOM     27  C   UNL     1      -2.382  16.608  25.458  0.00  0.00    +0.000 C 
ATOM     28  C   UNL     1      -3.241  15.980  24.360  0.00  0.00    +0.000 C 
ENDBRANCH  19  22
ENDBRANCH   4  16
TORSDOF 4
ENDMDL
