MODEL 1
REMARK VINA RESULT:      -8.1      0.000      0.000
REMARK  Name = 
REMARK  5 active torsions:
REMARK  status: ('A' for Active; 'I' for Inactive)
REMARK    1  A    between atoms: N_1  and  C_2
REMARK    2  A    between atoms: N_5  and  C_6
REMARK    3  A    between atoms: C_6  and  C_7
REMARK    4  A    between atoms: C_6  and  C_13
REMARK    5  A    between atoms: C_18  and  O_19
REMARK                            x       y       z     vdW  Elec       q    Type
REMARK                         _______ _______ _______ _____ _____    ______ ____
ROOT
ATOM      1  C   UNL     1       4.055   4.984  18.664  0.00  0.00    +0.000 C 
ENDROOT
BRANCH   1   2
ATOM      2  C   UNL     1       3.222   6.244  18.944  0.00  0.00    +0.000 A 
ATOM      3  C   UNL     1       3.102   7.257  17.970  0.00  0.00    +0.000 A 
ATOM      4  C   UNL     1       2.290   8.341  18.239  0.00  0.00    +0.000 A 
ATOM      5  C   UNL     1       1.600   8.455  19.421  0.00  0.00    +0.000 A 
ATOM      6  C   UNL     1       1.695   7.505  20.412  0.00  0.00    +0.000 A 
ATOM      7  C   UNL     1       2.516   6.400  20.163  0.00  0.00    +0.000 A 
ATOM      8  O   UNL     1       0.838   9.581  19.475  0.00  0.00    +0.000 OA
ATOM      9  C   UNL     1       1.114  10.155  18.181  0.00  0.00    +0.000 C 
ATOM     10  O   UNL     1       2.055   9.387  17.401  0.00  0.00    +0.000 OA
BRANCH   7  11
ATOM     11  O   UNL     1       2.631   5.434  21.127  0.00  0.00    +0.000 OA
ATOM     12  H   UNL     1       1.741   5.155  21.403  0.00  0.00    +0.000 HD
ENDBRANCH   7  11
ENDBRANCH   1   2
BRANCH   1  13
ATOM     13  C   UNL     1       5.199   5.279  17.686  0.00  0.00    +0.000 A 
ATOM     14  C   UNL     1       6.341   5.999  18.063  0.00  0.00    +0.000 A 
ATOM     15  C   UNL     1       7.295   6.299  17.106  0.00  0.00    +0.000 A 
ATOM     16  N   UNL     1       7.212   5.912  15.816  0.00  0.00    +0.000 NA
ATOM     17  C   UNL     1       6.127   5.187  15.474  0.00  0.00    +0.000 A 
ATOM     18  C   UNL     1       5.111   4.848  16.355  0.00  0.00    +0.000 A 
ENDBRANCH   1  13
BRANCH   1  22
ATOM     19  C   UNL     1       1.070   2.766  18.503  0.00  0.00    +0.000 C 
ATOM     20  C   UNL     1       2.209   1.783  18.743  0.00  0.00    +0.000 C 
ATOM     21  C   UNL     1       3.377   2.668  19.135  0.00  0.00    +0.000 C 
ATOM     22  N   UNL     1       3.218   3.826  18.233  0.00  0.00    +0.000 NA
ATOM     23  C   UNL     1       1.774   4.126  18.308  0.00  0.00    +0.000 C 
BRANCH  19  24
ATOM     24  N   UNL     1       0.141   2.785  19.637  0.00  0.00    +0.000 NA
ATOM     25  H   UNL     1       0.369   3.568  20.249  0.00  0.00    +0.000 HD
ATOM     26  H   UNL     1       0.261   1.937  20.191  0.00  0.00    +0.000 HD
ENDBRANCH  19  24
ENDBRANCH   1  22
TORSDOF 5
ENDMDL
MODEL 2
REMARK VINA RESULT:      -7.5      2.981      5.392
REMARK  Name = 
REMARK  5 active torsions:
REMARK  status: ('A' for Active; 'I' for Inactive)
REMARK    1  A    between atoms: N_1  and  C_2
REMARK    2  A    between atoms: N_5  and  C_6
REMARK    3  A    between atoms: C_6  and  C_7
REMARK    4  A    between atoms: C_6  and  C_13
REMARK    5  A    between atoms: C_18  and  O_19
REMARK                            x       y       z     vdW  Elec       q    Type
REMARK                         _______ _______ _______ _____ _____    ______ ____
ROOT
ATOM      1  C   UNL     1       5.898   5.788  15.905  0.00  0.00    +0.000 C 
ENDROOT
BRANCH   1   2
ATOM      2  C   UNL     1       4.786   5.111  16.722  0.00  0.00    +0.000 A 
ATOM      3  C   UNL     1       4.754   3.709  16.869  0.00  0.00    +0.000 A 
ATOM      4  C   UNL     1       3.776   3.150  17.667  0.00  0.00    +0.000 A 
ATOM      5  C   UNL     1       2.841   3.919  18.316  0.00  0.00    +0.000 A 
ATOM      6  C   UNL     1       2.815   5.289  18.192  0.00  0.00    +0.000 A 
ATOM      7  C   UNL     1       3.795   5.878  17.386  0.00  0.00    +0.000 A 
ATOM      8  O   UNL     1       1.986   3.177  19.070  0.00  0.00    +0.000 OA
ATOM      9  C   UNL     1       2.501   1.850  18.835  0.00  0.00    +0.000 C 
ATOM     10  O   UNL     1       3.621   1.823  17.925  0.00  0.00    +0.000 OA
BRANCH   7  11
ATOM     11  O   UNL     1       3.801   7.240  17.243  0.00  0.00    +0.000 OA
ATOM     12  H   UNL     1       4.155   7.642  18.055  0.00  0.00    +0.000 HD
ENDBRANCH   7  11
ENDBRANCH   1   2
BRANCH   1  13
ATOM     13  C   UNL     1       6.185   5.016  14.612  0.00  0.00    +0.000 A 
ATOM     14  C   UNL     1       7.399   5.139  13.920  0.00  0.00    +0.000 A 
ATOM     15  C   UNL     1       7.557   4.476  12.714  0.00  0.00    +0.000 A 
ATOM     16  N   UNL     1       6.615   3.682  12.165  0.00  0.00    +0.000 NA
ATOM     17  C   UNL     1       5.466   3.542  12.858  0.00  0.00    +0.000 A 
ATOM     18  C   UNL     1       5.207   4.175  14.065  0.00  0.00    +0.000 A 
ENDBRANCH   1  13
BRANCH   1  22
ATOM     19  C   UNL     1       8.154   5.695  18.864  0.00  0.00    +0.000 C 
ATOM     20  C   UNL     1       8.187   7.163  18.460  0.00  0.00    +0.000 C 
ATOM     21  C   UNL     1       7.041   7.295  17.475  0.00  0.00    +0.000 C 
ATOM     22  N   UNL     1       7.130   6.036  16.709  0.00  0.00    +0.000 NA
ATOM     23  C   UNL     1       7.330   5.011  17.752  0.00  0.00    +0.000 C 
BRANCH  19  24
ATOM     24  N   UNL     1       7.543   5.524  20.186  0.00  0.00    +0.000 NA
ATOM     25  H   UNL     1       8.245   5.188  20.844  0.00  0.00    +0.000 HD
ATOM     26  H   UNL     1       6.820   4.806  20.138  0.00  0.00    +0.000 HD
ENDBRANCH  19  24
ENDBRANCH   1  22
TORSDOF 5
ENDMDL
MODEL 3
REMARK VINA RESULT:      -7.4      1.026      4.236
REMARK  Name = 
REMARK  5 active torsions:
REMARK  status: ('A' for Active; 'I' for Inactive)
REMARK    1  A    between atoms: N_1  and  C_2
REMARK    2  A    between atoms: N_5  and  C_6
REMARK    3  A    between atoms: C_6  and  C_7
REMARK    4  A    between atoms: C_6  and  C_13
REMARK    5  A    between atoms: C_18  and  O_19
REMARK                            x       y       z     vdW  Elec       q    Type
REMARK                         _______ _______ _______ _____ _____    ______ ____
ROOT
ATOM      1  C   UNL     1       3.656   5.327  17.766  0.00  0.00    +0.000 C 
ENDROOT
BRANCH   1   2
ATOM      2  C   UNL     1       2.976   6.560  18.381  0.00  0.00    +0.000 A 
ATOM      3  C   UNL     1       2.628   7.664  17.576  0.00  0.00    +0.000 A 
ATOM      4  C   UNL     1       1.959   8.722  18.159  0.00  0.00    +0.000 A 
ATOM      5  C   UNL     1       1.627   8.726  19.492  0.00  0.00    +0.000 A 
ATOM      6  C   UNL     1       1.959   7.683  20.325  0.00  0.00    +0.000 A 
ATOM      7  C   UNL     1       2.641   6.601  19.758  0.00  0.00    +0.000 A 
ATOM      8  O   UNL     1       0.949   9.847  19.859  0.00  0.00    +0.000 OA
ATOM      9  C   UNL     1       0.877  10.543  18.597  0.00  0.00    +0.000 C 
ATOM     10  O   UNL     1       1.539   9.847  17.520  0.00  0.00    +0.000 OA
BRANCH   7  11
ATOM     11  O   UNL     1       2.983   5.544  20.559  0.00  0.00    +0.000 OA
ATOM     12  H   UNL     1       3.009   5.843  21.484  0.00  0.00    +0.000 HD
ENDBRANCH   7  11
ENDBRANCH   1   2
BRANCH   1  13
ATOM     13  C   UNL     1       2.890   4.042  18.105  0.00  0.00    +0.000 A 
ATOM     14  C   UNL     1       1.495   3.951  17.999  0.00  0.00    +0.000 A 
ATOM     15  C   UNL     1       0.863   2.786  18.400  0.00  0.00    +0.000 A 
ATOM     16  N   UNL     1       1.516   1.701  18.868  0.00  0.00    +0.000 NA
ATOM     17  C   UNL     1       2.861   1.788  18.930  0.00  0.00    +0.000 A 
ATOM     18  C   UNL     1       3.583   2.914  18.565  0.00  0.00    +0.000 A 
ENDBRANCH   1  13
BRANCH   1  22
ATOM     19  C   UNL     1       7.259   6.263  17.769  0.00  0.00    +0.000 C 
ATOM     20  C   UNL     1       7.297   4.773  17.456  0.00  0.00    +0.000 C 
ATOM     21  C   UNL     1       5.856   4.433  17.128  0.00  0.00    +0.000 C 
ATOM     22  N   UNL     1       5.105   5.237  18.113  0.00  0.00    +0.000 NA
ATOM     23  C   UNL     1       5.771   6.553  18.062  0.00  0.00    +0.000 C 
BRANCH  19  24
ATOM     24  N   UNL     1       7.762   7.053  16.641  0.00  0.00    +0.000 NA
ATOM     25  H   UNL     1       8.642   6.656  16.314  0.00  0.00    +0.000 HD
ATOM     26  H   UNL     1       7.967   8.002  16.953  0.00  0.00    +0.000 HD
ENDBRANCH  19  24
ENDBRANCH   1  22
TORSDOF 5
ENDMDL
MODEL 4
REMARK VINA RESULT:      -7.3      0.658      1.156
REMARK  Name = 
REMARK  5 active torsions:
REMARK  status: ('A' for Active; 'I' for Inactive)
REMARK    1  A    between atoms: N_1  and  C_2
REMARK    2  A    between atoms: N_5  and  C_6
REMARK    3  A    between atoms: C_6  and  C_7
REMARK    4  A    between atoms: C_6  and  C_13
REMARK    5  A    between atoms: C_18  and  O_19
REMARK                            x       y       z     vdW  Elec       q    Type
REMARK                         _______ _______ _______ _____ _____    ______ ____
ROOT
ATOM      1  C   UNL     1       3.770   5.295  18.568  0.00  0.00    +0.000 C 
ENDROOT
BRANCH   1   2
ATOM      2  C   UNL     1       2.979   6.564  18.921  0.00  0.00    +0.000 A 
ATOM      3  C   UNL     1       2.833   7.604  17.980  0.00  0.00    +0.000 A 
ATOM      4  C   UNL     1       2.058   8.696  18.316  0.00  0.00    +0.000 A 
ATOM      5  C   UNL     1       1.431   8.794  19.535  0.00  0.00    +0.000 A 
ATOM      6  C   UNL     1       1.555   7.817  20.495  0.00  0.00    +0.000 A 
ATOM      7  C   UNL     1       2.339   6.702  20.178  0.00  0.00    +0.000 A 
ATOM      8  O   UNL     1       0.697   9.933  19.655  0.00  0.00    +0.000 OA
ATOM      9  C   UNL     1       0.920  10.535  18.363  0.00  0.00    +0.000 C 
ATOM     10  O   UNL     1       1.804   9.769  17.518  0.00  0.00    +0.000 OA
BRANCH   7  11
ATOM     11  O   UNL     1       2.481   5.709  21.110  0.00  0.00    +0.000 OA
ATOM     12  H   UNL     1       1.893   5.894  21.862  0.00  0.00    +0.000 HD
ENDBRANCH   7  11
ENDBRANCH   1   2
BRANCH   1  13
ATOM     13  C   UNL     1       5.019   5.629  17.743  0.00  0.00    +0.000 A 
ATOM     14  C   UNL     1       5.031   5.567  16.343  0.00  0.00    +0.000 A 
ATOM     15  C   UNL     1       6.217   5.801  15.667  0.00  0.00    +0.000 A 
ATOM     16  N   UNL     1       7.378   6.120  16.278  0.00  0.00    +0.000 NA
ATOM     17  C   UNL     1       7.345   6.213  17.624  0.00  0.00    +0.000 A 
ATOM     18  C   UNL     1       6.211   5.983  18.389  0.00  0.00    +0.000 A 
ENDBRANCH   1  13
BRANCH   1  22
ATOM     19  C   UNL     1       1.318   2.503  18.353  0.00  0.00    +0.000 C 
ATOM     20  C   UNL     1       2.485   1.992  17.519  0.00  0.00    +0.000 C 
ATOM     21  C   UNL     1       3.615   2.949  17.850  0.00  0.00    +0.000 C 
ATOM     22  N   UNL     1       2.922   4.250  17.923  0.00  0.00    +0.000 NA
ATOM     23  C   UNL     1       1.711   3.952  18.713  0.00  0.00    +0.000 C 
BRANCH  19  24
ATOM     24  N   UNL     1       1.117   1.675  19.546  0.00  0.00    +0.000 NA
ATOM     25  H   UNL     1       0.330   2.037  20.082  0.00  0.00    +0.000 HD
ATOM     26  H   UNL     1       1.937   1.740  20.148  0.00  0.00    +0.000 HD
ENDBRANCH  19  24
ENDBRANCH   1  22
TORSDOF 5
ENDMDL
MODEL 5
REMARK VINA RESULT:      -7.3      1.037      1.640
REMARK  Name = 
REMARK  5 active torsions:
REMARK  status: ('A' for Active; 'I' for Inactive)
REMARK    1  A    between atoms: N_1  and  C_2
REMARK    2  A    between atoms: N_5  and  C_6
REMARK    3  A    between atoms: C_6  and  C_7
REMARK    4  A    between atoms: C_6  and  C_13
REMARK    5  A    between atoms: C_18  and  O_19
REMARK                            x       y       z     vdW  Elec       q    Type
REMARK                         _______ _______ _______ _____ _____    ______ ____
ROOT
ATOM      1  C   UNL     1       3.923   5.213  18.991  0.00  0.00    +0.000 C 
ENDROOT
BRANCH   1   2
ATOM      2  C   UNL     1       3.079   6.485  19.158  0.00  0.00    +0.000 A 
ATOM      3  C   UNL     1       3.061   7.473  18.152  0.00  0.00    +0.000 A 
ATOM      4  C   UNL     1       2.236   8.568  18.315  0.00  0.00    +0.000 A 
ATOM      5  C   UNL     1       1.439   8.719  19.424  0.00  0.00    +0.000 A 
ATOM      6  C   UNL     1       1.432   7.794  20.443  0.00  0.00    +0.000 A 
ATOM      7  C   UNL     1       2.263   6.678  20.301  0.00  0.00    +0.000 A 
ATOM      8  O   UNL     1       0.685   9.850  19.376  0.00  0.00    +0.000 OA
ATOM      9  C   UNL     1       1.087  10.389  18.099  0.00  0.00    +0.000 C 
ATOM     10  O   UNL     1       2.090   9.594  17.432  0.00  0.00    +0.000 OA
BRANCH   7  11
ATOM     11  O   UNL     1       2.278   5.737  21.296  0.00  0.00    +0.000 OA
ATOM     12  H   UNL     1       1.385   5.662  21.675  0.00  0.00    +0.000 HD
ENDBRANCH   7  11
ENDBRANCH   1   2
BRANCH   1  13
ATOM     13  C   UNL     1       5.012   5.403  17.928  0.00  0.00    +0.000 A 
ATOM     14  C   UNL     1       4.721   5.831  16.625  0.00  0.00    +0.000 A 
ATOM     15  C   UNL     1       5.744   5.902  15.694  0.00  0.00    +0.000 A 
ATOM     16  N   UNL     1       7.032   5.607  15.970  0.00  0.00    +0.000 NA
ATOM     17  C   UNL     1       7.305   5.232  17.237  0.00  0.00    +0.000 A 
ATOM     18  C   UNL     1       6.349   5.118  18.236  0.00  0.00    +0.000 A 
ENDBRANCH   1  13
BRANCH   1  22
ATOM     19  C   UNL     1       3.130   1.590  18.671  0.00  0.00    +0.000 C 
ATOM     20  C   UNL     1       2.559   2.175  17.386  0.00  0.00    +0.000 C 
ATOM     21  C   UNL     1       3.145   3.574  17.332  0.00  0.00    +0.000 C 
ATOM     22  N   UNL     1       3.090   3.999  18.745  0.00  0.00    +0.000 NA
ATOM     23  C   UNL     1       3.595   2.821  19.479  0.00  0.00    +0.000 C 
BRANCH  19  24
ATOM     24  N   UNL     1       4.236   0.670  18.386  0.00  0.00    +0.000 NA
ATOM     25  H   UNL     1       3.860  -0.238  18.115  0.00  0.00    +0.000 HD
ATOM     26  H   UNL     1       4.781   0.518  19.234  0.00  0.00    +0.000 HD
ENDBRANCH  19  24
ENDBRANCH   1  22
TORSDOF 5
ENDMDL
MODEL 6
REMARK VINA RESULT:      -7.0      3.099      5.292
REMARK  Name = 
REMARK  5 active torsions:
REMARK  status: ('A' for Active; 'I' for Inactive)
REMARK    1  A    between atoms: N_1  and  C_2
REMARK    2  A    between atoms: N_5  and  C_6
REMARK    3  A    between atoms: C_6  and  C_7
REMARK    4  A    between atoms: C_6  and  C_13
REMARK    5  A    between atoms: C_18  and  O_19
REMARK                            x       y       z     vdW  Elec       q    Type
REMARK                         _______ _______ _______ _____ _____    ______ ____
ROOT
ATOM      1  C   UNL     1       6.062   4.414  16.499  0.00  0.00    +0.000 C 
ENDROOT
BRANCH   1   2
ATOM      2  C   UNL     1       4.666   4.229  17.114  0.00  0.00    +0.000 A 
ATOM      3  C   UNL     1       4.253   2.968  17.592  0.00  0.00    +0.000 A 
ATOM      4  C   UNL     1       3.017   2.863  18.196  0.00  0.00    +0.000 A 
ATOM      5  C   UNL     1       2.185   3.947  18.344  0.00  0.00    +0.000 A 
ATOM      6  C   UNL     1       2.531   5.195  17.879  0.00  0.00    +0.000 A 
ATOM      7  C   UNL     1       3.779   5.325  17.259  0.00  0.00    +0.000 A 
ATOM      8  O   UNL     1       1.029   3.635  18.988  0.00  0.00    +0.000 OA
ATOM      9  C   UNL     1       1.234   2.230  19.247  0.00  0.00    +0.000 C 
ATOM     10  O   UNL     1       2.482   1.728  18.724  0.00  0.00    +0.000 OA
BRANCH   7  11
ATOM     11  O   UNL     1       4.156   6.555  16.788  0.00  0.00    +0.000 OA
ATOM     12  H   UNL     1       3.688   7.243  17.291  0.00  0.00    +0.000 HD
ENDBRANCH   7  11
ENDBRANCH   1   2
BRANCH   1  13
ATOM     13  C   UNL     1       6.901   5.408  17.311  0.00  0.00    +0.000 A 
ATOM     14  C   UNL     1       7.474   5.071  18.546  0.00  0.00    +0.000 A 
ATOM     15  C   UNL     1       8.150   6.044  19.263  0.00  0.00    +0.000 A 
ATOM     16  N   UNL     1       8.321   7.312  18.832  0.00  0.00    +0.000 NA
ATOM     17  C   UNL     1       7.797   7.613  17.625  0.00  0.00    +0.000 A 
ATOM     18  C   UNL     1       7.093   6.713  16.839  0.00  0.00    +0.000 A 
ENDBRANCH   1  13
BRANCH   1  22
ATOM     19  C   UNL     1       5.847   3.841  12.827  0.00  0.00    +0.000 C 
ATOM     20  C   UNL     1       7.040   4.780  12.953  0.00  0.00    +0.000 C 
ATOM     21  C   UNL     1       7.353   4.772  14.437  0.00  0.00    +0.000 C 
ATOM     22  N   UNL     1       6.009   4.763  15.049  0.00  0.00    +0.000 NA
ATOM     23  C   UNL     1       5.279   3.750  14.260  0.00  0.00    +0.000 C 
BRANCH  19  24
ATOM     24  N   UNL     1       6.258   2.531  12.314  0.00  0.00    +0.000 NA
ATOM     25  H   UNL     1       5.458   1.899  12.317  0.00  0.00    +0.000 HD
ATOM     26  H   UNL     1       6.954   2.123  12.936  0.00  0.00    +0.000 HD
ENDBRANCH  19  24
ENDBRANCH   1  22
TORSDOF 5
ENDMDL
MODEL 7
REMARK VINA RESULT:      -7.0      1.447      4.532
REMARK  Name = 
REMARK  5 active torsions:
REMARK  status: ('A' for Active; 'I' for Inactive)
REMARK    1  A    between atoms: N_1  and  C_2
REMARK    2  A    between atoms: N_5  and  C_6
REMARK    3  A    between atoms: C_6  and  C_7
REMARK    4  A    between atoms: C_6  and  C_13
REMARK    5  A    between atoms: C_18  and  O_19
REMARK                            x       y       z     vdW  Elec       q    Type
REMARK                         _______ _______ _______ _____ _____    ______ ____
ROOT
ATOM      1  C   UNL     1       3.344   5.858  18.224  0.00  0.00    +0.000 C 
ENDROOT
BRANCH   1   2
ATOM      2  C   UNL     1       2.578   7.073  18.772  0.00  0.00    +0.000 A 
ATOM      3  C   UNL     1       2.126   7.093  20.108  0.00  0.00    +0.000 A 
ATOM      4  C   UNL     1       1.501   8.231  20.578  0.00  0.00    +0.000 A 
ATOM      5  C   UNL     1       1.312   9.336  19.783  0.00  0.00    +0.000 A 
ATOM      6  C   UNL     1       1.717   9.362  18.468  0.00  0.00    +0.000 A 
ATOM      7  C   UNL     1       2.349   8.218  17.969  0.00  0.00    +0.000 A 
ATOM      8  O   UNL     1       0.703  10.357  20.444  0.00  0.00    +0.000 OA
ATOM      9  C   UNL     1       0.545   9.774  21.754  0.00  0.00    +0.000 C 
ATOM     10  O   UNL     1       1.026   8.416  21.839  0.00  0.00    +0.000 OA
BRANCH   7  11
ATOM     11  O   UNL     1       2.769   8.212  16.666  0.00  0.00    +0.000 OA
ATOM     12  H   UNL     1       3.403   8.937  16.534  0.00  0.00    +0.000 HD
ENDBRANCH   7  11
ENDBRANCH   1   2
BRANCH   1  13
ATOM     13  C   UNL     1       2.740   4.544  18.732  0.00  0.00    +0.000 A 
ATOM     14  C   UNL     1       3.059   4.009  19.988  0.00  0.00    +0.000 A 
ATOM     15  C   UNL     1       2.541   2.776  20.347  0.00  0.00    +0.000 A 
ATOM     16  N   UNL     1       1.710   2.055  19.566  0.00  0.00    +0.000 NA
ATOM     17  C   UNL     1       1.381   2.597  18.375  0.00  0.00    +0.000 A 
ATOM     18  C   UNL     1       1.859   3.817  17.920  0.00  0.00    +0.000 A 
ENDBRANCH   1  13
BRANCH   1  22
ATOM     19  C   UNL     1       6.950   6.296  17.413  0.00  0.00    +0.000 C 
ATOM     20  C   UNL     1       6.943   5.017  18.240  0.00  0.00    +0.000 C 
ATOM     21  C   UNL     1       5.476   4.637  18.309  0.00  0.00    +0.000 C 
ATOM     22  N   UNL     1       4.813   5.946  18.471  0.00  0.00    +0.000 NA
ATOM     23  C   UNL     1       5.493   6.802  17.479  0.00  0.00    +0.000 C 
BRANCH  19  24
ATOM     24  N   UNL     1       7.379   6.031  16.036  0.00  0.00    +0.000 NA
ATOM     25  H   UNL     1       7.116   6.817  15.442  0.00  0.00    +0.000 HD
ATOM     26  H   UNL     1       6.887   5.214  15.675  0.00  0.00    +0.000 HD
ENDBRANCH  19  24
ENDBRANCH   1  22
TORSDOF 5
ENDMDL
MODEL 8
REMARK VINA RESULT:      -6.9      2.784      5.161
REMARK  Name = 
REMARK  5 active torsions:
REMARK  status: ('A' for Active; 'I' for Inactive)
REMARK    1  A    between atoms: N_1  and  C_2
REMARK    2  A    between atoms: N_5  and  C_6
REMARK    3  A    between atoms: C_6  and  C_7
REMARK    4  A    between atoms: C_6  and  C_13
REMARK    5  A    between atoms: C_18  and  O_19
REMARK                            x       y       z     vdW  Elec       q    Type
REMARK                         _______ _______ _______ _____ _____    ______ ____
ROOT
ATOM      1  C   UNL     1       3.022   5.042  17.836  0.00  0.00    +0.000 C 
ENDROOT
BRANCH   1   2
ATOM      2  C   UNL     1       4.359   5.102  17.082  0.00  0.00    +0.000 A 
ATOM      3  C   UNL     1       4.454   4.645  15.751  0.00  0.00    +0.000 A 
ATOM      4  C   UNL     1       5.659   4.779  15.090  0.00  0.00    +0.000 A 
ATOM      5  C   UNL     1       6.758   5.343  15.691  0.00  0.00    +0.000 A 
ATOM      6  C   UNL     1       6.725   5.788  16.993  0.00  0.00    +0.000 A 
ATOM      7  C   UNL     1       5.515   5.658  17.684  0.00  0.00    +0.000 A 
ATOM      8  O   UNL     1       7.833   5.406  14.861  0.00  0.00    +0.000 OA
ATOM      9  C   UNL     1       7.280   4.831  13.658  0.00  0.00    +0.000 C 
ATOM     10  O   UNL     1       5.908   4.408  13.805  0.00  0.00    +0.000 OA
BRANCH   7  11
ATOM     11  O   UNL     1       5.447   6.094  18.980  0.00  0.00    +0.000 OA
ATOM     12  H   UNL     1       4.551   6.432  19.154  0.00  0.00    +0.000 HD
ENDBRANCH   7  11
ENDBRANCH   1   2
BRANCH   1  13
ATOM     13  C   UNL     1       2.621   6.422  18.369  0.00  0.00    +0.000 A 
ATOM     14  C   UNL     1       2.258   6.632  19.707  0.00  0.00    +0.000 A 
ATOM     15  C   UNL     1       1.827   7.888  20.100  0.00  0.00    +0.000 A 
ATOM     16  N   UNL     1       1.761   8.952  19.271  0.00  0.00    +0.000 NA
ATOM     17  C   UNL     1       2.148   8.746  17.995  0.00  0.00    +0.000 A 
ATOM     18  C   UNL     1       2.580   7.523  17.504  0.00  0.00    +0.000 A 
ENDBRANCH   1  13
BRANCH   1  22
ATOM     19  C   UNL     1       3.744   1.763  19.444  0.00  0.00    +0.000 C 
ATOM     20  C   UNL     1       2.244   1.920  19.657  0.00  0.00    +0.000 C 
ATOM     21  C   UNL     1       1.865   3.070  18.742  0.00  0.00    +0.000 C 
ATOM     22  N   UNL     1       3.008   3.992  18.897  0.00  0.00    +0.000 NA
ATOM     23  C   UNL     1       4.183   3.102  18.814  0.00  0.00    +0.000 C 
BRANCH  19  24
ATOM     24  N   UNL     1       4.037   0.622  18.571  0.00  0.00    +0.000 NA
ATOM     25  H   UNL     1       3.163   0.205  18.252  0.00  0.00    +0.000 HD
ATOM     26  H   UNL     1       4.527  -0.097  19.101  0.00  0.00    +0.000 HD
ENDBRANCH  19  24
ENDBRANCH   1  22
TORSDOF 5
ENDMDL
MODEL 9
REMARK VINA RESULT:      -6.9      2.926      5.160
REMARK  Name = 
REMARK  5 active torsions:
REMARK  status: ('A' for Active; 'I' for Inactive)
REMARK    1  A    between atoms: N_1  and  C_2
REMARK    2  A    between atoms: N_5  and  C_6
REMARK    3  A    between atoms: C_6  and  C_7
REMARK    4  A    between atoms: C_6  and  C_13
REMARK    5  A    between atoms: C_18  and  O_19
REMARK                            x       y       z     vdW  Elec       q    Type
REMARK                         _______ _______ _______ _____ _____    ______ ____
ROOT
ATOM      1  C   UNL     1       2.261   5.585  18.737  0.00  0.00    +0.000 C 
ENDROOT
BRANCH   1   2
ATOM      2  C   UNL     1       3.744   5.277  18.479  0.00  0.00    +0.000 A 
ATOM      3  C   UNL     1       4.745   5.818  19.312  0.00  0.00    +0.000 A 
ATOM      4  C   UNL     1       6.059   5.461  19.084  0.00  0.00    +0.000 A 
ATOM      5  C   UNL     1       6.413   4.599  18.074  0.00  0.00    +0.000 A 
ATOM      6  C   UNL     1       5.478   4.058  17.222  0.00  0.00    +0.000 A 
ATOM      7  C   UNL     1       4.140   4.408  17.431  0.00  0.00    +0.000 A 
ATOM      8  O   UNL     1       7.751   4.357  18.037  0.00  0.00    +0.000 OA
ATOM      9  C   UNL     1       8.200   5.155  19.153  0.00  0.00    +0.000 C 
ATOM     10  O   UNL     1       7.135   5.878  19.806  0.00  0.00    +0.000 OA
BRANCH   7  11
ATOM     11  O   UNL     1       3.184   3.885  16.603  0.00  0.00    +0.000 OA
ATOM     12  H   UNL     1       3.006   4.517  15.886  0.00  0.00    +0.000 HD
ENDBRANCH   7  11
ENDBRANCH   1   2
BRANCH   1  13
ATOM     13  C   UNL     1       2.022   7.093  18.880  0.00  0.00    +0.000 A 
ATOM     14  C   UNL     1       1.610   7.676  20.086  0.00  0.00    +0.000 A 
ATOM     15  C   UNL     1       1.334   9.032  20.120  0.00  0.00    +0.000 A 
ATOM     16  N   UNL     1       1.465   9.852  19.056  0.00  0.00    +0.000 NA
ATOM     17  C   UNL     1       1.898   9.286  17.910  0.00  0.00    +0.000 A 
ATOM     18  C   UNL     1       2.186   7.936  17.772  0.00  0.00    +0.000 A 
ENDBRANCH   1  13
BRANCH   1  22
ATOM     19  C   UNL     1       2.249   3.205  21.599  0.00  0.00    +0.000 C 
ATOM     20  C   UNL     1       1.048   2.753  20.779  0.00  0.00    +0.000 C 
ATOM     21  C   UNL     1       1.215   3.480  19.458  0.00  0.00    +0.000 C 
ATOM     22  N   UNL     1       1.704   4.807  19.882  0.00  0.00    +0.000 NA
ATOM     23  C   UNL     1       2.734   4.489  20.891  0.00  0.00    +0.000 C 
BRANCH  19  24
ATOM     24  N   UNL     1       3.286   2.169  21.633  0.00  0.00    +0.000 NA
ATOM     25  H   UNL     1       3.651   2.086  22.580  0.00  0.00    +0.000 HD
ATOM     26  H   UNL     1       4.068   2.450  21.041  0.00  0.00    +0.000 HD
ENDBRANCH  19  24
ENDBRANCH   1  22
TORSDOF 5
ENDMDL
