MODEL 1
REMARK VINA RESULT:      -6.9      0.000      0.000
REMARK  Name = 
REMARK  8 active torsions:
REMARK  status: ('A' for Active; 'I' for Inactive)
REMARK    1  A    between atoms: C_1  and  C_2
REMARK    2  A    between atoms: C_2  and  O_3
REMARK    3  A    between atoms: O_3  and  C_4
REMARK    4  A    between atoms: C_4  and  C_6
REMARK    5  A    between atoms: C_6  and  S_7
REMARK    6  A    between atoms: S_7  and  C_8
REMARK    7  A    between atoms: C_10  and  C_11
REMARK    8  A    between atoms: C_11  and  C_12
REMARK                            x       y       z     vdW  Elec       q    Type
REMARK                         _______ _______ _______ _____ _____    ______ ____
ROOT
ATOM      1  C   UNL     1       3.815   4.943  17.807  0.00  0.00    +0.000 A 
ATOM      2  N   UNL     1       3.737   6.233  17.424  0.00  0.00    +0.000 NA
ATOM      3  C   UNL     1       2.960   7.034  18.161  0.00  0.00    +0.000 A 
ATOM      4  N   UNL     1       2.254   6.638  19.230  0.00  0.00    +0.000 NA
ATOM      5  C   UNL     1       2.348   5.359  19.602  0.00  0.00    +0.000 A 
ATOM      6  C   UNL     1       1.612   4.936  20.704  0.00  0.00    +0.000 A 
ATOM      7  C   UNL     1       1.647   3.616  21.161  0.00  0.00    +0.000 A 
ATOM      8  C   UNL     1       2.444   2.686  20.513  0.00  0.00    +0.000 A 
ATOM      9  C   UNL     1       3.190   3.082  19.404  0.00  0.00    +0.000 A 
ATOM     10  C   UNL     1       3.143   4.425  18.928  0.00  0.00    +0.000 A 
ENDROOT
BRANCH   3  11
ATOM     11  C   UNL     1       2.832   8.469  17.730  0.00  0.00    +0.000 C 
ATOM     12  C   UNL     1       1.479   9.044  18.112  0.00  0.00    +0.000 C 
ENDBRANCH   3  11
BRANCH   1  13
ATOM     13  S   UNL     1       4.816   3.887  16.767  0.00  0.00    +0.000 S 
BRANCH  13  14
ATOM     14  C   UNL     1       6.475   4.611  17.017  0.00  0.00    +0.000 C 
BRANCH  14  15
ATOM     15  C   UNL     1       6.850   5.482  15.838  0.00  0.00    +0.000 C 
ATOM     16  O   UNL     1       6.580   5.270  14.661  0.00  0.00    +0.000 OA
BRANCH  15  17
ATOM     17  O   UNL     1       7.632   6.517  16.268  0.00  0.00    +0.000 OA
BRANCH  17  19
ATOM     18  C   UNL     1       7.943   8.332  17.777  0.00  0.00    +0.000 C 
ATOM     19  C   UNL     1       7.366   6.936  17.616  0.00  0.00    +0.000 C 
ENDBRANCH  17  19
ENDBRANCH  15  17
ENDBRANCH  14  15
ENDBRANCH  13  14
ENDBRANCH   1  13
TORSDOF 6
ENDMDL
MODEL 2
REMARK VINA RESULT:      -6.9      2.850      5.304
REMARK  Name = 
REMARK  8 active torsions:
REMARK  status: ('A' for Active; 'I' for Inactive)
REMARK    1  A    between atoms: C_1  and  C_2
REMARK    2  A    between atoms: C_2  and  O_3
REMARK    3  A    between atoms: O_3  and  C_4
REMARK    4  A    between atoms: C_4  and  C_6
REMARK    5  A    between atoms: C_6  and  S_7
REMARK    6  A    between atoms: S_7  and  C_8
REMARK    7  A    between atoms: C_10  and  C_11
REMARK    8  A    between atoms: C_11  and  C_12
REMARK                            x       y       z     vdW  Elec       q    Type
REMARK                         _______ _______ _______ _____ _____    ______ ____
ROOT
ATOM      1  C   UNL     1       4.701   4.443  18.226  0.00  0.00    +0.000 A 
ATOM      2  N   UNL     1       5.549   4.277  17.191  0.00  0.00    +0.000 NA
ATOM      3  C   UNL     1       5.630   5.282  16.312  0.00  0.00    +0.000 A 
ATOM      4  N   UNL     1       4.921   6.418  16.385  0.00  0.00    +0.000 NA
ATOM      5  C   UNL     1       4.091   6.570  17.420  0.00  0.00    +0.000 A 
ATOM      6  C   UNL     1       3.343   7.741  17.501  0.00  0.00    +0.000 A 
ATOM      7  C   UNL     1       2.449   7.984  18.545  0.00  0.00    +0.000 A 
ATOM      8  C   UNL     1       2.295   7.041  19.550  0.00  0.00    +0.000 A 
ATOM      9  C   UNL     1       3.029   5.858  19.493  0.00  0.00    +0.000 A 
ATOM     10  C   UNL     1       3.931   5.603  18.419  0.00  0.00    +0.000 A 
ENDROOT
BRANCH   3  11
ATOM     11  C   UNL     1       6.544   5.103  15.132  0.00  0.00    +0.000 C 
ATOM     12  C   UNL     1       6.047   4.005  14.206  0.00  0.00    +0.000 C 
ENDBRANCH   3  11
BRANCH   1  13
ATOM     13  S   UNL     1       4.574   3.058  19.350  0.00  0.00    +0.000 S 
BRANCH  13  14
ATOM     14  C   UNL     1       3.583   1.885  18.359  0.00  0.00    +0.000 C 
BRANCH  14  15
ATOM     15  C   UNL     1       2.149   2.357  18.266  0.00  0.00    +0.000 C 
ATOM     16  O   UNL     1       1.677   3.083  17.398  0.00  0.00    +0.000 OA
BRANCH  15  17
ATOM     17  O   UNL     1       1.456   1.928  19.362  0.00  0.00    +0.000 OA
BRANCH  17  19
ATOM     18  C   UNL     1       1.510   2.873  21.546  0.00  0.00    +0.000 C 
ATOM     19  C   UNL     1       0.901   2.987  20.160  0.00  0.00    +0.000 C 
ENDBRANCH  17  19
ENDBRANCH  15  17
ENDBRANCH  14  15
ENDBRANCH  13  14
ENDBRANCH   1  13
TORSDOF 6
ENDMDL
MODEL 3
REMARK VINA RESULT:      -6.8      1.711      2.709
REMARK  Name = 
REMARK  8 active torsions:
REMARK  status: ('A' for Active; 'I' for Inactive)
REMARK    1  A    between atoms: C_1  and  C_2
REMARK    2  A    between atoms: C_2  and  O_3
REMARK    3  A    between atoms: O_3  and  C_4
REMARK    4  A    between atoms: C_4  and  C_6
REMARK    5  A    between atoms: C_6  and  S_7
REMARK    6  A    between atoms: S_7  and  C_8
REMARK    7  A    between atoms: C_10  and  C_11
REMARK    8  A    between atoms: C_11  and  C_12
REMARK                            x       y       z     vdW  Elec       q    Type
REMARK                         _______ _______ _______ _____ _____    ______ ____
ROOT
ATOM      1  C   UNL     1       3.944   4.908  17.559  0.00  0.00    +0.000 A 
ATOM      2  N   UNL     1       3.909   6.246  17.391  0.00  0.00    +0.000 NA
ATOM      3  C   UNL     1       2.976   6.915  18.077  0.00  0.00    +0.000 A 
ATOM      4  N   UNL     1       2.079   6.347  18.896  0.00  0.00    +0.000 NA
ATOM      5  C   UNL     1       2.131   5.023  19.059  0.00  0.00    +0.000 A 
ATOM      6  C   UNL     1       1.199   4.423  19.899  0.00  0.00    +0.000 A 
ATOM      7  C   UNL     1       1.177   3.045  20.125  0.00  0.00    +0.000 A 
ATOM      8  C   UNL     1       2.115   2.233  19.507  0.00  0.00    +0.000 A 
ATOM      9  C   UNL     1       3.060   2.807  18.658  0.00  0.00    +0.000 A 
ATOM     10  C   UNL     1       3.073   4.212  18.415  0.00  0.00    +0.000 A 
ENDROOT
BRANCH   3  11
ATOM     11  C   UNL     1       2.898   8.403  17.876  0.00  0.00    +0.000 C 
ATOM     12  C   UNL     1       1.461   8.893  17.915  0.00  0.00    +0.000 C 
ENDBRANCH   3  11
BRANCH   1  13
ATOM     13  S   UNL     1       5.164   4.038  16.584  0.00  0.00    +0.000 S 
BRANCH  13  14
ATOM     14  C   UNL     1       5.520   5.268  15.279  0.00  0.00    +0.000 C 
BRANCH  14  15
ATOM     15  C   UNL     1       6.654   4.789  14.401  0.00  0.00    +0.000 C 
ATOM     16  O   UNL     1       7.695   5.391  14.163  0.00  0.00    +0.000 OA
BRANCH  15  17
ATOM     17  O   UNL     1       6.309   3.601  13.821  0.00  0.00    +0.000 OA
BRANCH  17  19
ATOM     18  C   UNL     1       4.970   3.268  11.881  0.00  0.00    +0.000 C 
ATOM     19  C   UNL     1       6.362   3.609  12.385  0.00  0.00    +0.000 C 
ENDBRANCH  17  19
ENDBRANCH  15  17
ENDBRANCH  14  15
ENDBRANCH  13  14
ENDBRANCH   1  13
TORSDOF 6
ENDMDL
MODEL 4
REMARK VINA RESULT:      -6.7      1.324      3.635
REMARK  Name = 
REMARK  8 active torsions:
REMARK  status: ('A' for Active; 'I' for Inactive)
REMARK    1  A    between atoms: C_1  and  C_2
REMARK    2  A    between atoms: C_2  and  O_3
REMARK    3  A    between atoms: O_3  and  C_4
REMARK    4  A    between atoms: C_4  and  C_6
REMARK    5  A    between atoms: C_6  and  S_7
REMARK    6  A    between atoms: S_7  and  C_8
REMARK    7  A    between atoms: C_10  and  C_11
REMARK    8  A    between atoms: C_11  and  C_12
REMARK                            x       y       z     vdW  Elec       q    Type
REMARK                         _______ _______ _______ _____ _____    ______ ____
ROOT
ATOM      1  C   UNL     1       3.374   5.732  18.478  0.00  0.00    +0.000 A 
ATOM      2  N   UNL     1       3.245   4.734  19.376  0.00  0.00    +0.000 NA
ATOM      3  C   UNL     1       2.469   4.976  20.438  0.00  0.00    +0.000 A 
ATOM      4  N   UNL     1       1.834   6.135  20.669  0.00  0.00    +0.000 NA
ATOM      5  C   UNL     1       1.964   7.110  19.767  0.00  0.00    +0.000 A 
ATOM      6  C   UNL     1       1.317   8.319  20.002  0.00  0.00    +0.000 A 
ATOM      7  C   UNL     1       1.401   9.394  19.115  0.00  0.00    +0.000 A 
ATOM      8  C   UNL     1       2.142   9.267  17.950  0.00  0.00    +0.000 A 
ATOM      9  C   UNL     1       2.803   8.068  17.691  0.00  0.00    +0.000 A 
ATOM     10  C   UNL     1       2.730   6.975  18.603  0.00  0.00    +0.000 A 
ENDROOT
BRANCH   3  11
ATOM     11  C   UNL     1       2.340   3.889  21.468  0.00  0.00    +0.000 C 
ATOM     12  C   UNL     1       1.291   2.866  21.067  0.00  0.00    +0.000 C 
ENDBRANCH   3  11
BRANCH   1  13
ATOM     13  S   UNL     1       4.463   5.395  17.101  0.00  0.00    +0.000 S 
BRANCH  13  14
ATOM     14  C   UNL     1       6.077   5.256  17.949  0.00  0.00    +0.000 C 
BRANCH  14  15
ATOM     15  C   UNL     1       7.206   5.344  16.947  0.00  0.00    +0.000 C 
ATOM     16  O   UNL     1       7.762   4.402  16.393  0.00  0.00    +0.000 OA
BRANCH  15  17
ATOM     17  O   UNL     1       7.592   6.647  16.809  0.00  0.00    +0.000 OA
BRANCH  17  19
ATOM     18  C   UNL     1       7.980   8.805  17.736  0.00  0.00    +0.000 C 
ATOM     19  C   UNL     1       7.818   7.329  18.054  0.00  0.00    +0.000 C 
ENDBRANCH  17  19
ENDBRANCH  15  17
ENDBRANCH  14  15
ENDBRANCH  13  14
ENDBRANCH   1  13
TORSDOF 6
ENDMDL
MODEL 5
REMARK VINA RESULT:      -6.7      0.803      1.009
REMARK  Name = 
REMARK  8 active torsions:
REMARK  status: ('A' for Active; 'I' for Inactive)
REMARK    1  A    between atoms: C_1  and  C_2
REMARK    2  A    between atoms: C_2  and  O_3
REMARK    3  A    between atoms: O_3  and  C_4
REMARK    4  A    between atoms: C_4  and  C_6
REMARK    5  A    between atoms: C_6  and  S_7
REMARK    6  A    between atoms: S_7  and  C_8
REMARK    7  A    between atoms: C_10  and  C_11
REMARK    8  A    between atoms: C_11  and  C_12
REMARK                            x       y       z     vdW  Elec       q    Type
REMARK                         _______ _______ _______ _____ _____    ______ ____
ROOT
ATOM      1  C   UNL     1       3.653   4.893  17.742  0.00  0.00    +0.000 A 
ATOM      2  N   UNL     1       3.642   6.214  17.473  0.00  0.00    +0.000 NA
ATOM      3  C   UNL     1       2.881   6.983  18.259  0.00  0.00    +0.000 A 
ATOM      4  N   UNL     1       2.129   6.528  19.272  0.00  0.00    +0.000 NA
ATOM      5  C   UNL     1       2.157   5.218  19.531  0.00  0.00    +0.000 A 
ATOM      6  C   UNL     1       1.373   4.734  20.574  0.00  0.00    +0.000 A 
ATOM      7  C   UNL     1       1.337   3.380  20.913  0.00  0.00    +0.000 A 
ATOM      8  C   UNL     1       2.110   2.474  20.204  0.00  0.00    +0.000 A 
ATOM      9  C   UNL     1       2.903   2.931  19.153  0.00  0.00    +0.000 A 
ATOM     10  C   UNL     1       2.929   4.311  18.797  0.00  0.00    +0.000 A 
ENDROOT
BRANCH   3  11
ATOM     11  C   UNL     1       2.828   8.454  17.954  0.00  0.00    +0.000 C 
ATOM     12  C   UNL     1       1.395   8.948  17.853  0.00  0.00    +0.000 C 
ENDBRANCH   3  11
BRANCH   1  13
ATOM     13  S   UNL     1       4.635   3.887  16.637  0.00  0.00    +0.000 S 
BRANCH  13  14
ATOM     14  C   UNL     1       5.471   5.170  15.637  0.00  0.00    +0.000 C 
BRANCH  14  15
ATOM     15  C   UNL     1       6.881   5.387  16.136  0.00  0.00    +0.000 C 
ATOM     16  O   UNL     1       7.827   4.618  16.004  0.00  0.00    +0.000 OA
BRANCH  15  17
ATOM     17  O   UNL     1       6.936   6.548  16.854  0.00  0.00    +0.000 OA
BRANCH  17  19
ATOM     18  C   UNL     1       6.938   5.680  19.071  0.00  0.00    +0.000 C 
ATOM     19  C   UNL     1       7.736   6.467  18.046  0.00  0.00    +0.000 C 
ENDBRANCH  17  19
ENDBRANCH  15  17
ENDBRANCH  14  15
ENDBRANCH  13  14
ENDBRANCH   1  13
TORSDOF 6
ENDMDL
MODEL 6
REMARK VINA RESULT:      -6.6      1.663      2.360
REMARK  Name = 
REMARK  8 active torsions:
REMARK  status: ('A' for Active; 'I' for Inactive)
REMARK    1  A    between atoms: C_1  and  C_2
REMARK    2  A    between atoms: C_2  and  O_3
REMARK    3  A    between atoms: O_3  and  C_4
REMARK    4  A    between atoms: C_4  and  C_6
REMARK    5  A    between atoms: C_6  and  S_7
REMARK    6  A    between atoms: S_7  and  C_8
REMARK    7  A    between atoms: C_10  and  C_11
REMARK    8  A    between atoms: C_11  and  C_12
REMARK                            x       y       z     vdW  Elec       q    Type
REMARK                         _______ _______ _______ _____ _____    ______ ____
ROOT
ATOM      1  C   UNL     1       4.673   5.416  18.692  0.00  0.00    +0.000 A 
ATOM      2  N   UNL     1       4.308   6.684  18.416  0.00  0.00    +0.000 NA
ATOM      3  C   UNL     1       3.036   6.879  18.053  0.00  0.00    +0.000 A 
ATOM      4  N   UNL     1       2.120   5.907  17.934  0.00  0.00    +0.000 NA
ATOM      5  C   UNL     1       2.494   4.658  18.219  0.00  0.00    +0.000 A 
ATOM      6  C   UNL     1       1.554   3.641  18.089  0.00  0.00    +0.000 A 
ATOM      7  C   UNL     1       1.857   2.305  18.362  0.00  0.00    +0.000 A 
ATOM      8  C   UNL     1       3.132   1.964  18.788  0.00  0.00    +0.000 A 
ATOM      9  C   UNL     1       4.095   2.963  18.923  0.00  0.00    +0.000 A 
ATOM     10  C   UNL     1       3.790   4.324  18.630  0.00  0.00    +0.000 A 
ENDROOT
BRANCH   3  11
ATOM     11  C   UNL     1       2.619   8.281  17.707  0.00  0.00    +0.000 C 
ATOM     12  C   UNL     1       1.620   8.827  18.713  0.00  0.00    +0.000 C 
ENDBRANCH   3  11
BRANCH   1  13
ATOM     13  S   UNL     1       6.394   5.182  19.118  0.00  0.00    +0.000 S 
BRANCH  13  14
ATOM     14  C   UNL     1       7.096   4.689  17.504  0.00  0.00    +0.000 C 
BRANCH  14  15
ATOM     15  C   UNL     1       7.282   5.903  16.620  0.00  0.00    +0.000 C 
ATOM     16  O   UNL     1       7.434   7.060  16.996  0.00  0.00    +0.000 OA
BRANCH  15  17
ATOM     17  O   UNL     1       7.160   5.536  15.310  0.00  0.00    +0.000 OA
BRANCH  17  19
ATOM     18  C   UNL     1       6.136   3.966  13.842  0.00  0.00    +0.000 C 
ATOM     19  C   UNL     1       5.893   4.942  14.980  0.00  0.00    +0.000 C 
ENDBRANCH  17  19
ENDBRANCH  15  17
ENDBRANCH  14  15
ENDBRANCH  13  14
ENDBRANCH   1  13
TORSDOF 6
ENDMDL
MODEL 7
REMARK VINA RESULT:      -6.6      0.995      1.920
REMARK  Name = 
REMARK  8 active torsions:
REMARK  status: ('A' for Active; 'I' for Inactive)
REMARK    1  A    between atoms: C_1  and  C_2
REMARK    2  A    between atoms: C_2  and  O_3
REMARK    3  A    between atoms: O_3  and  C_4
REMARK    4  A    between atoms: C_4  and  C_6
REMARK    5  A    between atoms: C_6  and  S_7
REMARK    6  A    between atoms: S_7  and  C_8
REMARK    7  A    between atoms: C_10  and  C_11
REMARK    8  A    between atoms: C_11  and  C_12
REMARK                            x       y       z     vdW  Elec       q    Type
REMARK                         _______ _______ _______ _____ _____    ______ ____
ROOT
ATOM      1  C   UNL     1       3.832   4.913  18.014  0.00  0.00    +0.000 A 
ATOM      2  N   UNL     1       3.739   6.203  17.632  0.00  0.00    +0.000 NA
ATOM      3  C   UNL     1       2.849   6.961  18.282  0.00  0.00    +0.000 A 
ATOM      4  N   UNL     1       2.045   6.522  19.262  0.00  0.00    +0.000 NA
ATOM      5  C   UNL     1       2.155   5.244  19.635  0.00  0.00    +0.000 A 
ATOM      6  C   UNL     1       1.320   4.776  20.644  0.00  0.00    +0.000 A 
ATOM      7  C   UNL     1       1.363   3.455  21.095  0.00  0.00    +0.000 A 
ATOM      8  C   UNL     1       2.269   2.568  20.535  0.00  0.00    +0.000 A 
ATOM      9  C   UNL     1       3.116   3.009  19.520  0.00  0.00    +0.000 A 
ATOM     10  C   UNL     1       3.063   4.354  19.049  0.00  0.00    +0.000 A 
ENDROOT
BRANCH   3  11
ATOM     11  C   UNL     1       2.705   8.392  17.848  0.00  0.00    +0.000 C 
ATOM     12  C   UNL     1       1.567   9.083  18.580  0.00  0.00    +0.000 C 
ENDBRANCH   3  11
BRANCH   1  13
ATOM     13  S   UNL     1       4.990   3.914  17.087  0.00  0.00    +0.000 S 
BRANCH  13  14
ATOM     14  C   UNL     1       6.583   4.646  17.604  0.00  0.00    +0.000 C 
BRANCH  14  15
ATOM     15  C   UNL     1       7.233   5.363  16.441  0.00  0.00    +0.000 C 
ATOM     16  O   UNL     1       7.460   6.565  16.362  0.00  0.00    +0.000 OA
BRANCH  15  17
ATOM     17  O   UNL     1       7.453   4.476  15.426  0.00  0.00    +0.000 OA
BRANCH  17  19
ATOM     18  C   UNL     1       6.200   3.805  13.516  0.00  0.00    +0.000 C 
ATOM     19  C   UNL     1       7.006   4.931  14.138  0.00  0.00    +0.000 C 
ENDBRANCH  17  19
ENDBRANCH  15  17
ENDBRANCH  14  15
ENDBRANCH  13  14
ENDBRANCH   1  13
TORSDOF 6
ENDMDL
MODEL 8
REMARK VINA RESULT:      -6.5      1.756      2.536
REMARK  Name = 
REMARK  8 active torsions:
REMARK  status: ('A' for Active; 'I' for Inactive)
REMARK    1  A    between atoms: C_1  and  C_2
REMARK    2  A    between atoms: C_2  and  O_3
REMARK    3  A    between atoms: O_3  and  C_4
REMARK    4  A    between atoms: C_4  and  C_6
REMARK    5  A    between atoms: C_6  and  S_7
REMARK    6  A    between atoms: S_7  and  C_8
REMARK    7  A    between atoms: C_10  and  C_11
REMARK    8  A    between atoms: C_11  and  C_12
REMARK                            x       y       z     vdW  Elec       q    Type
REMARK                         _______ _______ _______ _____ _____    ______ ____
ROOT
ATOM      1  C   UNL     1       3.293   5.692  18.496  0.00  0.00    +0.000 A 
ATOM      2  N   UNL     1       2.896   6.727  19.264  0.00  0.00    +0.000 NA
ATOM      3  C   UNL     1       1.933   6.478  20.158  0.00  0.00    +0.000 A 
ATOM      4  N   UNL     1       1.337   5.288  20.326  0.00  0.00    +0.000 NA
ATOM      5  C   UNL     1       1.748   4.271  19.564  0.00  0.00    +0.000 A 
ATOM      6  C   UNL     1       1.131   3.034  19.724  0.00  0.00    +0.000 A 
ATOM      7  C   UNL     1       1.493   1.917  18.968  0.00  0.00    +0.000 A 
ATOM      8  C   UNL     1       2.507   2.023  18.029  0.00  0.00    +0.000 A 
ATOM      9  C   UNL     1       3.141   3.251  17.847  0.00  0.00    +0.000 A 
ATOM     10  C   UNL     1       2.762   4.395  18.607  0.00  0.00    +0.000 A 
ENDROOT
BRANCH   3  11
ATOM     11  C   UNL     1       1.451   7.627  20.999  0.00  0.00    +0.000 C 
ATOM     12  C   UNL     1       1.151   8.849  20.149  0.00  0.00    +0.000 C 
ENDBRANCH   3  11
BRANCH   1  13
ATOM     13  S   UNL     1       4.541   6.072  17.272  0.00  0.00    +0.000 S 
BRANCH  13  14
ATOM     14  C   UNL     1       6.036   5.376  18.061  0.00  0.00    +0.000 C 
BRANCH  14  15
ATOM     15  C   UNL     1       7.080   5.057  17.015  0.00  0.00    +0.000 C 
ATOM     16  O   UNL     1       8.098   4.393  17.181  0.00  0.00    +0.000 OA
BRANCH  15  17
ATOM     17  O   UNL     1       6.773   5.705  15.852  0.00  0.00    +0.000 OA
BRANCH  17  19
ATOM     18  C   UNL     1       5.942   4.002  14.412  0.00  0.00    +0.000 C 
ATOM     19  C   UNL     1       7.090   4.964  14.663  0.00  0.00    +0.000 C 
ENDBRANCH  17  19
ENDBRANCH  15  17
ENDBRANCH  14  15
ENDBRANCH  13  14
ENDBRANCH   1  13
TORSDOF 6
ENDMDL
MODEL 9
REMARK VINA RESULT:      -6.5      2.971      6.456
REMARK  Name = 
REMARK  8 active torsions:
REMARK  status: ('A' for Active; 'I' for Inactive)
REMARK    1  A    between atoms: C_1  and  C_2
REMARK    2  A    between atoms: C_2  and  O_3
REMARK    3  A    between atoms: O_3  and  C_4
REMARK    4  A    between atoms: C_4  and  C_6
REMARK    5  A    between atoms: C_6  and  S_7
REMARK    6  A    between atoms: S_7  and  C_8
REMARK    7  A    between atoms: C_10  and  C_11
REMARK    8  A    between atoms: C_11  and  C_12
REMARK                            x       y       z     vdW  Elec       q    Type
REMARK                         _______ _______ _______ _____ _____    ______ ____
ROOT
ATOM      1  C   UNL     1       5.385   4.364  16.154  0.00  0.00    +0.000 A 
ATOM      2  N   UNL     1       5.930   5.132  17.118  0.00  0.00    +0.000 NA
ATOM      3  C   UNL     1       7.014   5.841  16.784  0.00  0.00    +0.000 A 
ATOM      4  N   UNL     1       7.592   5.823  15.573  0.00  0.00    +0.000 NA
ATOM      5  C   UNL     1       7.036   5.064  14.626  0.00  0.00    +0.000 A 
ATOM      6  C   UNL     1       7.633   5.031  13.370  0.00  0.00    +0.000 A 
ATOM      7  C   UNL     1       7.123   4.263  12.322  0.00  0.00    +0.000 A 
ATOM      8  C   UNL     1       5.976   3.508  12.519  0.00  0.00    +0.000 A 
ATOM      9  C   UNL     1       5.359   3.520  13.769  0.00  0.00    +0.000 A 
ATOM     10  C   UNL     1       5.888   4.292  14.843  0.00  0.00    +0.000 A 
ENDROOT
BRANCH   3  11
ATOM     11  C   UNL     1       7.657   6.677  17.854  0.00  0.00    +0.000 C 
ATOM     12  C   UNL     1       7.802   5.901  19.153  0.00  0.00    +0.000 C 
ENDBRANCH   3  11
BRANCH   1  13
ATOM     13  S   UNL     1       3.973   3.386  16.651  0.00  0.00    +0.000 S 
BRANCH  13  14
ATOM     14  C   UNL     1       3.787   3.892  18.397  0.00  0.00    +0.000 C 
BRANCH  14  15
ATOM     15  C   UNL     1       2.408   4.465  18.634  0.00  0.00    +0.000 C 
ATOM     16  O   UNL     1       1.557   4.689  17.780  0.00  0.00    +0.000 OA
BRANCH  15  17
ATOM     17  O   UNL     1       2.271   4.793  19.953  0.00  0.00    +0.000 OA
BRANCH  17  19
ATOM     18  C   UNL     1       1.541   3.022  21.367  0.00  0.00    +0.000 C 
ATOM     19  C   UNL     1       1.100   4.242  20.578  0.00  0.00    +0.000 C 
ENDBRANCH  17  19
ENDBRANCH  15  17
ENDBRANCH  14  15
ENDBRANCH  13  14
ENDBRANCH   1  13
TORSDOF 6
ENDMDL
