MODEL 1
REMARK VINA RESULT:      -7.8      0.000      0.000
REMARK  Name = 
REMARK  8 active torsions:
REMARK  status: ('A' for Active; 'I' for Inactive)
REMARK    1  A    between atoms: C_1  and  O_2
REMARK    2  A    between atoms: O_2  and  C_3
REMARK    3  A    between atoms: C_6  and  C_7
REMARK    4  A    between atoms: C_9  and  C_10
REMARK    5  A    between atoms: C_10  and  N_11
REMARK    6  A    between atoms: C_13  and  N_14
REMARK    7  A    between atoms: C_16  and  C_17
REMARK    8  A    between atoms: C_19  and  C_20
REMARK                            x       y       z     vdW  Elec       q    Type
REMARK                         _______ _______ _______ _____ _____    ______ ____
ROOT
ATOM      1  C   UNL     1       8.276   8.765  18.157  0.00  0.00    +0.000 A 
ATOM      2  N   UNL     1       7.459   8.272  17.254  0.00  0.00    +0.000 NA
ATOM      3  C   UNL     1       7.354   6.956  17.642  0.00  0.00    +0.000 A 
ATOM      4  N   UNL     1       8.127   6.614  18.685  0.00  0.00    +0.000 NA
ATOM      5  O   UNL     1       8.732   7.822  19.038  0.00  0.00    +0.000 OA
ENDROOT
BRANCH   1   9
ATOM      6  C   UNL     1       9.708  12.758  18.710  0.00  0.00    +0.000 A 
ATOM      7  C   UNL     1      10.109  11.734  19.568  0.00  0.00    +0.000 A 
ATOM      8  C   UNL     1       9.622  10.434  19.393  0.00  0.00    +0.000 A 
ATOM      9  C   UNL     1       8.713  10.140  18.366  0.00  0.00    +0.000 A 
ATOM     10  C   UNL     1       8.279  11.188  17.542  0.00  0.00    +0.000 A 
ATOM     11  C   UNL     1       8.774  12.487  17.711  0.00  0.00    +0.000 A 
BRANCH   6  13
ATOM     12  C   UNL     1       9.655  15.070  18.255  0.00  0.00    +0.000 C 
ATOM     13  O   UNL     1      10.257  13.986  18.954  0.00  0.00    +0.000 OA
ENDBRANCH   6  13
ENDBRANCH   1   9
BRANCH   3  14
ATOM     14  C   UNL     1       6.461   5.980  16.944  0.00  0.00    +0.000 C 
BRANCH  14  15
ATOM     15  N   UNL     1       5.261   5.719  17.747  0.00  0.00    +0.000 NA
ATOM     16  C   UNL     1       4.316   4.840  17.036  0.00  0.00    +0.000 C 
ATOM     17  C   UNL     1       4.155   3.985  18.318  0.00  0.00    +0.000 C 
ATOM     18  C   UNL     1       5.474   4.671  18.762  0.00  0.00    +0.000 C 
BRANCH  17  19
ATOM     19  N   UNL     1       3.036   4.370  19.155  0.00  0.00    +0.000 N 
ATOM     20  N   UNL     1       2.875   5.616  19.635  0.00  0.00    +0.000 NA
ATOM     21  C   UNL     1       1.755   5.566  20.358  0.00  0.00    +0.000 A 
ATOM     22  C   UNL     1       1.280   6.777  21.069  0.00  0.00    +0.000 C 
ATOM     23  C   UNL     1       1.178   4.282  20.326  0.00  0.00    +0.000 A 
ATOM     24  C   UNL     1       2.016   3.519  19.536  0.00  0.00    +0.000 A 
ATOM     25  C   UNL     1       1.925   2.090  19.158  0.00  0.00    +0.000 C 
ENDBRANCH  17  19
ENDBRANCH  14  15
ENDBRANCH   3  14
TORSDOF 5
ENDMDL
MODEL 2
REMARK VINA RESULT:      -7.7      1.416      2.047
REMARK  Name = 
REMARK  8 active torsions:
REMARK  status: ('A' for Active; 'I' for Inactive)
REMARK    1  A    between atoms: C_1  and  O_2
REMARK    2  A    between atoms: O_2  and  C_3
REMARK    3  A    between atoms: C_6  and  C_7
REMARK    4  A    between atoms: C_9  and  C_10
REMARK    5  A    between atoms: C_10  and  N_11
REMARK    6  A    between atoms: C_13  and  N_14
REMARK    7  A    between atoms: C_16  and  C_17
REMARK    8  A    between atoms: C_19  and  C_20
REMARK                            x       y       z     vdW  Elec       q    Type
REMARK                         _______ _______ _______ _____ _____    ______ ____
ROOT
ATOM      1  C   UNL     1       8.543   8.977  18.363  0.00  0.00    +0.000 A 
ATOM      2  N   UNL     1       8.475   7.797  18.937  0.00  0.00    +0.000 NA
ATOM      3  C   UNL     1       7.806   7.052  17.993  0.00  0.00    +0.000 A 
ATOM      4  N   UNL     1       7.400   7.742  16.916  0.00  0.00    +0.000 NA
ATOM      5  O   UNL     1       7.903   9.023  17.155  0.00  0.00    +0.000 OA
ENDROOT
BRANCH   1   9
ATOM      6  C   UNL     1      10.665  12.437  19.715  0.00  0.00    +0.000 A 
ATOM      7  C   UNL     1      10.027  11.594  20.624  0.00  0.00    +0.000 A 
ATOM      8  C   UNL     1       9.320  10.474  20.174  0.00  0.00    +0.000 A 
ATOM      9  C   UNL     1       9.223  10.189  18.804  0.00  0.00    +0.000 A 
ATOM     10  C   UNL     1       9.825  11.072  17.897  0.00  0.00    +0.000 A 
ATOM     11  C   UNL     1      10.542  12.187  18.349  0.00  0.00    +0.000 A 
BRANCH   6  13
ATOM     12  C   UNL     1      12.249  14.150  19.377  0.00  0.00    +0.000 C 
ATOM     13  O   UNL     1      11.345  13.491  20.258  0.00  0.00    +0.000 OA
ENDBRANCH   6  13
ENDBRANCH   1   9
BRANCH   3  14
ATOM     14  C   UNL     1       7.538   5.590  18.164  0.00  0.00    +0.000 C 
BRANCH  14  15
ATOM     15  N   UNL     1       6.216   5.378  18.763  0.00  0.00    +0.000 NA
ATOM     16  C   UNL     1       5.207   6.278  18.176  0.00  0.00    +0.000 C 
ATOM     17  C   UNL     1       4.236   5.080  18.023  0.00  0.00    +0.000 C 
ATOM     18  C   UNL     1       5.513   4.215  18.191  0.00  0.00    +0.000 C 
BRANCH  17  19
ATOM     19  N   UNL     1       3.317   4.912  19.132  0.00  0.00    +0.000 N 
ATOM     20  N   UNL     1       3.230   3.775  19.845  0.00  0.00    +0.000 NA
ATOM     21  C   UNL     1       2.279   4.007  20.752  0.00  0.00    +0.000 A 
ATOM     22  C   UNL     1       1.893   2.941  21.706  0.00  0.00    +0.000 C 
ATOM     23  C   UNL     1       1.763   5.312  20.634  0.00  0.00    +0.000 A 
ATOM     24  C   UNL     1       2.451   5.889  19.584  0.00  0.00    +0.000 A 
ATOM     25  C   UNL     1       2.326   7.242  18.996  0.00  0.00    +0.000 C 
ENDBRANCH  17  19
ENDBRANCH  14  15
ENDBRANCH   3  14
TORSDOF 5
ENDMDL
MODEL 3
REMARK VINA RESULT:      -7.7      1.256      2.153
REMARK  Name = 
REMARK  8 active torsions:
REMARK  status: ('A' for Active; 'I' for Inactive)
REMARK    1  A    between atoms: C_1  and  O_2
REMARK    2  A    between atoms: O_2  and  C_3
REMARK    3  A    between atoms: C_6  and  C_7
REMARK    4  A    between atoms: C_9  and  C_10
REMARK    5  A    between atoms: C_10  and  N_11
REMARK    6  A    between atoms: C_13  and  N_14
REMARK    7  A    between atoms: C_16  and  C_17
REMARK    8  A    between atoms: C_19  and  C_20
REMARK                            x       y       z     vdW  Elec       q    Type
REMARK                         _______ _______ _______ _____ _____    ______ ____
ROOT
ATOM      1  C   UNL     1       8.255   8.436  18.116  0.00  0.00    +0.000 A 
ATOM      2  N   UNL     1       8.094   7.362  18.856  0.00  0.00    +0.000 NA
ATOM      3  C   UNL     1       7.688   6.428  17.932  0.00  0.00    +0.000 A 
ATOM      4  N   UNL     1       7.521   6.902  16.687  0.00  0.00    +0.000 NA
ATOM      5  O   UNL     1       7.912   8.238  16.805  0.00  0.00    +0.000 OA
ENDROOT
BRANCH   1   9
ATOM      6  C   UNL     1       9.615  12.342  19.209  0.00  0.00    +0.000 A 
ATOM      7  C   UNL     1       9.012  12.119  17.970  0.00  0.00    +0.000 A 
ATOM      8  C   UNL     1       8.587  10.836  17.612  0.00  0.00    +0.000 A 
ATOM      9  C   UNL     1       8.772   9.749  18.479  0.00  0.00    +0.000 A 
ATOM     10  C   UNL     1       9.425   9.977  19.699  0.00  0.00    +0.000 A 
ATOM     11  C   UNL     1       9.841  11.263  20.063  0.00  0.00    +0.000 A 
BRANCH   6  13
ATOM     12  C   UNL     1      11.369  13.909  19.365  0.00  0.00    +0.000 C 
ATOM     13  O   UNL     1       9.976  13.634  19.470  0.00  0.00    +0.000 OA
ENDBRANCH   6  13
ENDBRANCH   1   9
BRANCH   3  14
ATOM     14  C   UNL     1       7.437   4.997  18.291  0.00  0.00    +0.000 C 
BRANCH  14  15
ATOM     15  N   UNL     1       6.112   4.848  18.903  0.00  0.00    +0.000 NA
ATOM     16  C   UNL     1       5.212   5.949  18.516  0.00  0.00    +0.000 C 
ATOM     17  C   UNL     1       4.095   4.920  18.209  0.00  0.00    +0.000 C 
ATOM     18  C   UNL     1       5.256   3.891  18.177  0.00  0.00    +0.000 C 
BRANCH  17  19
ATOM     19  N   UNL     1       3.187   4.678  19.313  0.00  0.00    +0.000 N 
ATOM     20  N   UNL     1       3.068   3.482  19.916  0.00  0.00    +0.000 NA
ATOM     21  C   UNL     1       2.140   3.659  20.857  0.00  0.00    +0.000 A 
ATOM     22  C   UNL     1       1.728   2.521  21.712  0.00  0.00    +0.000 C 
ATOM     23  C   UNL     1       1.671   4.987  20.874  0.00  0.00    +0.000 A 
ATOM     24  C   UNL     1       2.364   5.637  19.872  0.00  0.00    +0.000 A 
ATOM     25  C   UNL     1       2.281   7.045  19.418  0.00  0.00    +0.000 C 
ENDBRANCH  17  19
ENDBRANCH  14  15
ENDBRANCH   3  14
TORSDOF 5
ENDMDL
MODEL 4
REMARK VINA RESULT:      -7.7      1.010      1.148
REMARK  Name = 
REMARK  8 active torsions:
REMARK  status: ('A' for Active; 'I' for Inactive)
REMARK    1  A    between atoms: C_1  and  O_2
REMARK    2  A    between atoms: O_2  and  C_3
REMARK    3  A    between atoms: C_6  and  C_7
REMARK    4  A    between atoms: C_9  and  C_10
REMARK    5  A    between atoms: C_10  and  N_11
REMARK    6  A    between atoms: C_13  and  N_14
REMARK    7  A    between atoms: C_16  and  C_17
REMARK    8  A    between atoms: C_19  and  C_20
REMARK                            x       y       z     vdW  Elec       q    Type
REMARK                         _______ _______ _______ _____ _____    ______ ____
ROOT
ATOM      1  C   UNL     1       8.550   8.987  18.398  0.00  0.00    +0.000 A 
ATOM      2  N   UNL     1       7.823   8.664  17.353  0.00  0.00    +0.000 NA
ATOM      3  C   UNL     1       7.560   7.332  17.580  0.00  0.00    +0.000 A 
ATOM      4  N   UNL     1       8.156   6.819  18.667  0.00  0.00    +0.000 NA
ATOM      5  O   UNL     1       8.805   7.924  19.222  0.00  0.00    +0.000 OA
ENDROOT
BRANCH   1   9
ATOM      6  C   UNL     1      10.215  12.733  19.623  0.00  0.00    +0.000 A 
ATOM      7  C   UNL     1       9.947  11.733  20.559  0.00  0.00    +0.000 A 
ATOM      8  C   UNL     1       9.385  10.518  20.154  0.00  0.00    +0.000 A 
ATOM      9  C   UNL     1       9.066  10.287  18.808  0.00  0.00    +0.000 A 
ATOM     10  C   UNL     1       9.292  11.318  17.885  0.00  0.00    +0.000 A 
ATOM     11  C   UNL     1       9.864  12.531  18.289  0.00  0.00    +0.000 A 
BRANCH   6  13
ATOM     12  C   UNL     1      11.774  14.468  19.289  0.00  0.00    +0.000 C 
ATOM     13  O   UNL     1      10.781  13.873  20.118  0.00  0.00    +0.000 OA
ENDBRANCH   6  13
ENDBRANCH   1   9
BRANCH   3  14
ATOM     14  C   UNL     1       6.691   6.518  16.674  0.00  0.00    +0.000 C 
BRANCH  14  15
ATOM     15  N   UNL     1       5.628   5.859  17.442  0.00  0.00    +0.000 NA
ATOM     16  C   UNL     1       4.477   5.519  16.587  0.00  0.00    +0.000 C 
ATOM     17  C   UNL     1       4.444   4.099  17.206  0.00  0.00    +0.000 C 
ATOM     18  C   UNL     1       5.891   4.424  17.660  0.00  0.00    +0.000 C 
BRANCH  17  19
ATOM     19  N   UNL     1       3.541   3.960  18.331  0.00  0.00    +0.000 N 
ATOM     20  N   UNL     1       2.971   5.011  18.948  0.00  0.00    +0.000 NA
ATOM     21  C   UNL     1       2.233   4.482  19.924  0.00  0.00    +0.000 A 
ATOM     22  C   UNL     1       1.475   5.367  20.839  0.00  0.00    +0.000 C 
ATOM     23  C   UNL     1       2.312   3.076  19.925  0.00  0.00    +0.000 A 
ATOM     24  C   UNL     1       3.158   2.752  18.882  0.00  0.00    +0.000 A 
ATOM     25  C   UNL     1       3.623   1.427  18.412  0.00  0.00    +0.000 C 
ENDBRANCH  17  19
ENDBRANCH  14  15
ENDBRANCH   3  14
TORSDOF 5
ENDMDL
MODEL 5
REMARK VINA RESULT:      -7.6      1.523      2.011
REMARK  Name = 
REMARK  8 active torsions:
REMARK  status: ('A' for Active; 'I' for Inactive)
REMARK    1  A    between atoms: C_1  and  O_2
REMARK    2  A    between atoms: O_2  and  C_3
REMARK    3  A    between atoms: C_6  and  C_7
REMARK    4  A    between atoms: C_9  and  C_10
REMARK    5  A    between atoms: C_10  and  N_11
REMARK    6  A    between atoms: C_13  and  N_14
REMARK    7  A    between atoms: C_16  and  C_17
REMARK    8  A    between atoms: C_19  and  C_20
REMARK                            x       y       z     vdW  Elec       q    Type
REMARK                         _______ _______ _______ _____ _____    ______ ____
ROOT
ATOM      1  C   UNL     1       8.312   8.937  18.186  0.00  0.00    +0.000 A 
ATOM      2  N   UNL     1       7.468   8.662  17.216  0.00  0.00    +0.000 NA
ATOM      3  C   UNL     1       7.218   7.324  17.418  0.00  0.00    +0.000 A 
ATOM      4  N   UNL     1       7.926   6.762  18.411  0.00  0.00    +0.000 NA
ATOM      5  O   UNL     1       8.646   7.840  18.932  0.00  0.00    +0.000 OA
ENDROOT
BRANCH   1   9
ATOM      6  C   UNL     1      10.147  12.626  19.337  0.00  0.00    +0.000 A 
ATOM      7  C   UNL     1      10.152  11.529  20.200  0.00  0.00    +0.000 A 
ATOM      8  C   UNL     1       9.535  10.331  19.824  0.00  0.00    +0.000 A 
ATOM      9  C   UNL     1       8.885  10.216  18.587  0.00  0.00    +0.000 A 
ATOM     10  C   UNL     1       8.842  11.341  17.751  0.00  0.00    +0.000 A 
ATOM     11  C   UNL     1       9.470  12.536  18.122  0.00  0.00    +0.000 A 
BRANCH   6  13
ATOM     12  C   UNL     1      10.399  14.191  21.082  0.00  0.00    +0.000 C 
ATOM     13  O   UNL     1      10.795  13.740  19.790  0.00  0.00    +0.000 OA
ENDBRANCH   6  13
ENDBRANCH   1   9
BRANCH   3  14
ATOM     14  C   UNL     1       6.244   6.553  16.585  0.00  0.00    +0.000 C 
BRANCH  14  15
ATOM     15  N   UNL     1       5.550   5.552  17.402  0.00  0.00    +0.000 NA
ATOM     16  C   UNL     1       4.104   5.824  17.478  0.00  0.00    +0.000 C 
ATOM     17  C   UNL     1       3.813   4.333  17.173  0.00  0.00    +0.000 C 
ATOM     18  C   UNL     1       5.278   4.305  16.664  0.00  0.00    +0.000 C 
BRANCH  17  19
ATOM     19  N   UNL     1       3.633   3.508  18.352  0.00  0.00    +0.000 N 
ATOM     20  N   UNL     1       4.660   2.981  19.041  0.00  0.00    +0.000 NA
ATOM     21  C   UNL     1       4.094   2.288  20.030  0.00  0.00    +0.000 A 
ATOM     22  C   UNL     1       4.942   1.540  20.987  0.00  0.00    +0.000 C 
ATOM     23  C   UNL     1       2.690   2.386  19.990  0.00  0.00    +0.000 A 
ATOM     24  C   UNL     1       2.406   3.186  18.900  0.00  0.00    +0.000 A 
ATOM     25  C   UNL     1       1.099   3.625  18.358  0.00  0.00    +0.000 C 
ENDBRANCH  17  19
ENDBRANCH  14  15
ENDBRANCH   3  14
TORSDOF 5
ENDMDL
MODEL 6
REMARK VINA RESULT:      -7.6      4.510      7.953
REMARK  Name = 
REMARK  8 active torsions:
REMARK  status: ('A' for Active; 'I' for Inactive)
REMARK    1  A    between atoms: C_1  and  O_2
REMARK    2  A    between atoms: O_2  and  C_3
REMARK    3  A    between atoms: C_6  and  C_7
REMARK    4  A    between atoms: C_9  and  C_10
REMARK    5  A    between atoms: C_10  and  N_11
REMARK    6  A    between atoms: C_13  and  N_14
REMARK    7  A    between atoms: C_16  and  C_17
REMARK    8  A    between atoms: C_19  and  C_20
REMARK                            x       y       z     vdW  Elec       q    Type
REMARK                         _______ _______ _______ _____ _____    ______ ____
ROOT
ATOM      1  C   UNL     1       1.087   8.522  20.592  0.00  0.00    +0.000 A 
ATOM      2  N   UNL     1       1.300   7.278  20.959  0.00  0.00    +0.000 NA
ATOM      3  C   UNL     1       2.090   6.803  19.937  0.00  0.00    +0.000 A 
ATOM      4  N   UNL     1       2.299   7.673  18.937  0.00  0.00    +0.000 NA
ATOM      5  O   UNL     1       1.643   8.824  19.378  0.00  0.00    +0.000 OA
ENDROOT
BRANCH   1   9
ATOM      6  C   UNL     1      -1.054  11.658  22.561  0.00  0.00    +0.000 A 
ATOM      7  C   UNL     1      -0.485  11.866  21.304  0.00  0.00    +0.000 A 
ATOM      8  C   UNL     1       0.230  10.842  20.674  0.00  0.00    +0.000 A 
ATOM      9  C   UNL     1       0.402   9.598  21.298  0.00  0.00    +0.000 A 
ATOM     10  C   UNL     1      -0.131   9.418  22.583  0.00  0.00    +0.000 A 
ATOM     11  C   UNL     1      -0.855  10.440  23.209  0.00  0.00    +0.000 A 
BRANCH   6  13
ATOM     12  C   UNL     1      -3.082  12.424  23.489  0.00  0.00    +0.000 C 
ATOM     13  O   UNL     1      -1.749  12.715  23.081  0.00  0.00    +0.000 OA
ENDBRANCH   6  13
ENDBRANCH   1   9
BRANCH   3  14
ATOM     14  C   UNL     1       2.657   5.419  19.936  0.00  0.00    +0.000 C 
BRANCH  14  15
ATOM     15  N   UNL     1       3.631   5.265  18.850  0.00  0.00    +0.000 NA
ATOM     16  C   UNL     1       5.013   5.278  19.359  0.00  0.00    +0.000 C 
ATOM     17  C   UNL     1       5.338   4.034  18.494  0.00  0.00    +0.000 C 
ATOM     18  C   UNL     1       3.797   3.861  18.430  0.00  0.00    +0.000 C 
BRANCH  17  19
ATOM     19  N   UNL     1       5.903   4.341  17.195  0.00  0.00    +0.000 N 
ATOM     20  N   UNL     1       5.487   3.757  16.058  0.00  0.00    +0.000 NA
ATOM     21  C   UNL     1       6.247   4.286  15.098  0.00  0.00    +0.000 A 
ATOM     22  C   UNL     1       6.079   3.842  13.694  0.00  0.00    +0.000 C 
ATOM     23  C   UNL     1       7.147   5.235  15.619  0.00  0.00    +0.000 A 
ATOM     24  C   UNL     1       6.907   5.265  16.979  0.00  0.00    +0.000 A 
ATOM     25  C   UNL     1       7.560   6.065  18.042  0.00  0.00    +0.000 C 
ENDBRANCH  17  19
ENDBRANCH  14  15
ENDBRANCH   3  14
TORSDOF 5
ENDMDL
MODEL 7
REMARK VINA RESULT:      -7.5      1.071      1.800
REMARK  Name = 
REMARK  8 active torsions:
REMARK  status: ('A' for Active; 'I' for Inactive)
REMARK    1  A    between atoms: C_1  and  O_2
REMARK    2  A    between atoms: O_2  and  C_3
REMARK    3  A    between atoms: C_6  and  C_7
REMARK    4  A    between atoms: C_9  and  C_10
REMARK    5  A    between atoms: C_10  and  N_11
REMARK    6  A    between atoms: C_13  and  N_14
REMARK    7  A    between atoms: C_16  and  C_17
REMARK    8  A    between atoms: C_19  and  C_20
REMARK                            x       y       z     vdW  Elec       q    Type
REMARK                         _______ _______ _______ _____ _____    ______ ____
ROOT
ATOM      1  C   UNL     1       8.408   9.114  18.222  0.00  0.00    +0.000 A 
ATOM      2  N   UNL     1       7.513   8.753  17.330  0.00  0.00    +0.000 NA
ATOM      3  C   UNL     1       7.325   7.423  17.626  0.00  0.00    +0.000 A 
ATOM      4  N   UNL     1       8.117   6.945  18.599  0.00  0.00    +0.000 NA
ATOM      5  O   UNL     1       8.830   8.075  19.007  0.00  0.00    +0.000 OA
ENDROOT
BRANCH   1   9
ATOM      6  C   UNL     1      10.177  12.929  19.008  0.00  0.00    +0.000 A 
ATOM      7  C   UNL     1      10.416  11.846  19.855  0.00  0.00    +0.000 A 
ATOM      8  C   UNL     1       9.819  10.606  19.602  0.00  0.00    +0.000 A 
ATOM      9  C   UNL     1       8.960  10.433  18.508  0.00  0.00    +0.000 A 
ATOM     10  C   UNL     1       8.688  11.541  17.694  0.00  0.00    +0.000 A 
ATOM     11  C   UNL     1       9.293  12.780  17.940  0.00  0.00    +0.000 A 
BRANCH   6  13
ATOM     12  C   UNL     1      12.208  14.126  19.001  0.00  0.00    +0.000 C 
ATOM     13  O   UNL     1      10.823  14.089  19.331  0.00  0.00    +0.000 OA
ENDBRANCH   6  13
ENDBRANCH   1   9
BRANCH   3  14
ATOM     14  C   UNL     1       6.327   6.572  16.907  0.00  0.00    +0.000 C 
BRANCH  14  15
ATOM     15  N   UNL     1       5.308   6.080  17.840  0.00  0.00    +0.000 NA
ATOM     16  C   UNL     1       3.993   6.691  17.576  0.00  0.00    +0.000 C 
ATOM     17  C   UNL     1       3.331   5.294  17.665  0.00  0.00    +0.000 C 
ATOM     18  C   UNL     1       4.773   4.761  17.453  0.00  0.00    +0.000 C 
BRANCH  17  19
ATOM     19  N   UNL     1       2.817   4.960  18.978  0.00  0.00    +0.000 N 
ATOM     20  N   UNL     1       2.832   3.710  19.475  0.00  0.00    +0.000 NA
ATOM     21  C   UNL     1       2.269   3.809  20.680  0.00  0.00    +0.000 A 
ATOM     22  C   UNL     1       2.093   2.598  21.515  0.00  0.00    +0.000 C 
ATOM     23  C   UNL     1       1.906   5.138  20.970  0.00  0.00    +0.000 A 
ATOM     24  C   UNL     1       2.274   5.874  19.860  0.00  0.00    +0.000 A 
ATOM     25  C   UNL     1       2.126   7.323  19.589  0.00  0.00    +0.000 C 
ENDBRANCH  17  19
ENDBRANCH  14  15
ENDBRANCH   3  14
TORSDOF 5
ENDMDL
MODEL 8
REMARK VINA RESULT:      -7.5      0.381      1.035
REMARK  Name = 
REMARK  8 active torsions:
REMARK  status: ('A' for Active; 'I' for Inactive)
REMARK    1  A    between atoms: C_1  and  O_2
REMARK    2  A    between atoms: O_2  and  C_3
REMARK    3  A    between atoms: C_6  and  C_7
REMARK    4  A    between atoms: C_9  and  C_10
REMARK    5  A    between atoms: C_10  and  N_11
REMARK    6  A    between atoms: C_13  and  N_14
REMARK    7  A    between atoms: C_16  and  C_17
REMARK    8  A    between atoms: C_19  and  C_20
REMARK                            x       y       z     vdW  Elec       q    Type
REMARK                         _______ _______ _______ _____ _____    ______ ____
ROOT
ATOM      1  C   UNL     1       8.308   8.834  18.114  0.00  0.00    +0.000 A 
ATOM      2  N   UNL     1       7.515   8.357  17.181  0.00  0.00    +0.000 NA
ATOM      3  C   UNL     1       7.356   7.048  17.573  0.00  0.00    +0.000 A 
ATOM      4  N   UNL     1       8.073   6.692  18.650  0.00  0.00    +0.000 NA
ATOM      5  O   UNL     1       8.698   7.885  19.020  0.00  0.00    +0.000 OA
ENDROOT
BRANCH   1   9
ATOM      6  C   UNL     1       9.531  12.871  18.824  0.00  0.00    +0.000 A 
ATOM      7  C   UNL     1       8.637  12.569  17.797  0.00  0.00    +0.000 A 
ATOM      8  C   UNL     1       8.256  11.244  17.558  0.00  0.00    +0.000 A 
ATOM      9  C   UNL     1       8.776  10.197  18.332  0.00  0.00    +0.000 A 
ATOM     10  C   UNL     1       9.713  10.508  19.328  0.00  0.00    +0.000 A 
ATOM     11  C   UNL     1      10.086  11.835  19.574  0.00  0.00    +0.000 A 
BRANCH   6  13
ATOM     12  C   UNL     1       8.830  14.958  19.665  0.00  0.00    +0.000 C 
ATOM     13  O   UNL     1       9.823  14.196  18.987  0.00  0.00    +0.000 OA
ENDBRANCH   6  13
ENDBRANCH   1   9
BRANCH   3  14
ATOM     14  C   UNL     1       6.464   6.093  16.844  0.00  0.00    +0.000 C 
BRANCH  14  15
ATOM     15  N   UNL     1       5.265   5.804  17.639  0.00  0.00    +0.000 NA
ATOM     16  C   UNL     1       4.456   4.736  17.026  0.00  0.00    +0.000 C 
ATOM     17  C   UNL     1       4.332   4.046  18.408  0.00  0.00    +0.000 C 
ATOM     18  C   UNL     1       5.546   4.931  18.794  0.00  0.00    +0.000 C 
BRANCH  17  19
ATOM     19  N   UNL     1       3.140   4.407  19.150  0.00  0.00    +0.000 N 
ATOM     20  N   UNL     1       2.985   5.599  19.752  0.00  0.00    +0.000 NA
ATOM     21  C   UNL     1       1.784   5.542  20.330  0.00  0.00    +0.000 A 
ATOM     22  C   UNL     1       1.289   6.694  21.120  0.00  0.00    +0.000 C 
ATOM     23  C   UNL     1       1.152   4.309  20.081  0.00  0.00    +0.000 A 
ATOM     24  C   UNL     1       2.040   3.586  19.308  0.00  0.00    +0.000 A 
ATOM     25  C   UNL     1       1.923   2.217  18.756  0.00  0.00    +0.000 C 
ENDBRANCH  17  19
ENDBRANCH  14  15
ENDBRANCH   3  14
TORSDOF 5
ENDMDL
MODEL 9
REMARK VINA RESULT:      -7.5      0.932      1.898
REMARK  Name = 
REMARK  8 active torsions:
REMARK  status: ('A' for Active; 'I' for Inactive)
REMARK    1  A    between atoms: C_1  and  O_2
REMARK    2  A    between atoms: O_2  and  C_3
REMARK    3  A    between atoms: C_6  and  C_7
REMARK    4  A    between atoms: C_9  and  C_10
REMARK    5  A    between atoms: C_10  and  N_11
REMARK    6  A    between atoms: C_13  and  N_14
REMARK    7  A    between atoms: C_16  and  C_17
REMARK    8  A    between atoms: C_19  and  C_20
REMARK                            x       y       z     vdW  Elec       q    Type
REMARK                         _______ _______ _______ _____ _____    ______ ____
ROOT
ATOM      1  C   UNL     1       8.086   8.355  17.982  0.00  0.00    +0.000 A 
ATOM      2  N   UNL     1       7.328   7.953  16.987  0.00  0.00    +0.000 NA
ATOM      3  C   UNL     1       7.162   6.616  17.268  0.00  0.00    +0.000 A 
ATOM      4  N   UNL     1       7.843   6.177  18.338  0.00  0.00    +0.000 NA
ATOM      5  O   UNL     1       8.449   7.338  18.823  0.00  0.00    +0.000 OA
ENDROOT
BRANCH   1   9
ATOM      6  C   UNL     1       9.571  12.253  18.931  0.00  0.00    +0.000 A 
ATOM      7  C   UNL     1       9.886  11.157  19.735  0.00  0.00    +0.000 A 
ATOM      8  C   UNL     1       9.382   9.889  19.429  0.00  0.00    +0.000 A 
ATOM      9  C   UNL     1       8.540   9.698  18.324  0.00  0.00    +0.000 A 
ATOM     10  C   UNL     1       8.190  10.816  17.554  0.00  0.00    +0.000 A 
ATOM     11  C   UNL     1       8.703  12.084  17.854  0.00  0.00    +0.000 A 
BRANCH   6  13
ATOM     12  C   UNL     1      10.189  13.674  20.708  0.00  0.00    +0.000 C 
ATOM     13  O   UNL     1      10.130  13.443  19.304  0.00  0.00    +0.000 OA
ENDBRANCH   6  13
ENDBRANCH   1   9
BRANCH   3  14
ATOM     14  C   UNL     1       6.300   5.720  16.436  0.00  0.00    +0.000 C 
BRANCH  14  15
ATOM     15  N   UNL     1       5.127   5.283  17.201  0.00  0.00    +0.000 NA
ATOM     16  C   UNL     1       5.517   4.658  18.477  0.00  0.00    +0.000 C 
ATOM     17  C   UNL     1       4.448   5.505  19.212  0.00  0.00    +0.000 C 
ATOM     18  C   UNL     1       4.485   6.388  17.936  0.00  0.00    +0.000 C 
BRANCH  17  19
ATOM     19  N   UNL     1       3.170   4.841  19.375  0.00  0.00    +0.000 N 
ATOM     20  N   UNL     1       2.940   3.583  18.959  0.00  0.00    +0.000 NA
ATOM     21  C   UNL     1       1.665   3.343  19.271  0.00  0.00    +0.000 A 
ATOM     22  C   UNL     1       1.054   2.038  18.926  0.00  0.00    +0.000 C 
ATOM     23  C   UNL     1       1.075   4.449  19.912  0.00  0.00    +0.000 A 
ATOM     24  C   UNL     1       2.065   5.410  19.979  0.00  0.00    +0.000 A 
ATOM     25  C   UNL     1       2.022   6.782  20.535  0.00  0.00    +0.000 C 
ENDBRANCH  17  19
ENDBRANCH  14  15
ENDBRANCH   3  14
TORSDOF 5
ENDMDL
