MODEL 1
REMARK VINA RESULT:      -7.1      0.000      0.000
REMARK  Name = 
REMARK  5 active torsions:
REMARK  status: ('A' for Active; 'I' for Inactive)
REMARK    1  A    between atoms: C_2  and  C_3
REMARK    2  A    between atoms: C_3  and  S_4
REMARK    3  A    between atoms: S_4  and  C_5
REMARK    4  A    between atoms: C_8  and  C_9
REMARK    5  A    between atoms: N_15  and  C_16
REMARK                            x       y       z     vdW  Elec       q    Type
REMARK                         _______ _______ _______ _____ _____    ______ ____
ROOT
ATOM      1  C   UNL     1       2.706   3.863  18.116  0.00  0.00    +0.000 A 
ATOM      2  N   UNL     1       3.505   2.990  17.549  0.00  0.00    +0.000 NA
ATOM      3  N   UNL     1       4.698   3.611  17.301  0.00  0.00    +0.000 NA
ATOM      4  C   UNL     1       4.643   4.848  17.768  0.00  0.00    +0.000 A 
ATOM      5  N   UNL     1       3.338   5.097  18.226  0.00  0.00    +0.000 N 
ENDROOT
BRANCH   4   6
ATOM      6  C   UNL     1       5.817   5.731  17.871  0.00  0.00    +0.000 A 
ATOM      7  C   UNL     1       6.768   5.550  18.880  0.00  0.00    +0.000 A 
ATOM      8  C   UNL     1       7.882   6.391  18.953  0.00  0.00    +0.000 A 
ATOM      9  C   UNL     1       8.014   7.397  18.011  0.00  0.00    +0.000 A 
ATOM     10  N   UNL     1       7.108   7.629  17.041  0.00  0.00    +0.000 NA
ATOM     11  C   UNL     1       6.027   6.811  17.012  0.00  0.00    +0.000 A 
ENDBRANCH   4   6
BRANCH   5  12
ATOM     12  C   UNL     1       2.839   6.327  18.748  0.00  0.00    +0.000 A 
ATOM     13  C   UNL     1       2.442   6.407  20.093  0.00  0.00    +0.000 A 
ATOM     14  C   UNL     1       1.755   7.527  20.560  0.00  0.00    +0.000 A 
ATOM     15  C   UNL     1       1.507   8.598  19.707  0.00  0.00    +0.000 A 
ATOM     16  C   UNL     1       1.963   8.558  18.391  0.00  0.00    +0.000 A 
ATOM     17  C   UNL     1       2.622   7.425  17.907  0.00  0.00    +0.000 A 
ENDBRANCH   5  12
BRANCH   1  18
ATOM     18  S   UNL     1       1.038   3.537  18.472  0.00  0.00    +0.000 S 
BRANCH  18  19
ATOM     19  C   UNL     1       1.197   2.250  19.758  0.00  0.00    +0.000 C 
BRANCH  19  21
ATOM     20  N   UNL     1       2.144   3.254  22.003  0.00  0.00    +0.000 NA
ATOM     21  C   UNL     1       1.720   2.805  21.022  0.00  0.00    +0.000 C 
ENDBRANCH  19  21
ENDBRANCH  18  19
ENDBRANCH   1  18
TORSDOF 5
ENDMDL
MODEL 2
REMARK VINA RESULT:      -6.9      0.651      1.057
REMARK  Name = 
REMARK  5 active torsions:
REMARK  status: ('A' for Active; 'I' for Inactive)
REMARK    1  A    between atoms: C_2  and  C_3
REMARK    2  A    between atoms: C_3  and  S_4
REMARK    3  A    between atoms: S_4  and  C_5
REMARK    4  A    between atoms: C_8  and  C_9
REMARK    5  A    between atoms: N_15  and  C_16
REMARK                            x       y       z     vdW  Elec       q    Type
REMARK                         _______ _______ _______ _____ _____    ______ ____
ROOT
ATOM      1  C   UNL     1       2.816   3.900  18.038  0.00  0.00    +0.000 A 
ATOM      2  N   UNL     1       3.640   3.025  17.512  0.00  0.00    +0.000 NA
ATOM      3  N   UNL     1       4.848   3.641  17.331  0.00  0.00    +0.000 NA
ATOM      4  C   UNL     1       4.774   4.877  17.798  0.00  0.00    +0.000 A 
ATOM      5  N   UNL     1       3.447   5.131  18.187  0.00  0.00    +0.000 N 
ENDROOT
BRANCH   4   6
ATOM      6  C   UNL     1       5.944   5.754  17.968  0.00  0.00    +0.000 A 
ATOM      7  C   UNL     1       6.155   6.846  17.121  0.00  0.00    +0.000 A 
ATOM      8  C   UNL     1       7.265   7.675  17.308  0.00  0.00    +0.000 A 
ATOM      9  C   UNL     1       8.140   7.385  18.341  0.00  0.00    +0.000 A 
ATOM     10  N   UNL     1       7.995   6.326  19.161  0.00  0.00    +0.000 NA
ATOM     11  C   UNL     1       6.921   5.529  18.939  0.00  0.00    +0.000 A 
ENDBRANCH   4   6
BRANCH   5  12
ATOM     12  C   UNL     1       2.927   6.361  18.686  0.00  0.00    +0.000 A 
ATOM     13  C   UNL     1       2.514   6.454  20.025  0.00  0.00    +0.000 A 
ATOM     14  C   UNL     1       1.807   7.572  20.468  0.00  0.00    +0.000 A 
ATOM     15  C   UNL     1       1.556   8.628  19.598  0.00  0.00    +0.000 A 
ATOM     16  C   UNL     1       2.027   8.576  18.288  0.00  0.00    +0.000 A 
ATOM     17  C   UNL     1       2.705   7.445  17.827  0.00  0.00    +0.000 A 
ENDBRANCH   5  12
BRANCH   1  18
ATOM     18  S   UNL     1       1.129   3.582  18.304  0.00  0.00    +0.000 S 
BRANCH  18  19
ATOM     19  C   UNL     1       1.213   2.306  19.607  0.00  0.00    +0.000 C 
BRANCH  19  21
ATOM     20  N   UNL     1       2.118   3.280  21.883  0.00  0.00    +0.000 NA
ATOM     21  C   UNL     1       1.713   2.860  20.881  0.00  0.00    +0.000 C 
ENDBRANCH  19  21
ENDBRANCH  18  19
ENDBRANCH   1  18
TORSDOF 5
ENDMDL
MODEL 3
REMARK VINA RESULT:      -6.9      2.160      5.139
REMARK  Name = 
REMARK  5 active torsions:
REMARK  status: ('A' for Active; 'I' for Inactive)
REMARK    1  A    between atoms: C_2  and  C_3
REMARK    2  A    between atoms: C_3  and  S_4
REMARK    3  A    between atoms: S_4  and  C_5
REMARK    4  A    between atoms: C_8  and  C_9
REMARK    5  A    between atoms: N_15  and  C_16
REMARK                            x       y       z     vdW  Elec       q    Type
REMARK                         _______ _______ _______ _____ _____    ______ ____
ROOT
ATOM      1  C   UNL     1       4.619   5.505  16.856  0.00  0.00    +0.000 A 
ATOM      2  N   UNL     1       4.957   6.683  16.388  0.00  0.00    +0.000 NA
ATOM      3  N   UNL     1       4.118   7.611  16.941  0.00  0.00    +0.000 NA
ATOM      4  C   UNL     1       3.303   7.003  17.788  0.00  0.00    +0.000 A 
ATOM      5  N   UNL     1       3.522   5.617  17.704  0.00  0.00    +0.000 N 
ENDROOT
BRANCH   4   6
ATOM      6  C   UNL     1       2.419   7.718  18.723  0.00  0.00    +0.000 A 
ATOM      7  C   UNL     1       2.225   7.256  20.028  0.00  0.00    +0.000 A 
ATOM      8  C   UNL     1       1.392   7.958  20.904  0.00  0.00    +0.000 A 
ATOM      9  C   UNL     1       0.770   9.108  20.447  0.00  0.00    +0.000 A 
ATOM     10  N   UNL     1       0.903   9.573  19.190  0.00  0.00    +0.000 NA
ATOM     11  C   UNL     1       1.699   8.857  18.358  0.00  0.00    +0.000 A 
ENDBRANCH   4   6
BRANCH   5  12
ATOM     12  C   UNL     1       2.811   4.598  18.404  0.00  0.00    +0.000 A 
ATOM     13  C   UNL     1       3.411   3.950  19.496  0.00  0.00    +0.000 A 
ATOM     14  C   UNL     1       2.823   2.813  20.051  0.00  0.00    +0.000 A 
ATOM     15  C   UNL     1       1.607   2.347  19.560  0.00  0.00    +0.000 A 
ATOM     16  C   UNL     1       0.969   3.028  18.526  0.00  0.00    +0.000 A 
ATOM     17  C   UNL     1       1.568   4.147  17.943  0.00  0.00    +0.000 A 
ENDBRANCH   5  12
BRANCH   1  18
ATOM     18  S   UNL     1       5.334   4.020  16.306  0.00  0.00    +0.000 S 
BRANCH  18  19
ATOM     19  C   UNL     1       7.111   4.425  16.415  0.00  0.00    +0.000 C 
BRANCH  19  21
ATOM     20  N   UNL     1       7.802   5.046  18.881  0.00  0.00    +0.000 NA
ATOM     21  C   UNL     1       7.508   4.767  17.794  0.00  0.00    +0.000 C 
ENDBRANCH  19  21
ENDBRANCH  18  19
ENDBRANCH   1  18
TORSDOF 5
ENDMDL
MODEL 4
REMARK VINA RESULT:      -6.9      2.107      5.236
REMARK  Name = 
REMARK  5 active torsions:
REMARK  status: ('A' for Active; 'I' for Inactive)
REMARK    1  A    between atoms: C_2  and  C_3
REMARK    2  A    between atoms: C_3  and  S_4
REMARK    3  A    between atoms: S_4  and  C_5
REMARK    4  A    between atoms: C_8  and  C_9
REMARK    5  A    between atoms: N_15  and  C_16
REMARK                            x       y       z     vdW  Elec       q    Type
REMARK                         _______ _______ _______ _____ _____    ______ ____
ROOT
ATOM      1  C   UNL     1       4.421   5.582  17.298  0.00  0.00    +0.000 A 
ATOM      2  N   UNL     1       4.836   6.681  16.713  0.00  0.00    +0.000 NA
ATOM      3  N   UNL     1       3.983   7.692  17.063  0.00  0.00    +0.000 NA
ATOM      4  C   UNL     1       3.080   7.218  17.907  0.00  0.00    +0.000 A 
ATOM      5  N   UNL     1       3.261   5.829  18.024  0.00  0.00    +0.000 N 
ENDROOT
BRANCH   4   6
ATOM      6  C   UNL     1       2.144   8.070  18.658  0.00  0.00    +0.000 A 
ATOM      7  C   UNL     1       1.440   9.100  18.025  0.00  0.00    +0.000 A 
ATOM      8  C   UNL     1       0.545   9.888  18.753  0.00  0.00    +0.000 A 
ATOM      9  C   UNL     1       0.378   9.625  20.102  0.00  0.00    +0.000 A 
ATOM     10  N   UNL     1       1.057   8.666  20.761  0.00  0.00    +0.000 NA
ATOM     11  C   UNL     1       1.935   7.934  20.031  0.00  0.00    +0.000 A 
ENDBRANCH   4   6
BRANCH   5  12
ATOM     12  C   UNL     1       2.459   4.928  18.785  0.00  0.00    +0.000 A 
ATOM     13  C   UNL     1       2.716   4.749  20.154  0.00  0.00    +0.000 A 
ATOM     14  C   UNL     1       2.091   3.720  20.860  0.00  0.00    +0.000 A 
ATOM     15  C   UNL     1       1.166   2.900  20.222  0.00  0.00    +0.000 A 
ATOM     16  C   UNL     1       0.850   3.118  18.883  0.00  0.00    +0.000 A 
ATOM     17  C   UNL     1       1.498   4.124  18.161  0.00  0.00    +0.000 A 
ENDBRANCH   5  12
BRANCH   1  18
ATOM     18  S   UNL     1       5.131   4.023  17.012  0.00  0.00    +0.000 S 
BRANCH  18  19
ATOM     19  C   UNL     1       6.891   4.469  16.815  0.00  0.00    +0.000 C 
BRANCH  19  21
ATOM     20  N   UNL     1       7.993   5.190  19.098  0.00  0.00    +0.000 NA
ATOM     21  C   UNL     1       7.498   4.872  18.099  0.00  0.00    +0.000 C 
ENDBRANCH  19  21
ENDBRANCH  18  19
ENDBRANCH   1  18
TORSDOF 5
ENDMDL
MODEL 5
REMARK VINA RESULT:      -6.9      0.582      1.192
REMARK  Name = 
REMARK  5 active torsions:
REMARK  status: ('A' for Active; 'I' for Inactive)
REMARK    1  A    between atoms: C_2  and  C_3
REMARK    2  A    between atoms: C_3  and  S_4
REMARK    3  A    between atoms: S_4  and  C_5
REMARK    4  A    between atoms: C_8  and  C_9
REMARK    5  A    between atoms: N_15  and  C_16
REMARK                            x       y       z     vdW  Elec       q    Type
REMARK                         _______ _______ _______ _____ _____    ______ ____
ROOT
ATOM      1  C   UNL     1       2.659   3.507  18.358  0.00  0.00    +0.000 A 
ATOM      2  N   UNL     1       3.528   2.607  17.964  0.00  0.00    +0.000 NA
ATOM      3  N   UNL     1       4.691   3.254  17.649  0.00  0.00    +0.000 NA
ATOM      4  C   UNL     1       4.546   4.545  17.903  0.00  0.00    +0.000 A 
ATOM      5  N   UNL     1       3.212   4.781  18.280  0.00  0.00    +0.000 N 
ENDROOT
BRANCH   4   6
ATOM      6  C   UNL     1       5.661   5.507  17.891  0.00  0.00    +0.000 A 
ATOM      7  C   UNL     1       6.667   5.455  18.860  0.00  0.00    +0.000 A 
ATOM      8  C   UNL     1       7.725   6.368  18.822  0.00  0.00    +0.000 A 
ATOM      9  C   UNL     1       7.745   7.315  17.812  0.00  0.00    +0.000 A 
ATOM     10  N   UNL     1       6.781   7.423  16.876  0.00  0.00    +0.000 NA
ATOM     11  C   UNL     1       5.758   6.537  16.955  0.00  0.00    +0.000 A 
ENDBRANCH   4   6
BRANCH   5  12
ATOM     12  C   UNL     1       2.623   6.045  18.578  0.00  0.00    +0.000 A 
ATOM     13  C   UNL     1       2.397   6.972  17.548  0.00  0.00    +0.000 A 
ATOM     14  C   UNL     1       2.027   8.283  17.849  0.00  0.00    +0.000 A 
ATOM     15  C   UNL     1       1.826   8.665  19.171  0.00  0.00    +0.000 A 
ATOM     16  C   UNL     1       1.975   7.731  20.194  0.00  0.00    +0.000 A 
ATOM     17  C   UNL     1       2.379   6.425  19.903  0.00  0.00    +0.000 A 
ENDBRANCH   5  12
BRANCH   1  18
ATOM     18  S   UNL     1       1.000   3.138  18.719  0.00  0.00    +0.000 S 
BRANCH  18  19
ATOM     19  C   UNL     1       0.917   3.585  20.487  0.00  0.00    +0.000 C 
BRANCH  19  21
ATOM     20  N   UNL     1       2.834   2.415  21.867  0.00  0.00    +0.000 NA
ATOM     21  C   UNL     1       1.995   2.940  21.263  0.00  0.00    +0.000 C 
ENDBRANCH  19  21
ENDBRANCH  18  19
ENDBRANCH   1  18
TORSDOF 5
ENDMDL
MODEL 6
REMARK VINA RESULT:      -6.9      2.144      5.154
REMARK  Name = 
REMARK  5 active torsions:
REMARK  status: ('A' for Active; 'I' for Inactive)
REMARK    1  A    between atoms: C_2  and  C_3
REMARK    2  A    between atoms: C_3  and  S_4
REMARK    3  A    between atoms: S_4  and  C_5
REMARK    4  A    between atoms: C_8  and  C_9
REMARK    5  A    between atoms: N_15  and  C_16
REMARK                            x       y       z     vdW  Elec       q    Type
REMARK                         _______ _______ _______ _____ _____    ______ ____
ROOT
ATOM      1  C   UNL     1       4.462   5.499  17.308  0.00  0.00    +0.000 A 
ATOM      2  N   UNL     1       4.764   6.631  16.718  0.00  0.00    +0.000 NA
ATOM      3  N   UNL     1       3.902   7.589  17.179  0.00  0.00    +0.000 NA
ATOM      4  C   UNL     1       3.111   7.049  18.092  0.00  0.00    +0.000 A 
ATOM      5  N   UNL     1       3.369   5.668  18.150  0.00  0.00    +0.000 N 
ENDROOT
BRANCH   4   6
ATOM      6  C   UNL     1       2.213   7.833  18.956  0.00  0.00    +0.000 A 
ATOM      7  C   UNL     1       1.970   7.452  20.279  0.00  0.00    +0.000 A 
ATOM      8  C   UNL     1       1.125   8.218  21.086  0.00  0.00    +0.000 A 
ATOM      9  C   UNL     1       0.540   9.350  20.545  0.00  0.00    +0.000 A 
ATOM     10  N   UNL     1       0.720   9.739  19.267  0.00  0.00    +0.000 NA
ATOM     11  C   UNL     1       1.526   8.961  18.504  0.00  0.00    +0.000 A 
ENDBRANCH   4   6
BRANCH   5  12
ATOM     12  C   UNL     1       2.690   4.709  18.959  0.00  0.00    +0.000 A 
ATOM     13  C   UNL     1       1.512   4.107  18.489  0.00  0.00    +0.000 A 
ATOM     14  C   UNL     1       0.724   3.338  19.346  0.00  0.00    +0.000 A 
ATOM     15  C   UNL     1       1.132   3.117  20.658  0.00  0.00    +0.000 A 
ATOM     16  C   UNL     1       2.337   3.649  21.110  0.00  0.00    +0.000 A 
ATOM     17  C   UNL     1       3.114   4.449  20.267  0.00  0.00    +0.000 A 
ENDBRANCH   5  12
BRANCH   1  18
ATOM     18  S   UNL     1       5.215   3.986  16.908  0.00  0.00    +0.000 S 
BRANCH  18  19
ATOM     19  C   UNL     1       6.968   4.483  16.798  0.00  0.00    +0.000 C 
BRANCH  19  21
ATOM     20  N   UNL     1       7.883   5.299  19.131  0.00  0.00    +0.000 NA
ATOM     21  C   UNL     1       7.490   4.934  18.103  0.00  0.00    +0.000 C 
ENDBRANCH  19  21
ENDBRANCH  18  19
ENDBRANCH   1  18
TORSDOF 5
ENDMDL
MODEL 7
REMARK VINA RESULT:      -6.9      2.223      5.519
REMARK  Name = 
REMARK  5 active torsions:
REMARK  status: ('A' for Active; 'I' for Inactive)
REMARK    1  A    between atoms: C_2  and  C_3
REMARK    2  A    between atoms: C_3  and  S_4
REMARK    3  A    between atoms: S_4  and  C_5
REMARK    4  A    between atoms: C_8  and  C_9
REMARK    5  A    between atoms: N_15  and  C_16
REMARK                            x       y       z     vdW  Elec       q    Type
REMARK                         _______ _______ _______ _____ _____    ______ ____
ROOT
ATOM      1  C   UNL     1       4.305   5.621  17.507  0.00  0.00    +0.000 A 
ATOM      2  N   UNL     1       4.691   6.704  16.875  0.00  0.00    +0.000 NA
ATOM      3  N   UNL     1       3.826   7.712  17.204  0.00  0.00    +0.000 NA
ATOM      4  C   UNL     1       2.946   7.255  18.080  0.00  0.00    +0.000 A 
ATOM      5  N   UNL     1       3.153   5.874  18.244  0.00  0.00    +0.000 N 
ENDROOT
BRANCH   4   6
ATOM      6  C   UNL     1       2.007   8.117  18.816  0.00  0.00    +0.000 A 
ATOM      7  C   UNL     1       1.296   9.129  18.163  0.00  0.00    +0.000 A 
ATOM      8  C   UNL     1       0.399   9.928  18.877  0.00  0.00    +0.000 A 
ATOM      9  C   UNL     1       0.238   9.694  20.233  0.00  0.00    +0.000 A 
ATOM     10  N   UNL     1       0.924   8.752  20.909  0.00  0.00    +0.000 NA
ATOM     11  C   UNL     1       1.804   8.009  20.192  0.00  0.00    +0.000 A 
ENDBRANCH   4   6
BRANCH   5  12
ATOM     12  C   UNL     1       2.380   4.988  19.051  0.00  0.00    +0.000 A 
ATOM     13  C   UNL     1       2.651   4.878  20.425  0.00  0.00    +0.000 A 
ATOM     14  C   UNL     1       2.058   3.866  21.181  0.00  0.00    +0.000 A 
ATOM     15  C   UNL     1       1.150   2.994  20.588  0.00  0.00    +0.000 A 
ATOM     16  C   UNL     1       0.820   3.143  19.243  0.00  0.00    +0.000 A 
ATOM     17  C   UNL     1       1.436   4.132  18.471  0.00  0.00    +0.000 A 
ENDBRANCH   5  12
BRANCH   1  18
ATOM     18  S   UNL     1       5.038   4.064  17.266  0.00  0.00    +0.000 S 
BRANCH  18  19
ATOM     19  C   UNL     1       6.801   4.522  17.136  0.00  0.00    +0.000 C 
BRANCH  19  21
ATOM     20  N   UNL     1       7.475   5.179  14.674  0.00  0.00    +0.000 NA
ATOM     21  C   UNL     1       7.167   4.890  15.754  0.00  0.00    +0.000 C 
ENDBRANCH  19  21
ENDBRANCH  18  19
ENDBRANCH   1  18
TORSDOF 5
ENDMDL
MODEL 8
REMARK VINA RESULT:      -6.8      2.134      5.225
REMARK  Name = 
REMARK  5 active torsions:
REMARK  status: ('A' for Active; 'I' for Inactive)
REMARK    1  A    between atoms: C_2  and  C_3
REMARK    2  A    between atoms: C_3  and  S_4
REMARK    3  A    between atoms: S_4  and  C_5
REMARK    4  A    between atoms: C_8  and  C_9
REMARK    5  A    between atoms: N_15  and  C_16
REMARK                            x       y       z     vdW  Elec       q    Type
REMARK                         _______ _______ _______ _____ _____    ______ ____
ROOT
ATOM      1  C   UNL     1       4.550   5.501  17.028  0.00  0.00    +0.000 A 
ATOM      2  N   UNL     1       4.876   6.636  16.456  0.00  0.00    +0.000 NA
ATOM      3  N   UNL     1       4.024   7.600  16.920  0.00  0.00    +0.000 NA
ATOM      4  C   UNL     1       3.214   7.062  17.817  0.00  0.00    +0.000 A 
ATOM      5  N   UNL     1       3.449   5.676  17.859  0.00  0.00    +0.000 N 
ENDROOT
BRANCH   4   6
ATOM      6  C   UNL     1       2.318   7.849  18.680  0.00  0.00    +0.000 A 
ATOM      7  C   UNL     1       1.654   8.978  18.191  0.00  0.00    +0.000 A 
ATOM      8  C   UNL     1       0.797   9.704  19.023  0.00  0.00    +0.000 A 
ATOM      9  C   UNL     1       0.627   9.278  20.330  0.00  0.00    +0.000 A 
ATOM     10  N   UNL     1       1.269   8.216  20.853  0.00  0.00    +0.000 NA
ATOM     11  C   UNL     1       2.112   7.548  20.027  0.00  0.00    +0.000 A 
ENDBRANCH   4   6
BRANCH   5  12
ATOM     12  C   UNL     1       2.747   4.717  18.647  0.00  0.00    +0.000 A 
ATOM     13  C   UNL     1       1.575   4.125  18.148  0.00  0.00    +0.000 A 
ATOM     14  C   UNL     1       0.763   3.356  18.982  0.00  0.00    +0.000 A 
ATOM     15  C   UNL     1       1.139   3.126  20.302  0.00  0.00    +0.000 A 
ATOM     16  C   UNL     1       2.337   3.649  20.784  0.00  0.00    +0.000 A 
ATOM     17  C   UNL     1       3.138   4.448  19.964  0.00  0.00    +0.000 A 
ENDBRANCH   5  12
BRANCH   1  18
ATOM     18  S   UNL     1       5.284   3.981  16.617  0.00  0.00    +0.000 S 
BRANCH  18  19
ATOM     19  C   UNL     1       7.049   4.443  16.573  0.00  0.00    +0.000 C 
BRANCH  19  21
ATOM     20  N   UNL     1       7.938   5.041  18.982  0.00  0.00    +0.000 NA
ATOM     21  C   UNL     1       7.557   4.782  17.917  0.00  0.00    +0.000 C 
ENDBRANCH  19  21
ENDBRANCH  18  19
ENDBRANCH   1  18
TORSDOF 5
ENDMDL
MODEL 9
REMARK VINA RESULT:      -6.8      2.401      5.462
REMARK  Name = 
REMARK  5 active torsions:
REMARK  status: ('A' for Active; 'I' for Inactive)
REMARK    1  A    between atoms: C_2  and  C_3
REMARK    2  A    between atoms: C_3  and  S_4
REMARK    3  A    between atoms: S_4  and  C_5
REMARK    4  A    between atoms: C_8  and  C_9
REMARK    5  A    between atoms: N_15  and  C_16
REMARK                            x       y       z     vdW  Elec       q    Type
REMARK                         _______ _______ _______ _____ _____    ______ ____
ROOT
ATOM      1  C   UNL     1       4.234   5.689  17.694  0.00  0.00    +0.000 A 
ATOM      2  N   UNL     1       4.579   6.800  17.088  0.00  0.00    +0.000 NA
ATOM      3  N   UNL     1       3.699   7.777  17.468  0.00  0.00    +0.000 NA
ATOM      4  C   UNL     1       2.851   7.272  18.349  0.00  0.00    +0.000 A 
ATOM      5  N   UNL     1       3.094   5.892  18.465  0.00  0.00    +0.000 N 
ENDROOT
BRANCH   4   6
ATOM      6  C   UNL     1       1.910   8.089  19.133  0.00  0.00    +0.000 A 
ATOM      7  C   UNL     1       1.692   7.834  20.490  0.00  0.00    +0.000 A 
ATOM      8  C   UNL     1       0.805   8.630  21.220  0.00  0.00    +0.000 A 
ATOM      9  C   UNL     1       0.155   9.664  20.568  0.00  0.00    +0.000 A 
ATOM     10  N   UNL     1       0.309   9.927  19.255  0.00  0.00    +0.000 NA
ATOM     11  C   UNL     1       1.159   9.121  18.571  0.00  0.00    +0.000 A 
ENDBRANCH   4   6
BRANCH   5  12
ATOM     12  C   UNL     1       2.362   4.963  19.261  0.00  0.00    +0.000 A 
ATOM     13  C   UNL     1       2.691   4.790  20.616  0.00  0.00    +0.000 A 
ATOM     14  C   UNL     1       2.136   3.740  21.348  0.00  0.00    +0.000 A 
ATOM     15  C   UNL     1       1.209   2.890  20.754  0.00  0.00    +0.000 A 
ATOM     16  C   UNL     1       0.821   3.099  19.432  0.00  0.00    +0.000 A 
ATOM     17  C   UNL     1       1.398   4.128  18.682  0.00  0.00    +0.000 A 
ENDBRANCH   5  12
BRANCH   1  18
ATOM     18  S   UNL     1       4.997   4.159  17.387  0.00  0.00    +0.000 S 
BRANCH  18  19
ATOM     19  C   UNL     1       5.265   4.256  15.584  0.00  0.00    +0.000 C 
BRANCH  19  21
ATOM     20  N   UNL     1       7.634   5.252  14.999  0.00  0.00    +0.000 NA
ATOM     21  C   UNL     1       6.597   4.804  15.260  0.00  0.00    +0.000 C 
ENDBRANCH  19  21
ENDBRANCH  18  19
ENDBRANCH   1  18
TORSDOF 5
ENDMDL
