MODEL 1
REMARK VINA RESULT:      -8.2      0.000      0.000
REMARK  Name = 
REMARK  8 active torsions:
REMARK  status: ('A' for Active; 'I' for Inactive)
REMARK    1  A    between atoms: C_1  and  O_2
REMARK    2  A    between atoms: O_2  and  C_3
REMARK    3  A    between atoms: C_6  and  C_7
REMARK    4  A    between atoms: C_11  and  C_12
REMARK    5  A    between atoms: N_14  and  C_15
REMARK    6  A    between atoms: C_15  and  C_16
REMARK    7  A    between atoms: C_16  and  C_17
REMARK    8  A    between atoms: C_17  and  N_18
REMARK                            x       y       z     vdW  Elec       q    Type
REMARK                         _______ _______ _______ _____ _____    ______ ____
ROOT
ATOM      1  C   UNL     1       0.378  11.199  19.308  0.00  0.00    +0.000 C 
ATOM      2  C   UNL     1       1.234  10.103  18.628  0.00  0.00    +0.000 C 
ATOM      3  N   UNL     1       1.401   8.924  19.445  0.00  0.00    +0.000 N 
ATOM      4  C   UNL     1       1.907   7.722  19.061  0.00  0.00    +0.000 A 
ATOM      5  C   UNL     1       1.922   6.953  20.212  0.00  0.00    +0.000 A 
ATOM      6  N   UNL     1       1.417   7.691  21.278  0.00  0.00    +0.000 NA
ATOM      7  C   UNL     1       1.117   8.879  20.786  0.00  0.00    +0.000 A 
ATOM      8  C   UNL     1       0.578  10.002  21.518  0.00  0.00    +0.000 C 
ATOM      9  O   UNL     1       0.332  10.024  22.725  0.00  0.00    +0.000 OA
ATOM     10  N   UNL     1       0.333  11.135  20.766  0.00  0.00    +0.000 N 
ATOM     11  H   UNL     1      -0.125  11.876  21.279  0.00  0.00    +0.000 HD
ENDROOT
BRANCH   1  15
ATOM     12  C   UNL     1      -3.640  10.930  17.733  0.00  0.00    +0.000 A 
ATOM     13  C   UNL     1      -3.327  11.910  18.675  0.00  0.00    +0.000 A 
ATOM     14  C   UNL     1      -2.020  12.065  19.139  0.00  0.00    +0.000 A 
ATOM     15  C   UNL     1      -1.004  11.219  18.678  0.00  0.00    +0.000 A 
ATOM     16  C   UNL     1      -1.321  10.257  17.703  0.00  0.00    +0.000 A 
ATOM     17  C   UNL     1      -2.631  10.109  17.236  0.00  0.00    +0.000 A 
BRANCH  12  19
ATOM     18  C   UNL     1      -5.866  10.842  18.524  0.00  0.00    +0.000 C 
ATOM     19  O   UNL     1      -4.968  10.832  17.423  0.00  0.00    +0.000 OA
ENDBRANCH  12  19
ENDBRANCH   1  15
BRANCH   5  20
ATOM     20  C   UNL     1       2.408   5.578  20.320  0.00  0.00    +0.000 C 
ATOM     21  O   UNL     1       2.295   4.910  21.342  0.00  0.00    +0.000 OA
ATOM     22  N   UNL     1       3.003   5.108  19.163  0.00  0.00    +0.000 N 
ATOM     23  H   UNL     1       3.105   5.768  18.397  0.00  0.00    +0.000 HD
BRANCH  22  24
ATOM     24  C   UNL     1       3.566   3.782  19.130  0.00  0.00    +0.000 C 
BRANCH  24  25
ATOM     25  C   UNL     1       4.966   3.679  18.514  0.00  0.00    +0.000 C 
BRANCH  25  26
ATOM     26  C   UNL     1       5.788   4.867  19.042  0.00  0.00    +0.000 C 
BRANCH  26  27
ATOM     27  N   UNL     1       7.206   4.955  18.667  0.00  0.00    +0.000 NA
ATOM     28  C   UNL     1       7.828   6.291  18.785  0.00  0.00    +0.000 C 
ATOM     29  C   UNL     1       7.518   7.296  17.656  0.00  0.00    +0.000 C 
ATOM     30  O   UNL     1       7.677   6.730  16.349  0.00  0.00    +0.000 OA
ATOM     31  C   UNL     1       6.904   5.533  16.226  0.00  0.00    +0.000 C 
ATOM     32  C   UNL     1       7.371   4.496  17.261  0.00  0.00    +0.000 C 
ENDBRANCH  26  27
ENDBRANCH  25  26
ENDBRANCH  24  25
ENDBRANCH  22  24
ENDBRANCH   5  20
TORSDOF 7
ENDMDL
MODEL 2
REMARK VINA RESULT:      -8.0      1.816      3.677
REMARK  Name = 
REMARK  8 active torsions:
REMARK  status: ('A' for Active; 'I' for Inactive)
REMARK    1  A    between atoms: C_1  and  O_2
REMARK    2  A    between atoms: O_2  and  C_3
REMARK    3  A    between atoms: C_6  and  C_7
REMARK    4  A    between atoms: C_11  and  C_12
REMARK    5  A    between atoms: N_14  and  C_15
REMARK    6  A    between atoms: C_15  and  C_16
REMARK    7  A    between atoms: C_16  and  C_17
REMARK    8  A    between atoms: C_17  and  N_18
REMARK                            x       y       z     vdW  Elec       q    Type
REMARK                         _______ _______ _______ _____ _____    ______ ____
ROOT
ATOM      1  C   UNL     1       0.331  10.871  19.375  0.00  0.00    +0.000 C 
ATOM      2  C   UNL     1       1.390  10.425  18.338  0.00  0.00    +0.000 C 
ATOM      3  N   UNL     1       1.913   9.103  18.593  0.00  0.00    +0.000 N 
ATOM      4  C   UNL     1       2.684   8.350  17.765  0.00  0.00    +0.000 A 
ATOM      5  C   UNL     1       2.980   7.206  18.488  0.00  0.00    +0.000 A 
ATOM      6  N   UNL     1       2.379   7.274  19.741  0.00  0.00    +0.000 NA
ATOM      7  C   UNL     1       1.747   8.433  19.778  0.00  0.00    +0.000 A 
ATOM      8  C   UNL     1       0.991   8.965  20.888  0.00  0.00    +0.000 C 
ATOM      9  O   UNL     1       0.835   8.419  21.981  0.00  0.00    +0.000 OA
ATOM     10  N   UNL     1       0.408  10.198  20.669  0.00  0.00    +0.000 N 
ATOM     11  H   UNL     1      -0.188  10.510  21.424  0.00  0.00    +0.000 HD
ENDROOT
BRANCH   1  15
ATOM     12  C   UNL     1      -3.528  10.978  17.426  0.00  0.00    +0.000 A 
ATOM     13  C   UNL     1      -2.529  10.131  16.944  0.00  0.00    +0.000 A 
ATOM     14  C   UNL     1      -1.304  10.023  17.603  0.00  0.00    +0.000 A 
ATOM     15  C   UNL     1      -1.051  10.784  18.750  0.00  0.00    +0.000 A 
ATOM     16  C   UNL     1      -2.076  11.609  19.249  0.00  0.00    +0.000 A 
ATOM     17  C   UNL     1      -3.304  11.710  18.590  0.00  0.00    +0.000 A 
BRANCH  12  19
ATOM     18  C   UNL     1      -5.634  11.987  17.058  0.00  0.00    +0.000 C 
ATOM     19  O   UNL     1      -4.648  11.051  16.645  0.00  0.00    +0.000 OA
ENDBRANCH  12  19
ENDBRANCH   1  15
BRANCH   5  20
ATOM     20  C   UNL     1       3.811   6.094  18.033  0.00  0.00    +0.000 C 
ATOM     21  O   UNL     1       3.975   5.826  16.847  0.00  0.00    +0.000 OA
ATOM     22  N   UNL     1       4.394   5.378  19.064  0.00  0.00    +0.000 N 
ATOM     23  H   UNL     1       4.138   5.644  20.010  0.00  0.00    +0.000 HD
BRANCH  22  24
ATOM     24  C   UNL     1       5.210   4.227  18.770  0.00  0.00    +0.000 C 
BRANCH  24  25
ATOM     25  C   UNL     1       4.448   2.908  18.603  0.00  0.00    +0.000 C 
BRANCH  25  26
ATOM     26  C   UNL     1       4.056   2.423  20.009  0.00  0.00    +0.000 C 
BRANCH  26  27
ATOM     27  N   UNL     1       2.666   2.004  20.239  0.00  0.00    +0.000 NA
ATOM     28  C   UNL     1       1.709   2.305  19.153  0.00  0.00    +0.000 C 
ATOM     29  C   UNL     1       1.203   3.760  19.067  0.00  0.00    +0.000 C 
ATOM     30  O   UNL     1       0.777   4.277  20.334  0.00  0.00    +0.000 OA
ATOM     31  C   UNL     1       1.814   4.129  21.308  0.00  0.00    +0.000 C 
ATOM     32  C   UNL     1       2.161   2.641  21.485  0.00  0.00    +0.000 C 
ENDBRANCH  26  27
ENDBRANCH  25  26
ENDBRANCH  24  25
ENDBRANCH  22  24
ENDBRANCH   5  20
TORSDOF 7
ENDMDL
MODEL 3
REMARK VINA RESULT:      -8.0      1.061      1.702
REMARK  Name = 
REMARK  8 active torsions:
REMARK  status: ('A' for Active; 'I' for Inactive)
REMARK    1  A    between atoms: C_1  and  O_2
REMARK    2  A    between atoms: O_2  and  C_3
REMARK    3  A    between atoms: C_6  and  C_7
REMARK    4  A    between atoms: C_11  and  C_12
REMARK    5  A    between atoms: N_14  and  C_15
REMARK    6  A    between atoms: C_15  and  C_16
REMARK    7  A    between atoms: C_16  and  C_17
REMARK    8  A    between atoms: C_17  and  N_18
REMARK                            x       y       z     vdW  Elec       q    Type
REMARK                         _______ _______ _______ _____ _____    ______ ____
ROOT
ATOM      1  C   UNL     1       0.308  11.002  19.224  0.00  0.00    +0.000 C 
ATOM      2  C   UNL     1       1.193   9.967  18.489  0.00  0.00    +0.000 C 
ATOM      3  N   UNL     1       1.495   8.805  19.292  0.00  0.00    +0.000 N 
ATOM      4  C   UNL     1       2.059   7.641  18.875  0.00  0.00    +0.000 A 
ATOM      5  C   UNL     1       2.203   6.878  20.022  0.00  0.00    +0.000 A 
ATOM      6  N   UNL     1       1.718   7.582  21.119  0.00  0.00    +0.000 NA
ATOM      7  C   UNL     1       1.303   8.744  20.649  0.00  0.00    +0.000 A 
ATOM      8  C   UNL     1       0.735   9.829  21.415  0.00  0.00    +0.000 C 
ATOM      9  O   UNL     1       0.566   9.838  22.636  0.00  0.00    +0.000 OA
ATOM     10  N   UNL     1       0.362  10.939  20.682  0.00  0.00    +0.000 N 
ATOM     11  H   UNL     1      -0.113  11.649  21.225  0.00  0.00    +0.000 HD
ENDROOT
BRANCH   1  15
ATOM     12  C   UNL     1      -3.658  11.124  17.505  0.00  0.00    +0.000 A 
ATOM     13  C   UNL     1      -2.704  10.246  16.989  0.00  0.00    +0.000 A 
ATOM     14  C   UNL     1      -1.443  10.135  17.577  0.00  0.00    +0.000 A 
ATOM     15  C   UNL     1      -1.110  10.922  18.685  0.00  0.00    +0.000 A 
ATOM     16  C   UNL     1      -2.090  11.779  19.221  0.00  0.00    +0.000 A 
ATOM     17  C   UNL     1      -3.354  11.883  18.632  0.00  0.00    +0.000 A 
BRANCH  12  19
ATOM     18  C   UNL     1      -5.758  12.173  17.222  0.00  0.00    +0.000 C 
ATOM     19  O   UNL     1      -4.821  11.195  16.791  0.00  0.00    +0.000 OA
ENDBRANCH  12  19
ENDBRANCH   1  15
BRANCH   5  20
ATOM     20  C   UNL     1       2.791   5.542  20.096  0.00  0.00    +0.000 C 
ATOM     21  O   UNL     1       2.343   4.655  20.814  0.00  0.00    +0.000 OA
ATOM     22  N   UNL     1       3.896   5.375  19.279  0.00  0.00    +0.000 N 
ATOM     23  H   UNL     1       4.223   6.195  18.776  0.00  0.00    +0.000 HD
BRANCH  22  24
ATOM     24  C   UNL     1       4.606   4.122  19.275  0.00  0.00    +0.000 C 
BRANCH  24  25
ATOM     25  C   UNL     1       4.575   3.355  17.948  0.00  0.00    +0.000 C 
BRANCH  25  26
ATOM     26  C   UNL     1       4.144   4.347  16.854  0.00  0.00    +0.000 C 
BRANCH  26  27
ATOM     27  N   UNL     1       5.095   4.651  15.776  0.00  0.00    +0.000 NA
ATOM     28  C   UNL     1       6.443   4.059  15.913  0.00  0.00    +0.000 C 
ATOM     29  C   UNL     1       7.406   4.762  16.893  0.00  0.00    +0.000 C 
ATOM     30  O   UNL     1       7.446   6.183  16.710  0.00  0.00    +0.000 OA
ATOM     31  C   UNL     1       6.126   6.731  16.771  0.00  0.00    +0.000 C 
ATOM     32  C   UNL     1       5.252   6.126  15.660  0.00  0.00    +0.000 C 
ENDBRANCH  26  27
ENDBRANCH  25  26
ENDBRANCH  24  25
ENDBRANCH  22  24
ENDBRANCH   5  20
TORSDOF 7
ENDMDL
MODEL 4
REMARK VINA RESULT:      -8.0      0.985      1.395
REMARK  Name = 
REMARK  8 active torsions:
REMARK  status: ('A' for Active; 'I' for Inactive)
REMARK    1  A    between atoms: C_1  and  O_2
REMARK    2  A    between atoms: O_2  and  C_3
REMARK    3  A    between atoms: C_6  and  C_7
REMARK    4  A    between atoms: C_11  and  C_12
REMARK    5  A    between atoms: N_14  and  C_15
REMARK    6  A    between atoms: C_15  and  C_16
REMARK    7  A    between atoms: C_16  and  C_17
REMARK    8  A    between atoms: C_17  and  N_18
REMARK                            x       y       z     vdW  Elec       q    Type
REMARK                         _______ _______ _______ _____ _____    ______ ____
ROOT
ATOM      1  C   UNL     1       0.806  10.840  19.296  0.00  0.00    +0.000 C 
ATOM      2  C   UNL     1       1.516   9.642  18.621  0.00  0.00    +0.000 C 
ATOM      3  N   UNL     1       1.572   8.467  19.459  0.00  0.00    +0.000 N 
ATOM      4  C   UNL     1       1.930   7.210  19.091  0.00  0.00    +0.000 A 
ATOM      5  C   UNL     1       1.890   6.466  20.258  0.00  0.00    +0.000 A 
ATOM      6  N   UNL     1       1.500   7.276  21.319  0.00  0.00    +0.000 NA
ATOM      7  C   UNL     1       1.320   8.481  20.808  0.00  0.00    +0.000 A 
ATOM      8  C   UNL     1       0.930   9.671  21.528  0.00  0.00    +0.000 C 
ATOM      9  O   UNL     1       0.720   9.744  22.739  0.00  0.00    +0.000 OA
ATOM     10  N   UNL     1       0.793  10.809  20.756  0.00  0.00    +0.000 N 
ATOM     11  H   UNL     1       0.434  11.607  21.264  0.00  0.00    +0.000 HD
ENDROOT
BRANCH   1  15
ATOM     12  C   UNL     1      -3.251  10.974  17.805  0.00  0.00    +0.000 A 
ATOM     13  C   UNL     1      -2.838  11.884  18.780  0.00  0.00    +0.000 A 
ATOM     14  C   UNL     1      -1.514  11.909  19.219  0.00  0.00    +0.000 A 
ATOM     15  C   UNL     1      -0.582  11.002  18.700  0.00  0.00    +0.000 A 
ATOM     16  C   UNL     1      -0.998  10.112  17.694  0.00  0.00    +0.000 A 
ATOM     17  C   UNL     1      -2.324  10.095  17.252  0.00  0.00    +0.000 A 
BRANCH  12  19
ATOM     18  C   UNL     1      -5.417  11.629  18.491  0.00  0.00    +0.000 C 
ATOM     19  O   UNL     1      -4.588  11.001  17.522  0.00  0.00    +0.000 OA
ENDBRANCH  12  19
ENDBRANCH   1  15
BRANCH   5  20
ATOM     20  C   UNL     1       2.223   5.048  20.385  0.00  0.00    +0.000 C 
ATOM     21  O   UNL     1       2.472   4.515  21.461  0.00  0.00    +0.000 OA
ATOM     22  N   UNL     1       2.228   4.369  19.179  0.00  0.00    +0.000 N 
ATOM     23  H   UNL     1       2.074   4.921  18.340  0.00  0.00    +0.000 HD
BRANCH  22  24
ATOM     24  C   UNL     1       2.577   2.972  19.140  0.00  0.00    +0.000 C 
BRANCH  24  25
ATOM     25  C   UNL     1       3.865   2.639  18.378  0.00  0.00    +0.000 C 
BRANCH  25  26
ATOM     26  C   UNL     1       4.935   3.651  18.820  0.00  0.00    +0.000 C 
BRANCH  26  27
ATOM     27  N   UNL     1       5.139   4.852  17.998  0.00  0.00    +0.000 NA
ATOM     28  C   UNL     1       5.065   4.657  16.534  0.00  0.00    +0.000 C 
ATOM     29  C   UNL     1       6.310   4.044  15.859  0.00  0.00    +0.000 C 
ATOM     30  O   UNL     1       7.531   4.672  16.269  0.00  0.00    +0.000 OA
ATOM     31  C   UNL     1       7.640   4.669  17.695  0.00  0.00    +0.000 C 
ATOM     32  C   UNL     1       6.466   5.445  18.315  0.00  0.00    +0.000 C 
ENDBRANCH  26  27
ENDBRANCH  25  26
ENDBRANCH  24  25
ENDBRANCH  22  24
ENDBRANCH   5  20
TORSDOF 7
ENDMDL
MODEL 5
REMARK VINA RESULT:      -7.8      1.906      3.767
REMARK  Name = 
REMARK  8 active torsions:
REMARK  status: ('A' for Active; 'I' for Inactive)
REMARK    1  A    between atoms: C_1  and  O_2
REMARK    2  A    between atoms: O_2  and  C_3
REMARK    3  A    between atoms: C_6  and  C_7
REMARK    4  A    between atoms: C_11  and  C_12
REMARK    5  A    between atoms: N_14  and  C_15
REMARK    6  A    between atoms: C_15  and  C_16
REMARK    7  A    between atoms: C_16  and  C_17
REMARK    8  A    between atoms: C_17  and  N_18
REMARK                            x       y       z     vdW  Elec       q    Type
REMARK                         _______ _______ _______ _____ _____    ______ ____
ROOT
ATOM      1  C   UNL     1      -0.007  10.985  19.707  0.00  0.00    +0.000 C 
ATOM      2  C   UNL     1       1.096  10.842  18.632  0.00  0.00    +0.000 C 
ATOM      3  N   UNL     1       1.714   9.537  18.622  0.00  0.00    +0.000 N 
ATOM      4  C   UNL     1       2.550   9.030  17.678  0.00  0.00    +0.000 A 
ATOM      5  C   UNL     1       2.922   7.785  18.156  0.00  0.00    +0.000 A 
ATOM      6  N   UNL     1       2.301   7.545  19.378  0.00  0.00    +0.000 NA
ATOM      7  C   UNL     1       1.583   8.623  19.636  0.00  0.00    +0.000 A 
ATOM      8  C   UNL     1       0.774   8.856  20.810  0.00  0.00    +0.000 C 
ATOM      9  O   UNL     1       0.644   8.083  21.761  0.00  0.00    +0.000 OA
ATOM     10  N   UNL     1       0.103  10.064  20.835  0.00  0.00    +0.000 N 
ATOM     11  H   UNL     1      -0.525  10.168  21.621  0.00  0.00    +0.000 HD
ENDROOT
BRANCH   1  15
ATOM     12  C   UNL     1      -3.783  11.171  17.609  0.00  0.00    +0.000 A 
ATOM     13  C   UNL     1      -2.826  10.229  17.233  0.00  0.00    +0.000 A 
ATOM     14  C   UNL     1      -1.633  10.100  17.945  0.00  0.00    +0.000 A 
ATOM     15  C   UNL     1      -1.371  10.933  19.039  0.00  0.00    +0.000 A 
ATOM     16  C   UNL     1      -2.356  11.856  19.432  0.00  0.00    +0.000 A 
ATOM     17  C   UNL     1      -3.553  11.978  18.720  0.00  0.00    +0.000 A 
BRANCH  12  19
ATOM     18  C   UNL     1      -5.908  12.124  17.201  0.00  0.00    +0.000 C 
ATOM     19  O   UNL     1      -4.869  11.249  16.782  0.00  0.00    +0.000 OA
ENDBRANCH  12  19
ENDBRANCH   1  15
BRANCH   5  20
ATOM     20  C   UNL     1       3.841   6.854  17.504  0.00  0.00    +0.000 C 
ATOM     21  O   UNL     1       4.389   7.098  16.434  0.00  0.00    +0.000 OA
ATOM     22  N   UNL     1       4.034   5.678  18.208  0.00  0.00    +0.000 N 
ATOM     23  H   UNL     1       3.479   5.551  19.049  0.00  0.00    +0.000 HD
BRANCH  22  24
ATOM     24  C   UNL     1       4.883   4.647  17.670  0.00  0.00    +0.000 C 
BRANCH  24  25
ATOM     25  C   UNL     1       4.155   3.511  16.941  0.00  0.00    +0.000 C 
BRANCH  25  26
ATOM     26  C   UNL     1       2.691   3.528  17.414  0.00  0.00    +0.000 C 
BRANCH  26  27
ATOM     27  N   UNL     1       2.153   2.319  18.055  0.00  0.00    +0.000 NA
ATOM     28  C   UNL     1       0.858   2.476  18.751  0.00  0.00    +0.000 C 
ATOM     29  C   UNL     1       0.901   3.136  20.145  0.00  0.00    +0.000 C 
ATOM     30  O   UNL     1       1.916   2.582  20.991  0.00  0.00    +0.000 OA
ATOM     31  C   UNL     1       3.188   2.625  20.340  0.00  0.00    +0.000 C 
ATOM     32  C   UNL     1       3.142   1.804  19.040  0.00  0.00    +0.000 C 
ENDBRANCH  26  27
ENDBRANCH  25  26
ENDBRANCH  24  25
ENDBRANCH  22  24
ENDBRANCH   5  20
TORSDOF 7
ENDMDL
MODEL 6
REMARK VINA RESULT:      -7.6      5.841      8.924
REMARK  Name = 
REMARK  8 active torsions:
REMARK  status: ('A' for Active; 'I' for Inactive)
REMARK    1  A    between atoms: C_1  and  O_2
REMARK    2  A    between atoms: O_2  and  C_3
REMARK    3  A    between atoms: C_6  and  C_7
REMARK    4  A    between atoms: C_11  and  C_12
REMARK    5  A    between atoms: N_14  and  C_15
REMARK    6  A    between atoms: C_15  and  C_16
REMARK    7  A    between atoms: C_16  and  C_17
REMARK    8  A    between atoms: C_17  and  N_18
REMARK                            x       y       z     vdW  Elec       q    Type
REMARK                         _______ _______ _______ _____ _____    ______ ____
ROOT
ATOM      1  C   UNL     1       5.920   4.309  17.569  0.00  0.00    +0.000 C 
ATOM      2  C   UNL     1       7.153   4.887  18.306  0.00  0.00    +0.000 C 
ATOM      3  N   UNL     1       7.348   6.298  18.068  0.00  0.00    +0.000 N 
ATOM      4  C   UNL     1       8.195   7.133  18.724  0.00  0.00    +0.000 A 
ATOM      5  C   UNL     1       8.065   8.355  18.085  0.00  0.00    +0.000 A 
ATOM      6  N   UNL     1       7.135   8.250  17.056  0.00  0.00    +0.000 NA
ATOM      7  C   UNL     1       6.724   6.996  17.065  0.00  0.00    +0.000 A 
ATOM      8  C   UNL     1       5.768   6.397  16.163  0.00  0.00    +0.000 C 
ATOM      9  O   UNL     1       5.201   6.970  15.231  0.00  0.00    +0.000 OA
ATOM     10  N   UNL     1       5.491   5.063  16.394  0.00  0.00    +0.000 N 
ATOM     11  H   UNL     1       4.756   4.689  15.808  0.00  0.00    +0.000 HD
ENDROOT
BRANCH   1  15
ATOM     12  C   UNL     1       2.475   3.849  20.140  0.00  0.00    +0.000 A 
ATOM     13  C   UNL     1       3.007   2.737  19.486  0.00  0.00    +0.000 A 
ATOM     14  C   UNL     1       4.163   2.849  18.713  0.00  0.00    +0.000 A 
ATOM     15  C   UNL     1       4.796   4.088  18.566  0.00  0.00    +0.000 A 
ATOM     16  C   UNL     1       4.273   5.197  19.257  0.00  0.00    +0.000 A 
ATOM     17  C   UNL     1       3.118   5.079  20.036  0.00  0.00    +0.000 A 
BRANCH  12  19
ATOM     18  C   UNL     1       1.327   2.607  21.793  0.00  0.00    +0.000 C 
ATOM     19  O   UNL     1       1.298   3.621  20.797  0.00  0.00    +0.000 OA
ENDBRANCH  12  19
ENDBRANCH   1  15
BRANCH   5  20
ATOM     20  C   UNL     1       8.798   9.577  18.412  0.00  0.00    +0.000 C 
ATOM     21  O   UNL     1       9.135  10.398  17.565  0.00  0.00    +0.000 OA
ATOM     22  N   UNL     1       9.071   9.717  19.761  0.00  0.00    +0.000 N 
ATOM     23  H   UNL     1       8.806   8.945  20.366  0.00  0.00    +0.000 HD
BRANCH  22  24
ATOM     24  C   UNL     1       9.822  10.853  20.230  0.00  0.00    +0.000 C 
BRANCH  24  25
ATOM     25  C   UNL     1       8.982  12.018  20.767  0.00  0.00    +0.000 C 
BRANCH  25  26
ATOM     26  C   UNL     1       9.434  13.289  20.027  0.00  0.00    +0.000 C 
BRANCH  26  27
ATOM     27  N   UNL     1       9.195  13.374  18.580  0.00  0.00    +0.000 NA
ATOM     28  C   UNL     1      10.337  13.829  17.759  0.00  0.00    +0.000 C 
ATOM     29  C   UNL     1      10.619  15.346  17.752  0.00  0.00    +0.000 C 
ATOM     30  O   UNL     1       9.440  16.129  17.533  0.00  0.00    +0.000 OA
ATOM     31  C   UNL     1       8.425  15.778  18.477  0.00  0.00    +0.000 C 
ATOM     32  C   UNL     1       8.054  14.294  18.324  0.00  0.00    +0.000 C 
ENDBRANCH  26  27
ENDBRANCH  25  26
ENDBRANCH  24  25
ENDBRANCH  22  24
ENDBRANCH   5  20
TORSDOF 7
ENDMDL
MODEL 7
REMARK VINA RESULT:      -7.6      1.974      3.671
REMARK  Name = 
REMARK  8 active torsions:
REMARK  status: ('A' for Active; 'I' for Inactive)
REMARK    1  A    between atoms: C_1  and  O_2
REMARK    2  A    between atoms: O_2  and  C_3
REMARK    3  A    between atoms: C_6  and  C_7
REMARK    4  A    between atoms: C_11  and  C_12
REMARK    5  A    between atoms: N_14  and  C_15
REMARK    6  A    between atoms: C_15  and  C_16
REMARK    7  A    between atoms: C_16  and  C_17
REMARK    8  A    between atoms: C_17  and  N_18
REMARK                            x       y       z     vdW  Elec       q    Type
REMARK                         _______ _______ _______ _____ _____    ______ ____
ROOT
ATOM      1  C   UNL     1      -0.090  11.221  19.767  0.00  0.00    +0.000 C 
ATOM      2  C   UNL     1       1.023  11.069  18.703  0.00  0.00    +0.000 C 
ATOM      3  N   UNL     1       1.609   9.749  18.677  0.00  0.00    +0.000 N 
ATOM      4  C   UNL     1       2.444   9.238  17.735  0.00  0.00    +0.000 A 
ATOM      5  C   UNL     1       2.778   7.975  18.195  0.00  0.00    +0.000 A 
ATOM      6  N   UNL     1       2.136   7.730  19.405  0.00  0.00    +0.000 NA
ATOM      7  C   UNL     1       1.442   8.821  19.674  0.00  0.00    +0.000 A 
ATOM      8  C   UNL     1       0.623   9.054  20.841  0.00  0.00    +0.000 C 
ATOM      9  O   UNL     1       0.462   8.268  21.776  0.00  0.00    +0.000 OA
ATOM     10  N   UNL     1      -0.018  10.277  20.880  0.00  0.00    +0.000 N 
ATOM     11  H   UNL     1      -0.653  10.383  21.659  0.00  0.00    +0.000 HD
ENDROOT
BRANCH   1  15
ATOM     12  C   UNL     1      -4.048  10.901  18.056  0.00  0.00    +0.000 A 
ATOM     13  C   UNL     1      -3.747  11.958  18.916  0.00  0.00    +0.000 A 
ATOM     14  C   UNL     1      -2.456  12.124  19.419  0.00  0.00    +0.000 A 
ATOM     15  C   UNL     1      -1.446  11.215  19.081  0.00  0.00    +0.000 A 
ATOM     16  C   UNL     1      -1.749  10.174  18.185  0.00  0.00    +0.000 A 
ATOM     17  C   UNL     1      -3.043  10.014  17.679  0.00  0.00    +0.000 A 
BRANCH  12  19
ATOM     18  C   UNL     1      -6.293  10.708  18.771  0.00  0.00    +0.000 C 
ATOM     19  O   UNL     1      -5.365  10.807  17.700  0.00  0.00    +0.000 OA
ENDBRANCH  12  19
ENDBRANCH   1  15
BRANCH   5  20
ATOM     20  C   UNL     1       3.682   7.033  17.537  0.00  0.00    +0.000 C 
ATOM     21  O   UNL     1       4.413   7.351  16.606  0.00  0.00    +0.000 OA
ATOM     22  N   UNL     1       3.633   5.756  18.068  0.00  0.00    +0.000 N 
ATOM     23  H   UNL     1       2.943   5.585  18.793  0.00  0.00    +0.000 HD
BRANCH  22  24
ATOM     24  C   UNL     1       4.441   4.708  17.496  0.00  0.00    +0.000 C 
BRANCH  24  25
ATOM     25  C   UNL     1       3.682   3.433  17.110  0.00  0.00    +0.000 C 
BRANCH  25  26
ATOM     26  C   UNL     1       2.259   3.555  17.682  0.00  0.00    +0.000 C 
BRANCH  26  27
ATOM     27  N   UNL     1       1.726   2.433  18.468  0.00  0.00    +0.000 NA
ATOM     28  C   UNL     1       0.684   2.772  19.460  0.00  0.00    +0.000 C 
ATOM     29  C   UNL     1       1.172   3.402  20.782  0.00  0.00    +0.000 C 
ATOM     30  O   UNL     1       2.273   2.693  21.363  0.00  0.00    +0.000 OA
ATOM     31  C   UNL     1       3.334   2.553  20.414  0.00  0.00    +0.000 C 
ATOM     32  C   UNL     1       2.843   1.764  19.189  0.00  0.00    +0.000 C 
ENDBRANCH  26  27
ENDBRANCH  25  26
ENDBRANCH  24  25
ENDBRANCH  22  24
ENDBRANCH   5  20
TORSDOF 7
ENDMDL
MODEL 8
REMARK VINA RESULT:      -7.6      0.903      1.567
REMARK  Name = 
REMARK  8 active torsions:
REMARK  status: ('A' for Active; 'I' for Inactive)
REMARK    1  A    between atoms: C_1  and  O_2
REMARK    2  A    between atoms: O_2  and  C_3
REMARK    3  A    between atoms: C_6  and  C_7
REMARK    4  A    between atoms: C_11  and  C_12
REMARK    5  A    between atoms: N_14  and  C_15
REMARK    6  A    between atoms: C_15  and  C_16
REMARK    7  A    between atoms: C_16  and  C_17
REMARK    8  A    between atoms: C_17  and  N_18
REMARK                            x       y       z     vdW  Elec       q    Type
REMARK                         _______ _______ _______ _____ _____    ______ ____
ROOT
ATOM      1  C   UNL     1       0.257  11.130  19.790  0.00  0.00    +0.000 C 
ATOM      2  C   UNL     1       1.060  10.085  18.979  0.00  0.00    +0.000 C 
ATOM      3  N   UNL     1       1.282   8.853  19.700  0.00  0.00    +0.000 N 
ATOM      4  C   UNL     1       1.757   7.682  19.201  0.00  0.00    +0.000 A 
ATOM      5  C   UNL     1       1.852   6.836  20.293  0.00  0.00    +0.000 A 
ATOM      6  N   UNL     1       1.426   7.499  21.440  0.00  0.00    +0.000 NA
ATOM      7  C   UNL     1       1.094   8.717  21.052  0.00  0.00    +0.000 A 
ATOM      8  C   UNL     1       0.611   9.786  21.895  0.00  0.00    +0.000 C 
ATOM      9  O   UNL     1       0.451   9.725  23.115  0.00  0.00    +0.000 OA
ATOM     10  N   UNL     1       0.315  10.967  21.241  0.00  0.00    +0.000 N 
ATOM     11  H   UNL     1      -0.104  11.670  21.834  0.00  0.00    +0.000 HD
ENDROOT
BRANCH   1  15
ATOM     12  C   UNL     1      -3.705  11.658  18.141  0.00  0.00    +0.000 A 
ATOM     13  C   UNL     1      -2.808  10.785  17.526  0.00  0.00    +0.000 A 
ATOM     14  C   UNL     1      -1.552  10.540  18.084  0.00  0.00    +0.000 A 
ATOM     15  C   UNL     1      -1.167  11.189  19.264  0.00  0.00    +0.000 A 
ATOM     16  C   UNL     1      -2.091  12.041  19.895  0.00  0.00    +0.000 A 
ATOM     17  C   UNL     1      -3.350  12.278  19.336  0.00  0.00    +0.000 A 
BRANCH  12  19
ATOM     18  C   UNL     1      -6.000  12.219  18.234  0.00  0.00    +0.000 C 
ATOM     19  O   UNL     1      -4.866  11.870  17.451  0.00  0.00    +0.000 OA
ENDBRANCH  12  19
ENDBRANCH   1  15
BRANCH   5  20
ATOM     20  C   UNL     1       2.342   5.459  20.273  0.00  0.00    +0.000 C 
ATOM     21  O   UNL     1       2.355   4.742  21.267  0.00  0.00    +0.000 OA
ATOM     22  N   UNL     1       2.785   5.046  19.028  0.00  0.00    +0.000 N 
ATOM     23  H   UNL     1       2.793   5.742  18.289  0.00  0.00    +0.000 HD
BRANCH  22  24
ATOM     24  C   UNL     1       3.334   3.724  18.861  0.00  0.00    +0.000 C 
BRANCH  24  25
ATOM     25  C   UNL     1       4.726   3.511  19.466  0.00  0.00    +0.000 C 
BRANCH  25  26
ATOM     26  C   UNL     1       5.719   4.344  18.637  0.00  0.00    +0.000 C 
BRANCH  26  27
ATOM     27  N   UNL     1       5.223   5.018  17.429  0.00  0.00    +0.000 NA
ATOM     28  C   UNL     1       5.584   4.389  16.141  0.00  0.00    +0.000 C 
ATOM     29  C   UNL     1       7.019   4.638  15.631  0.00  0.00    +0.000 C 
ATOM     30  O   UNL     1       7.399   6.019  15.694  0.00  0.00    +0.000 OA
ATOM     31  C   UNL     1       7.204   6.531  17.015  0.00  0.00    +0.000 C 
ATOM     32  C   UNL     1       5.722   6.420  17.409  0.00  0.00    +0.000 C 
ENDBRANCH  26  27
ENDBRANCH  25  26
ENDBRANCH  24  25
ENDBRANCH  22  24
ENDBRANCH   5  20
TORSDOF 7
ENDMDL
MODEL 9
REMARK VINA RESULT:      -7.6      1.796      3.483
REMARK  Name = 
REMARK  8 active torsions:
REMARK  status: ('A' for Active; 'I' for Inactive)
REMARK    1  A    between atoms: C_1  and  O_2
REMARK    2  A    between atoms: O_2  and  C_3
REMARK    3  A    between atoms: C_6  and  C_7
REMARK    4  A    between atoms: C_11  and  C_12
REMARK    5  A    between atoms: N_14  and  C_15
REMARK    6  A    between atoms: C_15  and  C_16
REMARK    7  A    between atoms: C_16  and  C_17
REMARK    8  A    between atoms: C_17  and  N_18
REMARK                            x       y       z     vdW  Elec       q    Type
REMARK                         _______ _______ _______ _____ _____    ______ ____
ROOT
ATOM      1  C   UNL     1       0.295  11.154  19.400  0.00  0.00    +0.000 C 
ATOM      2  C   UNL     1       1.305  10.574  18.381  0.00  0.00    +0.000 C 
ATOM      3  N   UNL     1       1.725   9.230  18.698  0.00  0.00    +0.000 N 
ATOM      4  C   UNL     1       2.425   8.377  17.905  0.00  0.00    +0.000 A 
ATOM      5  C   UNL     1       2.637   7.251  18.683  0.00  0.00    +0.000 A 
ATOM      6  N   UNL     1       2.057   7.428  19.935  0.00  0.00    +0.000 NA
ATOM      7  C   UNL     1       1.519   8.634  19.917  0.00  0.00    +0.000 A 
ATOM      8  C   UNL     1       0.818   9.279  21.003  0.00  0.00    +0.000 C 
ATOM      9  O   UNL     1       0.630   8.802  22.124  0.00  0.00    +0.000 OA
ATOM     10  N   UNL     1       0.332  10.542  20.726  0.00  0.00    +0.000 N 
ATOM     11  H   UNL     1      -0.229  10.938  21.468  0.00  0.00    +0.000 HD
ENDROOT
BRANCH   1  15
ATOM     12  C   UNL     1      -3.746  10.820  17.899  0.00  0.00    +0.000 A 
ATOM     13  C   UNL     1      -3.414  11.853  18.776  0.00  0.00    +0.000 A 
ATOM     14  C   UNL     1      -2.100  12.025  19.212  0.00  0.00    +0.000 A 
ATOM     15  C   UNL     1      -1.096  11.146  18.789  0.00  0.00    +0.000 A 
ATOM     16  C   UNL     1      -1.432  10.129  17.878  0.00  0.00    +0.000 A 
ATOM     17  C   UNL     1      -2.749   9.963  17.438  0.00  0.00    +0.000 A 
BRANCH  12  19
ATOM     18  C   UNL     1      -5.889  11.812  18.007  0.00  0.00    +0.000 C 
ATOM     19  O   UNL     1      -5.078  10.713  17.613  0.00  0.00    +0.000 OA
ENDBRANCH  12  19
ENDBRANCH   1  15
BRANCH   5  20
ATOM     20  C   UNL     1       3.373   6.054  18.279  0.00  0.00    +0.000 C 
ATOM     21  O   UNL     1       3.036   5.353  17.331  0.00  0.00    +0.000 OA
ATOM     22  N   UNL     1       4.483   5.794  19.064  0.00  0.00    +0.000 N 
ATOM     23  H   UNL     1       4.633   6.401  19.864  0.00  0.00    +0.000 HD
BRANCH  22  24
ATOM     24  C   UNL     1       5.286   4.625  18.810  0.00  0.00    +0.000 C 
BRANCH  24  25
ATOM     25  C   UNL     1       4.960   3.405  19.680  0.00  0.00    +0.000 C 
BRANCH  25  26
ATOM     26  C   UNL     1       3.899   2.579  18.933  0.00  0.00    +0.000 C 
BRANCH  26  27
ATOM     27  N   UNL     1       2.807   1.981  19.713  0.00  0.00    +0.000 NA
ATOM     28  C   UNL     1       1.453   2.100  19.131  0.00  0.00    +0.000 C 
ATOM     29  C   UNL     1       0.753   3.466  19.291  0.00  0.00    +0.000 C 
ATOM     30  O   UNL     1       0.822   3.973  20.629  0.00  0.00    +0.000 OA
ATOM     31  C   UNL     1       2.179   4.011  21.080  0.00  0.00    +0.000 C 
ATOM     32  C   UNL     1       2.777   2.595  21.068  0.00  0.00    +0.000 C 
ENDBRANCH  26  27
ENDBRANCH  25  26
ENDBRANCH  24  25
ENDBRANCH  22  24
ENDBRANCH   5  20
TORSDOF 7
ENDMDL
