MODEL 1
REMARK VINA RESULT:      -7.9      0.000      0.000
REMARK  Name = 
REMARK  6 active torsions:
REMARK  status: ('A' for Active; 'I' for Inactive)
REMARK    1  A    between atoms: C_1  and  C_2
REMARK    2  A    between atoms: C_5  and  C_6
REMARK    3  A    between atoms: C_6  and  N_7
REMARK    4  A    between atoms: C_10  and  C_11
REMARK    5  A    between atoms: C_10  and  O_12
REMARK    6  A    between atoms: O_12  and  C_13
REMARK                            x       y       z     vdW  Elec       q    Type
REMARK                         _______ _______ _______ _____ _____    ______ ____
ROOT
ATOM      1  N   UNL     1       2.524   6.879  19.668  0.00  0.00    +0.000 NA
ATOM      2  C   UNL     1       1.562   6.069  20.407  0.00  0.00    +0.000 C 
ATOM      3  C   UNL     1       2.158   4.669  20.287  0.00  0.00    +0.000 C 
ATOM      4  C   UNL     1       2.652   4.587  18.826  0.00  0.00    +0.000 C 
ATOM      5  C   UNL     1       1.523   3.984  17.969  0.00  0.00    +0.000 C 
ATOM      6  C   UNL     1       2.952   6.071  18.520  0.00  0.00    +0.000 C 
ENDROOT
BRANCH   1   7
ATOM      7  C   UNL     1       2.030   8.188  19.234  0.00  0.00    +0.000 C 
BRANCH   7  12
ATOM      8  C   UNL     1      -1.246  10.997  23.147  0.00  0.00    +0.000 C 
ATOM      9  C   UNL     1      -0.397  10.266  22.150  0.00  0.00    +0.000 A 
ATOM     10  C   UNL     1       0.559   9.333  22.563  0.00  0.00    +0.000 A 
ATOM     11  C   UNL     1       1.332   8.652  21.622  0.00  0.00    +0.000 A 
ATOM     12  C   UNL     1       1.160   8.887  20.251  0.00  0.00    +0.000 A 
ATOM     13  C   UNL     1       0.212   9.832  19.841  0.00  0.00    +0.000 A 
ATOM     14  C   UNL     1      -0.561  10.514  20.783  0.00  0.00    +0.000 A 
ENDBRANCH   7  12
ENDBRANCH   1   7
BRANCH   4  15
ATOM     15  O   UNL     1       3.809   3.733  18.791  0.00  0.00    +0.000 OA
BRANCH  15  16
ATOM     16  C   UNL     1       4.958   4.127  18.156  0.00  0.00    +0.000 A 
ATOM     17  C   UNL     1       6.061   4.750  18.744  0.00  0.00    +0.000 A 
ATOM     18  C   UNL     1       7.199   5.061  17.996  0.00  0.00    +0.000 A 
ATOM     19  C   UNL     1       7.238   4.763  16.638  0.00  0.00    +0.000 A 
ATOM     20  C   UNL     1       6.139   4.157  16.039  0.00  0.00    +0.000 A 
ATOM     21 CL   UNL     1       6.174   3.816  14.352  0.00  0.00    +0.000 Cl
ATOM     22  C   UNL     1       5.007   3.825  16.792  0.00  0.00    +0.000 A 
ENDBRANCH  15  16
ENDBRANCH   4  15
TORSDOF 4
ENDMDL
MODEL 2
REMARK VINA RESULT:      -7.8      0.242      1.057
REMARK  Name = 
REMARK  6 active torsions:
REMARK  status: ('A' for Active; 'I' for Inactive)
REMARK    1  A    between atoms: C_1  and  C_2
REMARK    2  A    between atoms: C_5  and  C_6
REMARK    3  A    between atoms: C_6  and  N_7
REMARK    4  A    between atoms: C_10  and  C_11
REMARK    5  A    between atoms: C_10  and  O_12
REMARK    6  A    between atoms: O_12  and  C_13
REMARK                            x       y       z     vdW  Elec       q    Type
REMARK                         _______ _______ _______ _____ _____    ______ ____
ROOT
ATOM      1  N   UNL     1       2.385   7.012  19.817  0.00  0.00    +0.000 NA
ATOM      2  C   UNL     1       1.394   6.169  20.475  0.00  0.00    +0.000 C 
ATOM      3  C   UNL     1       2.056   4.795  20.429  0.00  0.00    +0.000 C 
ATOM      4  C   UNL     1       2.686   4.720  19.021  0.00  0.00    +0.000 C 
ATOM      5  C   UNL     1       1.666   4.061  18.072  0.00  0.00    +0.000 C 
ATOM      6  C   UNL     1       2.951   6.212  18.724  0.00  0.00    +0.000 C 
ENDROOT
BRANCH   1   7
ATOM      7  C   UNL     1       1.880   8.294  19.322  0.00  0.00    +0.000 C 
BRANCH   7  12
ATOM      8  C   UNL     1      -1.389  11.144  23.210  0.00  0.00    +0.000 C 
ATOM      9  C   UNL     1      -0.554  10.418  22.199  0.00  0.00    +0.000 A 
ATOM     10  C   UNL     1      -0.712  10.653  20.830  0.00  0.00    +0.000 A 
ATOM     11  C   UNL     1       0.082   9.978  19.902  0.00  0.00    +0.000 A 
ATOM     12  C   UNL     1       1.054   9.061  20.326  0.00  0.00    +0.000 A 
ATOM     13  C   UNL     1       1.200   8.817  21.697  0.00  0.00    +0.000 A 
ATOM     14  C   UNL     1       0.405   9.492  22.625  0.00  0.00    +0.000 A 
ENDBRANCH   7  12
ENDBRANCH   1   7
BRANCH   4  15
ATOM     15  O   UNL     1       3.875   3.915  19.103  0.00  0.00    +0.000 OA
BRANCH  15  16
ATOM     16  C   UNL     1       5.014   4.268  18.427  0.00  0.00    +0.000 A 
ATOM     17  C   UNL     1       6.142   4.892  18.967  0.00  0.00    +0.000 A 
ATOM     18  C   UNL     1       7.265   5.157  18.181  0.00  0.00    +0.000 A 
ATOM     19  C   UNL     1       7.265   4.814  16.834  0.00  0.00    +0.000 A 
ATOM     20  C   UNL     1       6.142   4.208  16.282  0.00  0.00    +0.000 A 
ATOM     21 CL   UNL     1       6.129   3.811  14.607  0.00  0.00    +0.000 Cl
ATOM     22  C   UNL     1       5.024   3.921  17.073  0.00  0.00    +0.000 A 
ENDBRANCH  15  16
ENDBRANCH   4  15
TORSDOF 4
ENDMDL
MODEL 3
REMARK VINA RESULT:      -7.8      1.194      1.571
REMARK  Name = 
REMARK  6 active torsions:
REMARK  status: ('A' for Active; 'I' for Inactive)
REMARK    1  A    between atoms: C_1  and  C_2
REMARK    2  A    between atoms: C_5  and  C_6
REMARK    3  A    between atoms: C_6  and  N_7
REMARK    4  A    between atoms: C_10  and  C_11
REMARK    5  A    between atoms: C_10  and  O_12
REMARK    6  A    between atoms: O_12  and  C_13
REMARK                            x       y       z     vdW  Elec       q    Type
REMARK                         _______ _______ _______ _____ _____    ______ ____
ROOT
ATOM      1  N   UNL     1       2.429   6.852  19.744  0.00  0.00    +0.000 NA
ATOM      2  C   UNL     1       1.425   6.062  20.448  0.00  0.00    +0.000 C 
ATOM      3  C   UNL     1       1.976   4.645  20.316  0.00  0.00    +0.000 C 
ATOM      4  C   UNL     1       2.499   4.572  18.864  0.00  0.00    +0.000 C 
ATOM      5  C   UNL     1       1.369   4.022  17.973  0.00  0.00    +0.000 C 
ATOM      6  C   UNL     1       2.855   6.049  18.591  0.00  0.00    +0.000 C 
ENDROOT
BRANCH   1   7
ATOM      7  C   UNL     1       1.989   8.183  19.324  0.00  0.00    +0.000 C 
BRANCH   7  12
ATOM      8  C   UNL     1      -1.318  11.021  23.189  0.00  0.00    +0.000 C 
ATOM      9  C   UNL     1      -0.461  10.283  22.205  0.00  0.00    +0.000 A 
ATOM     10  C   UNL     1       0.535   9.400  22.634  0.00  0.00    +0.000 A 
ATOM     11  C   UNL     1       1.316   8.712  21.705  0.00  0.00    +0.000 A 
ATOM     12  C   UNL     1       1.112   8.889  20.329  0.00  0.00    +0.000 A 
ATOM     13  C   UNL     1       0.124   9.785  19.903  0.00  0.00    +0.000 A 
ATOM     14  C   UNL     1      -0.656  10.475  20.833  0.00  0.00    +0.000 A 
ENDBRANCH   7  12
ENDBRANCH   1   7
BRANCH   4  15
ATOM     15  O   UNL     1       3.627   3.679  18.838  0.00  0.00    +0.000 OA
BRANCH  15  16
ATOM     16  C   UNL     1       4.753   3.986  18.119  0.00  0.00    +0.000 A 
ATOM     17  C   UNL     1       4.951   3.768  16.753  0.00  0.00    +0.000 A 
ATOM     18  C   UNL     1       6.130   4.172  16.121  0.00  0.00    +0.000 A 
ATOM     19  C   UNL     1       7.136   4.787  16.859  0.00  0.00    +0.000 A 
ATOM     20  C   UNL     1       6.955   4.994  18.222  0.00  0.00    +0.000 A 
ATOM     21 CL   UNL     1       8.211   5.727  19.142  0.00  0.00    +0.000 Cl
ATOM     22  C   UNL     1       5.766   4.611  18.852  0.00  0.00    +0.000 A 
ENDBRANCH  15  16
ENDBRANCH   4  15
TORSDOF 4
ENDMDL
MODEL 4
REMARK VINA RESULT:      -7.5      3.061      6.628
REMARK  Name = 
REMARK  6 active torsions:
REMARK  status: ('A' for Active; 'I' for Inactive)
REMARK    1  A    between atoms: C_1  and  C_2
REMARK    2  A    between atoms: C_5  and  C_6
REMARK    3  A    between atoms: C_6  and  N_7
REMARK    4  A    between atoms: C_10  and  C_11
REMARK    5  A    between atoms: C_10  and  O_12
REMARK    6  A    between atoms: O_12  and  C_13
REMARK                            x       y       z     vdW  Elec       q    Type
REMARK                         _______ _______ _______ _____ _____    ______ ____
ROOT
ATOM      1  N   UNL     1       4.885   4.340  17.700  0.00  0.00    +0.000 NA
ATOM      2  C   UNL     1       4.274   3.087  17.270  0.00  0.00    +0.000 C 
ATOM      3  C   UNL     1       2.880   3.178  17.885  0.00  0.00    +0.000 C 
ATOM      4  C   UNL     1       3.121   3.766  19.293  0.00  0.00    +0.000 C 
ATOM      5  C   UNL     1       3.285   2.596  20.282  0.00  0.00    +0.000 C 
ATOM      6  C   UNL     1       4.411   4.585  19.067  0.00  0.00    +0.000 C 
ENDROOT
BRANCH   1   7
ATOM      7  C   UNL     1       6.347   4.371  17.637  0.00  0.00    +0.000 C 
BRANCH   7  12
ATOM      8  C   UNL     1       8.746   9.628  18.366  0.00  0.00    +0.000 C 
ATOM      9  C   UNL     1       8.135   8.271  18.190  0.00  0.00    +0.000 A 
ATOM     10  C   UNL     1       8.433   7.226  19.070  0.00  0.00    +0.000 A 
ATOM     11  C   UNL     1       7.846   5.971  18.900  0.00  0.00    +0.000 A 
ATOM     12  C   UNL     1       6.945   5.740  17.851  0.00  0.00    +0.000 A 
ATOM     13  C   UNL     1       6.659   6.785  16.963  0.00  0.00    +0.000 A 
ATOM     14  C   UNL     1       7.248   8.040  17.133  0.00  0.00    +0.000 A 
ENDBRANCH   7  12
ENDBRANCH   1   7
BRANCH   4  15
ATOM     15  O   UNL     1       1.974   4.558  19.651  0.00  0.00    +0.000 OA
BRANCH  15  16
ATOM     16  C   UNL     1       1.976   5.918  19.479  0.00  0.00    +0.000 A 
ATOM     17  C   UNL     1       2.226   6.605  18.289  0.00  0.00    +0.000 A 
ATOM     18  C   UNL     1       2.150   7.999  18.230  0.00  0.00    +0.000 A 
ATOM     19  C   UNL     1       1.835   8.724  19.373  0.00  0.00    +0.000 A 
ATOM     20  C   UNL     1       1.601   8.051  20.567  0.00  0.00    +0.000 A 
ATOM     21 CL   UNL     1       1.242   8.950  21.991  0.00  0.00    +0.000 Cl
ATOM     22  C   UNL     1       1.654   6.654  20.623  0.00  0.00    +0.000 A 
ENDBRANCH  15  16
ENDBRANCH   4  15
TORSDOF 4
ENDMDL
MODEL 5
REMARK VINA RESULT:      -7.4      2.748      6.466
REMARK  Name = 
REMARK  6 active torsions:
REMARK  status: ('A' for Active; 'I' for Inactive)
REMARK    1  A    between atoms: C_1  and  C_2
REMARK    2  A    between atoms: C_5  and  C_6
REMARK    3  A    between atoms: C_6  and  N_7
REMARK    4  A    between atoms: C_10  and  C_11
REMARK    5  A    between atoms: C_10  and  O_12
REMARK    6  A    between atoms: O_12  and  C_13
REMARK                            x       y       z     vdW  Elec       q    Type
REMARK                         _______ _______ _______ _____ _____    ______ ____
ROOT
ATOM      1  N   UNL     1       5.377   4.522  17.612  0.00  0.00    +0.000 NA
ATOM      2  C   UNL     1       5.008   3.626  16.521  0.00  0.00    +0.000 C 
ATOM      3  C   UNL     1       3.522   3.394  16.780  0.00  0.00    +0.000 C 
ATOM      4  C   UNL     1       3.423   3.231  18.313  0.00  0.00    +0.000 C 
ATOM      5  C   UNL     1       3.531   1.730  18.645  0.00  0.00    +0.000 C 
ATOM      6  C   UNL     1       4.628   4.070  18.790  0.00  0.00    +0.000 C 
ENDROOT
BRANCH   1   7
ATOM      7  C   UNL     1       6.811   4.594  17.897  0.00  0.00    +0.000 C 
BRANCH   7  12
ATOM      8  C   UNL     1       8.798  10.049  18.371  0.00  0.00    +0.000 C 
ATOM      9  C   UNL     1       8.281   8.648  18.237  0.00  0.00    +0.000 A 
ATOM     10  C   UNL     1       7.440   8.288  17.179  0.00  0.00    +0.000 A 
ATOM     11  C   UNL     1       6.978   6.977  17.061  0.00  0.00    +0.000 A 
ATOM     12  C   UNL     1       7.351   6.000  17.995  0.00  0.00    +0.000 A 
ATOM     13  C   UNL     1       8.180   6.368  19.061  0.00  0.00    +0.000 A 
ATOM     14  C   UNL     1       8.643   7.680  19.180  0.00  0.00    +0.000 A 
ENDBRANCH   7  12
ENDBRANCH   1   7
BRANCH   4  15
ATOM     15  O   UNL     1       2.145   3.740  18.737  0.00  0.00    +0.000 OA
BRANCH  15  16
ATOM     16  C   UNL     1       2.025   5.004  19.251  0.00  0.00    +0.000 A 
ATOM     17  C   UNL     1       1.747   5.338  20.579  0.00  0.00    +0.000 A 
ATOM     18  C   UNL     1       1.698   6.671  20.994  0.00  0.00    +0.000 A 
ATOM     19  C   UNL     1       1.912   7.691  20.073  0.00  0.00    +0.000 A 
ATOM     20  C   UNL     1       2.172   7.370  18.745  0.00  0.00    +0.000 A 
ATOM     21 CL   UNL     1       2.406   8.632  17.598  0.00  0.00    +0.000 Cl
ATOM     22  C   UNL     1       2.244   6.035  18.333  0.00  0.00    +0.000 A 
ENDBRANCH  15  16
ENDBRANCH   4  15
TORSDOF 4
ENDMDL
MODEL 6
REMARK VINA RESULT:      -7.4      1.555      1.812
REMARK  Name = 
REMARK  6 active torsions:
REMARK  status: ('A' for Active; 'I' for Inactive)
REMARK    1  A    between atoms: C_1  and  C_2
REMARK    2  A    between atoms: C_5  and  C_6
REMARK    3  A    between atoms: C_6  and  N_7
REMARK    4  A    between atoms: C_10  and  C_11
REMARK    5  A    between atoms: C_10  and  O_12
REMARK    6  A    between atoms: O_12  and  C_13
REMARK                            x       y       z     vdW  Elec       q    Type
REMARK                         _______ _______ _______ _____ _____    ______ ____
ROOT
ATOM      1  N   UNL     1       2.586   7.829  18.765  0.00  0.00    +0.000 NA
ATOM      2  C   UNL     1       1.603   7.363  19.736  0.00  0.00    +0.000 C 
ATOM      3  C   UNL     1       2.208   6.040  20.199  0.00  0.00    +0.000 C 
ATOM      4  C   UNL     1       2.751   5.394  18.906  0.00  0.00    +0.000 C 
ATOM      5  C   UNL     1       1.653   4.482  18.325  0.00  0.00    +0.000 C 
ATOM      6  C   UNL     1       3.056   6.640  18.045  0.00  0.00    +0.000 C 
ENDROOT
BRANCH   1   7
ATOM      7  C   UNL     1       2.103   8.850  17.834  0.00  0.00    +0.000 C 
BRANCH   7  12
ATOM      8  C   UNL     1      -2.247  12.182  19.811  0.00  0.00    +0.000 C 
ATOM      9  C   UNL     1      -1.119  11.330  19.312  0.00  0.00    +0.000 A 
ATOM     10  C   UNL     1       0.155  11.413  19.883  0.00  0.00    +0.000 A 
ATOM     11  C   UNL     1       1.191  10.602  19.416  0.00  0.00    +0.000 A 
ATOM     12  C   UNL     1       0.971   9.691  18.373  0.00  0.00    +0.000 A 
ATOM     13  C   UNL     1      -0.301   9.621  17.794  0.00  0.00    +0.000 A 
ATOM     14  C   UNL     1      -1.338  10.432  18.261  0.00  0.00    +0.000 A 
ENDBRANCH   7  12
ENDBRANCH   1   7
BRANCH   4  15
ATOM     15  O   UNL     1       3.911   4.614  19.246  0.00  0.00    +0.000 OA
BRANCH  15  16
ATOM     16  C   UNL     1       5.086   4.760  18.556  0.00  0.00    +0.000 A 
ATOM     17  C   UNL     1       6.272   5.316  19.041  0.00  0.00    +0.000 A 
ATOM     18  C   UNL     1       7.424   5.364  18.252  0.00  0.00    +0.000 A 
ATOM     19  C   UNL     1       7.394   4.867  16.953  0.00  0.00    +0.000 A 
ATOM     20  C   UNL     1       6.214   4.326  16.454  0.00  0.00    +0.000 A 
ATOM     21 CL   UNL     1       6.169   3.738  14.837  0.00  0.00    +0.000 Cl
ATOM     22  C   UNL     1       5.067   4.257  17.252  0.00  0.00    +0.000 A 
ENDBRANCH  15  16
ENDBRANCH   4  15
TORSDOF 4
ENDMDL
MODEL 7
REMARK VINA RESULT:      -7.4      3.324      5.041
REMARK  Name = 
REMARK  6 active torsions:
REMARK  status: ('A' for Active; 'I' for Inactive)
REMARK    1  A    between atoms: C_1  and  C_2
REMARK    2  A    between atoms: C_5  and  C_6
REMARK    3  A    between atoms: C_6  and  N_7
REMARK    4  A    between atoms: C_10  and  C_11
REMARK    5  A    between atoms: C_10  and  O_12
REMARK    6  A    between atoms: O_12  and  C_13
REMARK                            x       y       z     vdW  Elec       q    Type
REMARK                         _______ _______ _______ _____ _____    ______ ____
ROOT
ATOM      1  N   UNL     1       3.623   6.220  17.204  0.00  0.00    +0.000 NA
ATOM      2  C   UNL     1       4.231   7.307  16.446  0.00  0.00    +0.000 C 
ATOM      3  C   UNL     1       5.369   6.598  15.717  0.00  0.00    +0.000 C 
ATOM      4  C   UNL     1       5.958   5.636  16.773  0.00  0.00    +0.000 C 
ATOM      5  C   UNL     1       7.111   6.359  17.494  0.00  0.00    +0.000 C 
ATOM      6  C   UNL     1       4.726   5.368  17.665  0.00  0.00    +0.000 C 
ENDROOT
BRANCH   1   7
ATOM      7  C   UNL     1       2.780   6.640  18.325  0.00  0.00    +0.000 C 
BRANCH   7  12
ATOM      8  C   UNL     1       1.212   2.228  21.788  0.00  0.00    +0.000 C 
ATOM      9  C   UNL     1       1.608   3.358  20.886  0.00  0.00    +0.000 A 
ATOM     10  C   UNL     1       1.240   3.368  19.537  0.00  0.00    +0.000 A 
ATOM     11  C   UNL     1       1.605   4.434  18.714  0.00  0.00    +0.000 A 
ATOM     12  C   UNL     1       2.342   5.511  19.225  0.00  0.00    +0.000 A 
ATOM     13  C   UNL     1       2.721   5.492  20.573  0.00  0.00    +0.000 A 
ATOM     14  C   UNL     1       2.356   4.425  21.396  0.00  0.00    +0.000 A 
ENDBRANCH   7  12
ENDBRANCH   1   7
BRANCH   4  15
ATOM     15  O   UNL     1       6.456   4.471  16.091  0.00  0.00    +0.000 OA
BRANCH  15  16
ATOM     16  C   UNL     1       6.725   4.502  14.747  0.00  0.00    +0.000 A 
ATOM     17  C   UNL     1       7.696   5.280  14.112  0.00  0.00    +0.000 A 
ATOM     18  C   UNL     1       7.908   5.186  12.734  0.00  0.00    +0.000 A 
ATOM     19  C   UNL     1       7.134   4.319  11.971  0.00  0.00    +0.000 A 
ATOM     20  C   UNL     1       6.153   3.553  12.591  0.00  0.00    +0.000 A 
ATOM     21 CL   UNL     1       5.173   2.503  11.643  0.00  0.00    +0.000 Cl
ATOM     22  C   UNL     1       5.954   3.629  13.974  0.00  0.00    +0.000 A 
ENDBRANCH  15  16
ENDBRANCH   4  15
TORSDOF 4
ENDMDL
MODEL 8
REMARK VINA RESULT:      -7.4      4.494      8.407
REMARK  Name = 
REMARK  6 active torsions:
REMARK  status: ('A' for Active; 'I' for Inactive)
REMARK    1  A    between atoms: C_1  and  C_2
REMARK    2  A    between atoms: C_5  and  C_6
REMARK    3  A    between atoms: C_6  and  N_7
REMARK    4  A    between atoms: C_10  and  C_11
REMARK    5  A    between atoms: C_10  and  O_12
REMARK    6  A    between atoms: O_12  and  C_13
REMARK                            x       y       z     vdW  Elec       q    Type
REMARK                         _______ _______ _______ _____ _____    ______ ____
ROOT
ATOM      1  N   UNL     1       1.118   8.666  19.625  0.00  0.00    +0.000 NA
ATOM      2  C   UNL     1       0.501   9.059  20.887  0.00  0.00    +0.000 C 
ATOM      3  C   UNL     1      -0.308  10.288  20.482  0.00  0.00    +0.000 C 
ATOM      4  C   UNL     1       0.620  11.057  19.517  0.00  0.00    +0.000 C 
ATOM      5  C   UNL     1       1.427  12.081  20.338  0.00  0.00    +0.000 C 
ATOM      6  C   UNL     1       1.471   9.909  18.930  0.00  0.00    +0.000 C 
ENDROOT
BRANCH   1   7
ATOM      7  C   UNL     1       2.282   7.786  19.752  0.00  0.00    +0.000 C 
BRANCH   7  12
ATOM      8  C   UNL     1       1.265   2.136  18.769  0.00  0.00    +0.000 C 
ATOM      9  C   UNL     1       1.530   3.592  19.008  0.00  0.00    +0.000 A 
ATOM     10  C   UNL     1       1.977   4.423  17.976  0.00  0.00    +0.000 A 
ATOM     11  C   UNL     1       2.206   5.779  18.212  0.00  0.00    +0.000 A 
ATOM     12  C   UNL     1       1.987   6.330  19.483  0.00  0.00    +0.000 A 
ATOM     13  C   UNL     1       1.554   5.492  20.517  0.00  0.00    +0.000 A 
ATOM     14  C   UNL     1       1.325   4.135  20.281  0.00  0.00    +0.000 A 
ENDBRANCH   7  12
ENDBRANCH   1   7
BRANCH   4  15
ATOM     15  O   UNL     1      -0.201  11.736  18.549  0.00  0.00    +0.000 OA
BRANCH  15  16
ATOM     16  C   UNL     1      -1.438  11.253  18.212  0.00  0.00    +0.000 A 
ATOM     17  C   UNL     1      -1.706  10.124  17.434  0.00  0.00    +0.000 A 
ATOM     18  C   UNL     1      -3.017   9.703  17.199  0.00  0.00    +0.000 A 
ATOM     19  C   UNL     1      -4.081  10.423  17.731  0.00  0.00    +0.000 A 
ATOM     20  C   UNL     1      -3.826  11.558  18.493  0.00  0.00    +0.000 A 
ATOM     21 CL   UNL     1      -5.144  12.468  19.126  0.00  0.00    +0.000 Cl
ATOM     22  C   UNL     1      -2.513  11.968  18.748  0.00  0.00    +0.000 A 
ENDBRANCH  15  16
ENDBRANCH   4  15
TORSDOF 4
ENDMDL
MODEL 9
REMARK VINA RESULT:      -7.4      2.537      4.234
REMARK  Name = 
REMARK  6 active torsions:
REMARK  status: ('A' for Active; 'I' for Inactive)
REMARK    1  A    between atoms: C_1  and  C_2
REMARK    2  A    between atoms: C_5  and  C_6
REMARK    3  A    between atoms: C_6  and  N_7
REMARK    4  A    between atoms: C_10  and  C_11
REMARK    5  A    between atoms: C_10  and  O_12
REMARK    6  A    between atoms: O_12  and  C_13
REMARK                            x       y       z     vdW  Elec       q    Type
REMARK                         _______ _______ _______ _____ _____    ______ ____
ROOT
ATOM      1  N   UNL     1       4.140   6.368  17.194  0.00  0.00    +0.000 NA
ATOM      2  C   UNL     1       5.268   6.083  16.315  0.00  0.00    +0.000 C 
ATOM      3  C   UNL     1       5.800   4.771  16.885  0.00  0.00    +0.000 C 
ATOM      4  C   UNL     1       5.721   4.959  18.416  0.00  0.00    +0.000 C 
ATOM      5  C   UNL     1       7.074   5.511  18.904  0.00  0.00    +0.000 C 
ATOM      6  C   UNL     1       4.551   5.959  18.543  0.00  0.00    +0.000 C 
ENDROOT
BRANCH   1   7
ATOM      7  C   UNL     1       3.681   7.758  17.184  0.00  0.00    +0.000 C 
BRANCH   7  12
ATOM      8  C   UNL     1      -0.121   9.100  21.387  0.00  0.00    +0.000 C 
ATOM      9  C   UNL     1       0.860   8.742  20.312  0.00  0.00    +0.000 A 
ATOM     10  C   UNL     1       1.613   7.566  20.384  0.00  0.00    +0.000 A 
ATOM     11  C   UNL     1       2.513   7.242  19.368  0.00  0.00    +0.000 A 
ATOM     12  C   UNL     1       2.673   8.084  18.259  0.00  0.00    +0.000 A 
ATOM     13  C   UNL     1       1.928   9.267  18.196  0.00  0.00    +0.000 A 
ATOM     14  C   UNL     1       1.028   9.593  19.213  0.00  0.00    +0.000 A 
ENDBRANCH   7  12
ENDBRANCH   1   7
BRANCH   4  15
ATOM     15  O   UNL     1       5.467   3.675  19.014  0.00  0.00    +0.000 OA
BRANCH  15  16
ATOM     16  C   UNL     1       4.215   3.119  18.983  0.00  0.00    +0.000 A 
ATOM     17  C   UNL     1       3.604   2.507  17.885  0.00  0.00    +0.000 A 
ATOM     18  C   UNL     1       2.336   1.930  17.992  0.00  0.00    +0.000 A 
ATOM     19  C   UNL     1       1.656   1.974  19.204  0.00  0.00    +0.000 A 
ATOM     20  C   UNL     1       2.248   2.595  20.299  0.00  0.00    +0.000 A 
ATOM     21 CL   UNL     1       1.393   2.677  21.791  0.00  0.00    +0.000 Cl
ATOM     22  C   UNL     1       3.527   3.153  20.199  0.00  0.00    +0.000 A 
ENDBRANCH  15  16
ENDBRANCH   4  15
TORSDOF 4
ENDMDL
