MODEL 1
REMARK VINA RESULT:      -7.8      0.000      0.000
REMARK  Name = 
REMARK  7 active torsions:
REMARK  status: ('A' for Active; 'I' for Inactive)
REMARK    1  A    between atoms: C_2  and  C_3
REMARK    2  A    between atoms: C_3  and  C_4
REMARK    3  A    between atoms: N_6  and  C_7
REMARK    4  A    between atoms: C_10  and  C_11
REMARK    5  A    between atoms: N_13  and  C_14
REMARK    6  A    between atoms: C_18  and  S_19
REMARK    7  A    between atoms: S_19  and  N_22
REMARK                            x       y       z     vdW  Elec       q    Type
REMARK                         _______ _______ _______ _____ _____    ______ ____
ROOT
ATOM      1  C   UNL     1       7.884   7.895  18.180  0.00  0.00    +0.000 C 
ATOM      2  O   UNL     1       8.459   7.050  18.861  0.00  0.00    +0.000 OA
ATOM      3  N   UNL     1       6.793   7.671  17.348  0.00  0.00    +0.000 N 
ATOM      4  H   UNL     1       6.301   8.489  17.000  0.00  0.00    +0.000 HD
ENDROOT
BRANCH   1   8
ATOM      5  C   UNL     1       9.283  11.982  18.327  0.00  0.00    +0.000 A 
ATOM      6  C   UNL     1       9.814  11.015  19.191  0.00  0.00    +0.000 A 
ATOM      7  C   UNL     1       9.376   9.686  19.151  0.00  0.00    +0.000 A 
ATOM      8  C   UNL     1       8.389   9.300  18.241  0.00  0.00    +0.000 A 
ATOM      9  C   UNL     1       7.805  10.276  17.422  0.00  0.00    +0.000 A 
ATOM     10  C   UNL     1       8.244  11.609  17.470  0.00  0.00    +0.000 A 
BRANCH   5  13
ATOM     11  C   UNL     1       9.346  14.330  19.155  0.00  0.00    +0.000 C 
ATOM     12  O   UNL     1       8.549  14.209  20.083  0.00  0.00    +0.000 OA
ATOM     13  N   UNL     1       9.749  13.318  18.294  0.00  0.00    +0.000 N 
ATOM     14  H   UNL     1      10.548  13.492  17.695  0.00  0.00    +0.000 HD
BRANCH  11  15
ATOM     15  C   UNL     1       9.986  15.674  18.897  0.00  0.00    +0.000 C 
BRANCH  15  17
ATOM     16  N   UNL     1      11.781  15.460  17.001  0.00  0.00    +0.000 NA
ATOM     17  C   UNL     1      11.002  15.552  17.857  0.00  0.00    +0.000 C 
ENDBRANCH  15  17
ENDBRANCH  11  15
ENDBRANCH   5  13
ENDBRANCH   1   8
BRANCH   3  18
ATOM     18  C   UNL     1       6.281   6.418  16.932  0.00  0.00    +0.000 A 
ATOM     19  C   UNL     1       6.842   5.664  15.899  0.00  0.00    +0.000 A 
ATOM     20  C   UNL     1       6.247   4.471  15.465  0.00  0.00    +0.000 A 
ATOM     21  C   UNL     1       5.059   4.035  16.037  0.00  0.00    +0.000 A 
ATOM     22  C   UNL     1       4.485   4.794  17.053  0.00  0.00    +0.000 A 
ATOM     23  C   UNL     1       5.105   5.959  17.532  0.00  0.00    +0.000 A 
BRANCH  22  24
ATOM     24  S   UNL     1       2.881   4.330  17.662  0.00  0.00    +0.000 S 
ATOM     25  O   UNL     1       2.105   5.541  17.834  0.00  0.00    +0.000 OA
ATOM     26  O   UNL     1       2.392   3.238  16.853  0.00  0.00    +0.000 OA
BRANCH  24  27
ATOM     27  N   UNL     1       3.226   3.699  19.214  0.00  0.00    +0.000 NA
ATOM     28  C   UNL     1       2.599   2.400  19.570  0.00  0.00    +0.000 C 
ATOM     29  C   UNL     1       1.391   2.765  20.406  0.00  0.00    +0.000 C 
ATOM     30  C   UNL     1       1.869   3.959  21.207  0.00  0.00    +0.000 C 
ATOM     31  C   UNL     1       2.917   4.643  20.332  0.00  0.00    +0.000 C 
ENDBRANCH  24  27
ENDBRANCH  22  24
ENDBRANCH   3  18
TORSDOF 7
ENDMDL
MODEL 2
REMARK VINA RESULT:      -7.8      1.488      1.798
REMARK  Name = 
REMARK  7 active torsions:
REMARK  status: ('A' for Active; 'I' for Inactive)
REMARK    1  A    between atoms: C_2  and  C_3
REMARK    2  A    between atoms: C_3  and  C_4
REMARK    3  A    between atoms: N_6  and  C_7
REMARK    4  A    between atoms: C_10  and  C_11
REMARK    5  A    between atoms: N_13  and  C_14
REMARK    6  A    between atoms: C_18  and  S_19
REMARK    7  A    between atoms: S_19  and  N_22
REMARK                            x       y       z     vdW  Elec       q    Type
REMARK                         _______ _______ _______ _____ _____    ______ ____
ROOT
ATOM      1  C   UNL     1       7.870   7.838  18.092  0.00  0.00    +0.000 C 
ATOM      2  O   UNL     1       8.438   7.012  18.802  0.00  0.00    +0.000 OA
ATOM      3  N   UNL     1       6.822   7.581  17.216  0.00  0.00    +0.000 N 
ATOM      4  H   UNL     1       6.323   8.384  16.843  0.00  0.00    +0.000 HD
ENDROOT
BRANCH   1   8
ATOM      5  C   UNL     1       9.149  11.962  18.281  0.00  0.00    +0.000 A 
ATOM      6  C   UNL     1       9.727  10.998  19.117  0.00  0.00    +0.000 A 
ATOM      7  C   UNL     1       9.328   9.657  19.063  0.00  0.00    +0.000 A 
ATOM      8  C   UNL     1       8.334   9.257  18.167  0.00  0.00    +0.000 A 
ATOM      9  C   UNL     1       7.704  10.228  17.378  0.00  0.00    +0.000 A 
ATOM     10  C   UNL     1       8.105  11.573  17.439  0.00  0.00    +0.000 A 
BRANCH   5  13
ATOM     11  C   UNL     1      10.644  13.807  17.526  0.00  0.00    +0.000 C 
ATOM     12  O   UNL     1      11.357  13.154  16.767  0.00  0.00    +0.000 OA
ATOM     13  N   UNL     1       9.575  13.312  18.262  0.00  0.00    +0.000 N 
ATOM     14  H   UNL     1       8.949  13.978  18.700  0.00  0.00    +0.000 HD
BRANCH  11  15
ATOM     15  C   UNL     1      10.898  15.286  17.696  0.00  0.00    +0.000 C 
BRANCH  15  17
ATOM     16  N   UNL     1       9.936  16.145  19.976  0.00  0.00    +0.000 NA
ATOM     17  C   UNL     1      10.346  15.747  18.965  0.00  0.00    +0.000 C 
ENDBRANCH  15  17
ENDBRANCH  11  15
ENDBRANCH   5  13
ENDBRANCH   1   8
BRANCH   3  18
ATOM     18  C   UNL     1       6.362   6.314  16.785  0.00  0.00    +0.000 A 
ATOM     19  C   UNL     1       6.423   5.884  15.457  0.00  0.00    +0.000 A 
ATOM     20  C   UNL     1       5.875   4.655  15.066  0.00  0.00    +0.000 A 
ATOM     21  C   UNL     1       5.224   3.854  15.994  0.00  0.00    +0.000 A 
ATOM     22  C   UNL     1       5.142   4.286  17.315  0.00  0.00    +0.000 A 
ATOM     23  C   UNL     1       5.739   5.488  17.726  0.00  0.00    +0.000 A 
BRANCH  22  24
ATOM     24  S   UNL     1       4.161   3.347  18.461  0.00  0.00    +0.000 S 
ATOM     25  O   UNL     1       3.596   2.223  17.743  0.00  0.00    +0.000 OA
ATOM     26  O   UNL     1       4.938   3.151  19.663  0.00  0.00    +0.000 OA
BRANCH  24  27
ATOM     27  N   UNL     1       2.887   4.421  18.848  0.00  0.00    +0.000 NA
ATOM     28  C   UNL     1       2.958   5.107  20.164  0.00  0.00    +0.000 C 
ATOM     29  C   UNL     1       2.049   4.307  21.071  0.00  0.00    +0.000 C 
ATOM     30  C   UNL     1       0.912   3.899  20.156  0.00  0.00    +0.000 C 
ATOM     31  C   UNL     1       1.528   3.802  18.762  0.00  0.00    +0.000 C 
ENDBRANCH  24  27
ENDBRANCH  22  24
ENDBRANCH   3  18
TORSDOF 7
ENDMDL
MODEL 3
REMARK VINA RESULT:      -7.7      6.167      8.569
REMARK  Name = 
REMARK  7 active torsions:
REMARK  status: ('A' for Active; 'I' for Inactive)
REMARK    1  A    between atoms: C_2  and  C_3
REMARK    2  A    between atoms: C_3  and  C_4
REMARK    3  A    between atoms: N_6  and  C_7
REMARK    4  A    between atoms: C_10  and  C_11
REMARK    5  A    between atoms: N_13  and  C_14
REMARK    6  A    between atoms: C_18  and  S_19
REMARK    7  A    between atoms: S_19  and  N_22
REMARK                            x       y       z     vdW  Elec       q    Type
REMARK                         _______ _______ _______ _____ _____    ______ ____
ROOT
ATOM      1  C   UNL     1       1.339   8.222  20.281  0.00  0.00    +0.000 C 
ATOM      2  O   UNL     1       1.811   8.439  19.168  0.00  0.00    +0.000 OA
ATOM      3  N   UNL     1       1.339   7.001  20.946  0.00  0.00    +0.000 N 
ATOM      4  H   UNL     1       1.094   7.011  21.931  0.00  0.00    +0.000 HD
ENDROOT
BRANCH   1   8
ATOM      5  C   UNL     1      -0.495  11.492  22.432  0.00  0.00    +0.000 A 
ATOM      6  C   UNL     1       0.202  11.725  21.240  0.00  0.00    +0.000 A 
ATOM      7  C   UNL     1       0.797  10.676  20.528  0.00  0.00    +0.000 A 
ATOM      8  C   UNL     1       0.705   9.365  21.004  0.00  0.00    +0.000 A 
ATOM      9  C   UNL     1       0.068   9.134  22.231  0.00  0.00    +0.000 A 
ATOM     10  C   UNL     1      -0.522  10.192  22.943  0.00  0.00    +0.000 A 
BRANCH   5  13
ATOM     11  C   UNL     1      -2.501  12.860  22.990  0.00  0.00    +0.000 C 
ATOM     12  O   UNL     1      -3.303  12.306  22.241  0.00  0.00    +0.000 OA
ATOM     13  N   UNL     1      -1.163  12.518  23.141  0.00  0.00    +0.000 N 
ATOM     14  H   UNL     1      -0.654  12.918  23.921  0.00  0.00    +0.000 HD
BRANCH  11  15
ATOM     15  C   UNL     1      -2.964  14.006  23.857  0.00  0.00    +0.000 C 
BRANCH  15  17
ATOM     16  N   UNL     1      -0.876  15.207  24.887  0.00  0.00    +0.000 NA
ATOM     17  C   UNL     1      -1.813  14.695  24.433  0.00  0.00    +0.000 C 
ENDBRANCH  15  17
ENDBRANCH  11  15
ENDBRANCH   5  13
ENDBRANCH   1   8
BRANCH   3  18
ATOM     18  C   UNL     1       1.653   5.733  20.400  0.00  0.00    +0.000 A 
ATOM     19  C   UNL     1       0.900   4.583  20.644  0.00  0.00    +0.000 A 
ATOM     20  C   UNL     1       1.301   3.334  20.151  0.00  0.00    +0.000 A 
ATOM     21  C   UNL     1       2.485   3.213  19.437  0.00  0.00    +0.000 A 
ATOM     22  C   UNL     1       3.252   4.353  19.207  0.00  0.00    +0.000 A 
ATOM     23  C   UNL     1       2.827   5.616  19.648  0.00  0.00    +0.000 A 
BRANCH  22  24
ATOM     24  S   UNL     1       4.847   4.170  18.447  0.00  0.00    +0.000 S 
ATOM     25  O   UNL     1       5.602   3.210  19.226  0.00  0.00    +0.000 OA
ATOM     26  O   UNL     1       4.650   3.990  17.028  0.00  0.00    +0.000 OA
BRANCH  24  27
ATOM     27  N   UNL     1       5.559   5.709  18.671  0.00  0.00    +0.000 NA
ATOM     28  C   UNL     1       5.749   6.549  17.460  0.00  0.00    +0.000 C 
ATOM     29  C   UNL     1       7.199   6.356  17.074  0.00  0.00    +0.000 C 
ATOM     30  C   UNL     1       7.907   6.260  18.410  0.00  0.00    +0.000 C 
ATOM     31  C   UNL     1       6.879   5.667  19.373  0.00  0.00    +0.000 C 
ENDBRANCH  24  27
ENDBRANCH  22  24
ENDBRANCH   3  18
TORSDOF 7
ENDMDL
MODEL 4
REMARK VINA RESULT:      -7.7      1.090      1.505
REMARK  Name = 
REMARK  7 active torsions:
REMARK  status: ('A' for Active; 'I' for Inactive)
REMARK    1  A    between atoms: C_2  and  C_3
REMARK    2  A    between atoms: C_3  and  C_4
REMARK    3  A    between atoms: N_6  and  C_7
REMARK    4  A    between atoms: C_10  and  C_11
REMARK    5  A    between atoms: N_13  and  C_14
REMARK    6  A    between atoms: C_18  and  S_19
REMARK    7  A    between atoms: S_19  and  N_22
REMARK                            x       y       z     vdW  Elec       q    Type
REMARK                         _______ _______ _______ _____ _____    ______ ____
ROOT
ATOM      1  C   UNL     1       7.850   7.854  18.190  0.00  0.00    +0.000 C 
ATOM      2  O   UNL     1       8.450   7.010  18.851  0.00  0.00    +0.000 OA
ATOM      3  N   UNL     1       6.743   7.625  17.381  0.00  0.00    +0.000 N 
ATOM      4  H   UNL     1       6.234   8.440  17.052  0.00  0.00    +0.000 HD
ENDROOT
BRANCH   1   8
ATOM      5  C   UNL     1       9.329  11.910  18.398  0.00  0.00    +0.000 A 
ATOM      6  C   UNL     1       8.315  11.567  17.494  0.00  0.00    +0.000 A 
ATOM      7  C   UNL     1       7.821  10.259  17.420  0.00  0.00    +0.000 A 
ATOM      8  C   UNL     1       8.340   9.264  18.252  0.00  0.00    +0.000 A 
ATOM      9  C   UNL     1       9.402   9.586  19.109  0.00  0.00    +0.000 A 
ATOM     10  C   UNL     1       9.897  10.899  19.176  0.00  0.00    +0.000 A 
BRANCH   5  13
ATOM     11  C   UNL     1      10.911  13.769  17.898  0.00  0.00    +0.000 C 
ATOM     12  O   UNL     1      11.620  13.180  17.085  0.00  0.00    +0.000 OA
ATOM     13  N   UNL     1       9.805  13.235  18.546  0.00  0.00    +0.000 N 
ATOM     14  H   UNL     1       9.192  13.870  19.044  0.00  0.00    +0.000 HD
BRANCH  11  15
ATOM     15  C   UNL     1      11.215  15.207  18.244  0.00  0.00    +0.000 C 
BRANCH  15  17
ATOM     16  N   UNL     1       9.234  16.279  19.581  0.00  0.00    +0.000 NA
ATOM     17  C   UNL     1      10.096  15.794  18.974  0.00  0.00    +0.000 C 
ENDBRANCH  15  17
ENDBRANCH  11  15
ENDBRANCH   5  13
ENDBRANCH   1   8
BRANCH   3  18
ATOM     18  C   UNL     1       6.236   6.370  16.966  0.00  0.00    +0.000 A 
ATOM     19  C   UNL     1       6.820   5.601  15.957  0.00  0.00    +0.000 A 
ATOM     20  C   UNL     1       6.230   4.406  15.521  0.00  0.00    +0.000 A 
ATOM     21  C   UNL     1       5.026   3.983  16.067  0.00  0.00    +0.000 A 
ATOM     22  C   UNL     1       4.429   4.756  17.059  0.00  0.00    +0.000 A 
ATOM     23  C   UNL     1       5.042   5.923  17.541  0.00  0.00    +0.000 A 
BRANCH  22  24
ATOM     24  S   UNL     1       2.807   4.307  17.631  0.00  0.00    +0.000 S 
ATOM     25  O   UNL     1       2.065   5.528  17.862  0.00  0.00    +0.000 OA
ATOM     26  O   UNL     1       2.294   3.274  16.762  0.00  0.00    +0.000 OA
BRANCH  24  27
ATOM     27  N   UNL     1       3.121   3.584  19.150  0.00  0.00    +0.000 NA
ATOM     28  C   UNL     1       2.234   2.466  19.562  0.00  0.00    +0.000 C 
ATOM     29  C   UNL     1       1.224   3.094  20.499  0.00  0.00    +0.000 C 
ATOM     30  C   UNL     1       2.040   4.125  21.252  0.00  0.00    +0.000 C 
ATOM     31  C   UNL     1       3.144   4.554  20.287  0.00  0.00    +0.000 C 
ENDBRANCH  24  27
ENDBRANCH  22  24
ENDBRANCH   3  18
TORSDOF 7
ENDMDL
MODEL 5
REMARK VINA RESULT:      -7.6      0.961      1.036
REMARK  Name = 
REMARK  7 active torsions:
REMARK  status: ('A' for Active; 'I' for Inactive)
REMARK    1  A    between atoms: C_2  and  C_3
REMARK    2  A    between atoms: C_3  and  C_4
REMARK    3  A    between atoms: N_6  and  C_7
REMARK    4  A    between atoms: C_10  and  C_11
REMARK    5  A    between atoms: N_13  and  C_14
REMARK    6  A    between atoms: C_18  and  S_19
REMARK    7  A    between atoms: S_19  and  N_22
REMARK                            x       y       z     vdW  Elec       q    Type
REMARK                         _______ _______ _______ _____ _____    ______ ____
ROOT
ATOM      1  C   UNL     1       7.890   7.967  18.166  0.00  0.00    +0.000 C 
ATOM      2  O   UNL     1       8.513   7.145  18.833  0.00  0.00    +0.000 OA
ATOM      3  N   UNL     1       6.778   7.705  17.374  0.00  0.00    +0.000 N 
ATOM      4  H   UNL     1       6.251   8.505  17.037  0.00  0.00    +0.000 HD
ENDROOT
BRANCH   1   8
ATOM      5  C   UNL     1       9.173  12.095  18.232  0.00  0.00    +0.000 A 
ATOM      6  C   UNL     1       9.750  11.155  19.097  0.00  0.00    +0.000 A 
ATOM      7  C   UNL     1       9.350   9.813  19.083  0.00  0.00    +0.000 A 
ATOM      8  C   UNL     1       8.355   9.387  18.199  0.00  0.00    +0.000 A 
ATOM      9  C   UNL     1       7.726  10.335  17.381  0.00  0.00    +0.000 A 
ATOM     10  C   UNL     1       8.128  11.681  17.402  0.00  0.00    +0.000 A 
BRANCH   5  13
ATOM     11  C   UNL     1       9.050  14.492  18.900  0.00  0.00    +0.000 C 
ATOM     12  O   UNL     1       8.135  14.399  19.715  0.00  0.00    +0.000 OA
ATOM     13  N   UNL     1       9.599  13.443  18.174  0.00  0.00    +0.000 N 
ATOM     14  H   UNL     1      10.469  13.609  17.680  0.00  0.00    +0.000 HD
BRANCH  11  15
ATOM     15  C   UNL     1       9.680  15.840  18.641  0.00  0.00    +0.000 C 
BRANCH  15  17
ATOM     16  N   UNL     1       7.850  17.697  18.390  0.00  0.00    +0.000 NA
ATOM     17  C   UNL     1       8.645  16.859  18.511  0.00  0.00    +0.000 C 
ENDBRANCH  15  17
ENDBRANCH  11  15
ENDBRANCH   5  13
ENDBRANCH   1   8
BRANCH   3  18
ATOM     18  C   UNL     1       6.290   6.434  16.985  0.00  0.00    +0.000 A 
ATOM     19  C   UNL     1       6.895   5.646  16.004  0.00  0.00    +0.000 A 
ATOM     20  C   UNL     1       6.323   4.433  15.593  0.00  0.00    +0.000 A 
ATOM     21  C   UNL     1       5.116   4.012  16.133  0.00  0.00    +0.000 A 
ATOM     22  C   UNL     1       4.497   4.805  17.097  0.00  0.00    +0.000 A 
ATOM     23  C   UNL     1       5.093   5.990  17.556  0.00  0.00    +0.000 A 
BRANCH  22  24
ATOM     24  S   UNL     1       2.873   4.353  17.658  0.00  0.00    +0.000 S 
ATOM     25  O   UNL     1       2.125   5.574  17.878  0.00  0.00    +0.000 OA
ATOM     26  O   UNL     1       2.370   3.315  16.790  0.00  0.00    +0.000 OA
BRANCH  24  27
ATOM     27  N   UNL     1       3.177   3.639  19.183  0.00  0.00    +0.000 NA
ATOM     28  C   UNL     1       2.439   2.390  19.503  0.00  0.00    +0.000 C 
ATOM     29  C   UNL     1       1.280   2.833  20.369  0.00  0.00    +0.000 C 
ATOM     30  C   UNL     1       1.873   3.950  21.204  0.00  0.00    +0.000 C 
ATOM     31  C   UNL     1       2.969   4.567  20.337  0.00  0.00    +0.000 C 
ENDBRANCH  24  27
ENDBRANCH  22  24
ENDBRANCH   3  18
TORSDOF 7
ENDMDL
MODEL 6
REMARK VINA RESULT:      -7.6      8.039     10.297
REMARK  Name = 
REMARK  7 active torsions:
REMARK  status: ('A' for Active; 'I' for Inactive)
REMARK    1  A    between atoms: C_2  and  C_3
REMARK    2  A    between atoms: C_3  and  C_4
REMARK    3  A    between atoms: N_6  and  C_7
REMARK    4  A    between atoms: C_10  and  C_11
REMARK    5  A    between atoms: N_13  and  C_14
REMARK    6  A    between atoms: C_18  and  S_19
REMARK    7  A    between atoms: S_19  and  N_22
REMARK                            x       y       z     vdW  Elec       q    Type
REMARK                         _______ _______ _______ _____ _____    ______ ____
ROOT
ATOM      1  C   UNL     1       0.125  11.048  20.799  0.00  0.00    +0.000 C 
ATOM      2  O   UNL     1       1.110  11.781  20.799  0.00  0.00    +0.000 OA
ATOM      3  N   UNL     1       0.086   9.730  20.359  0.00  0.00    +0.000 N 
ATOM      4  H   UNL     1      -0.739   9.187  20.598  0.00  0.00    +0.000 HD
ENDROOT
BRANCH   1   8
ATOM      5  C   UNL     1      -3.562  12.669  22.368  0.00  0.00    +0.000 A 
ATOM      6  C   UNL     1      -3.244  12.806  21.010  0.00  0.00    +0.000 A 
ATOM      7  C   UNL     1      -2.057  12.281  20.486  0.00  0.00    +0.000 A 
ATOM      8  C   UNL     1      -1.160  11.608  21.318  0.00  0.00    +0.000 A 
ATOM      9  C   UNL     1      -1.439  11.528  22.689  0.00  0.00    +0.000 A 
ATOM     10  C   UNL     1      -2.630  12.061  23.211  0.00  0.00    +0.000 A 
BRANCH   5  13
ATOM     11  C   UNL     1      -5.027  14.420  23.365  0.00  0.00    +0.000 C 
ATOM     12  O   UNL     1      -4.230  15.356  23.325  0.00  0.00    +0.000 OA
ATOM     13  N   UNL     1      -4.783  13.128  22.917  0.00  0.00    +0.000 N 
ATOM     14  H   UNL     1      -5.572  12.499  22.827  0.00  0.00    +0.000 HD
BRANCH  11  15
ATOM     15  C   UNL     1      -6.412  14.647  23.923  0.00  0.00    +0.000 C 
BRANCH  15  17
ATOM     16  N   UNL     1      -7.719  12.379  23.995  0.00  0.00    +0.000 NA
ATOM     17  C   UNL     1      -7.154  13.391  23.945  0.00  0.00    +0.000 C 
ENDBRANCH  15  17
ENDBRANCH  11  15
ENDBRANCH   5  13
ENDBRANCH   1   8
BRANCH   3  18
ATOM     18  C   UNL     1       1.079   9.050  19.616  0.00  0.00    +0.000 A 
ATOM     19  C   UNL     1       1.566   9.504  18.388  0.00  0.00    +0.000 A 
ATOM     20  C   UNL     1       2.487   8.749  17.648  0.00  0.00    +0.000 A 
ATOM     21  C   UNL     1       2.906   7.509  18.111  0.00  0.00    +0.000 A 
ATOM     22  C   UNL     1       2.408   7.042  19.325  0.00  0.00    +0.000 A 
ATOM     23  C   UNL     1       1.531   7.818  20.099  0.00  0.00    +0.000 A 
BRANCH  22  24
ATOM     24  S   UNL     1       2.809   5.386  19.830  0.00  0.00    +0.000 S 
ATOM     25  O   UNL     1       4.239   5.212  19.682  0.00  0.00    +0.000 OA
ATOM     26  O   UNL     1       2.151   5.129  21.090  0.00  0.00    +0.000 OA
BRANCH  24  27
ATOM     27  N   UNL     1       2.035   4.424  18.646  0.00  0.00    +0.000 NA
ATOM     28  C   UNL     1       1.087   3.388  19.131  0.00  0.00    +0.000 C 
ATOM     29  C   UNL     1       1.877   2.098  19.114  0.00  0.00    +0.000 C 
ATOM     30  C   UNL     1       2.745   2.236  17.880  0.00  0.00    +0.000 C 
ATOM     31  C   UNL     1       2.980   3.736  17.714  0.00  0.00    +0.000 C 
ENDBRANCH  24  27
ENDBRANCH  22  24
ENDBRANCH   3  18
TORSDOF 7
ENDMDL
MODEL 7
REMARK VINA RESULT:      -7.6      6.327      8.804
REMARK  Name = 
REMARK  7 active torsions:
REMARK  status: ('A' for Active; 'I' for Inactive)
REMARK    1  A    between atoms: C_2  and  C_3
REMARK    2  A    between atoms: C_3  and  C_4
REMARK    3  A    between atoms: N_6  and  C_7
REMARK    4  A    between atoms: C_10  and  C_11
REMARK    5  A    between atoms: N_13  and  C_14
REMARK    6  A    between atoms: C_18  and  S_19
REMARK    7  A    between atoms: S_19  and  N_22
REMARK                            x       y       z     vdW  Elec       q    Type
REMARK                         _______ _______ _______ _____ _____    ______ ____
ROOT
ATOM      1  C   UNL     1       1.218   8.450  20.404  0.00  0.00    +0.000 C 
ATOM      2  O   UNL     1       1.602   8.698  19.264  0.00  0.00    +0.000 OA
ATOM      3  N   UNL     1       1.370   7.240  21.073  0.00  0.00    +0.000 N 
ATOM      4  H   UNL     1       1.182   7.237  22.071  0.00  0.00    +0.000 HD
ENDROOT
BRANCH   1   8
ATOM      5  C   UNL     1      -0.789  11.555  22.642  0.00  0.00    +0.000 A 
ATOM      6  C   UNL     1      -0.089  11.862  21.468  0.00  0.00    +0.000 A 
ATOM      7  C   UNL     1       0.561  10.866  20.729  0.00  0.00    +0.000 A 
ATOM      8  C   UNL     1       0.524   9.537  21.157  0.00  0.00    +0.000 A 
ATOM      9  C   UNL     1      -0.116   9.234  22.367  0.00  0.00    +0.000 A 
ATOM     10  C   UNL     1      -0.762  10.238  23.108  0.00  0.00    +0.000 A 
BRANCH   5  13
ATOM     11  C   UNL     1      -2.874  12.768  23.264  0.00  0.00    +0.000 C 
ATOM     12  O   UNL     1      -3.653  12.162  22.530  0.00  0.00    +0.000 OA
ATOM     13  N   UNL     1      -1.512  12.524  23.378  0.00  0.00    +0.000 N 
ATOM     14  H   UNL     1      -1.013  12.955  24.148  0.00  0.00    +0.000 HD
BRANCH  11  15
ATOM     15  C   UNL     1      -3.397  13.871  24.153  0.00  0.00    +0.000 C 
BRANCH  15  17
ATOM     16  N   UNL     1      -1.397  15.345  24.983  0.00  0.00    +0.000 NA
ATOM     17  C   UNL     1      -2.295  14.711  24.609  0.00  0.00    +0.000 C 
ENDBRANCH  15  17
ENDBRANCH  11  15
ENDBRANCH   5  13
ENDBRANCH   1   8
BRANCH   3  18
ATOM     18  C   UNL     1       1.768   6.002  20.515  0.00  0.00    +0.000 A 
ATOM     19  C   UNL     1       0.998   4.839  20.596  0.00  0.00    +0.000 A 
ATOM     20  C   UNL     1       1.474   3.617  20.104  0.00  0.00    +0.000 A 
ATOM     21  C   UNL     1       2.747   3.533  19.556  0.00  0.00    +0.000 A 
ATOM     22  C   UNL     1       3.528   4.684  19.492  0.00  0.00    +0.000 A 
ATOM     23  C   UNL     1       3.035   5.924  19.929  0.00  0.00    +0.000 A 
BRANCH  22  24
ATOM     24  S   UNL     1       5.216   4.542  18.953  0.00  0.00    +0.000 S 
ATOM     25  O   UNL     1       5.990   5.545  19.653  0.00  0.00    +0.000 OA
ATOM     26  O   UNL     1       5.585   3.147  18.998  0.00  0.00    +0.000 OA
BRANCH  24  27
ATOM     27  N   UNL     1       5.133   4.993  17.305  0.00  0.00    +0.000 NA
ATOM     28  C   UNL     1       5.502   3.962  16.302  0.00  0.00    +0.000 C 
ATOM     29  C   UNL     1       6.932   4.280  15.923  0.00  0.00    +0.000 C 
ATOM     30  C   UNL     1       6.969   5.795  15.938  0.00  0.00    +0.000 C 
ATOM     31  C   UNL     1       5.927   6.216  16.973  0.00  0.00    +0.000 C 
ENDBRANCH  24  27
ENDBRANCH  22  24
ENDBRANCH   3  18
TORSDOF 7
ENDMDL
MODEL 8
REMARK VINA RESULT:      -7.6      5.646      8.019
REMARK  Name = 
REMARK  7 active torsions:
REMARK  status: ('A' for Active; 'I' for Inactive)
REMARK    1  A    between atoms: C_2  and  C_3
REMARK    2  A    between atoms: C_3  and  C_4
REMARK    3  A    between atoms: N_6  and  C_7
REMARK    4  A    between atoms: C_10  and  C_11
REMARK    5  A    between atoms: N_13  and  C_14
REMARK    6  A    between atoms: C_18  and  S_19
REMARK    7  A    between atoms: S_19  and  N_22
REMARK                            x       y       z     vdW  Elec       q    Type
REMARK                         _______ _______ _______ _____ _____    ______ ____
ROOT
ATOM      1  C   UNL     1       2.162   8.096  18.530  0.00  0.00    +0.000 C 
ATOM      2  O   UNL     1       2.487   8.475  17.408  0.00  0.00    +0.000 OA
ATOM      3  N   UNL     1       2.533   6.897  19.129  0.00  0.00    +0.000 N 
ATOM      4  H   UNL     1       2.355   6.803  20.125  0.00  0.00    +0.000 HD
ENDROOT
BRANCH   1   8
ATOM      5  C   UNL     1      -0.400  10.715  20.824  0.00  0.00    +0.000 A 
ATOM      6  C   UNL     1       0.326   9.696  21.455  0.00  0.00    +0.000 A 
ATOM      7  C   UNL     1       1.165   8.844  20.727  0.00  0.00    +0.000 A 
ATOM      8  C   UNL     1       1.289   8.996  19.343  0.00  0.00    +0.000 A 
ATOM      9  C   UNL     1       0.513   9.968  18.697  0.00  0.00    +0.000 A 
ATOM     10  C   UNL     1      -0.331  10.817  19.432  0.00  0.00    +0.000 A 
BRANCH   5  13
ATOM     11  C   UNL     1      -0.756  12.815  22.116  0.00  0.00    +0.000 C 
ATOM     12  O   UNL     1       0.395  13.244  22.071  0.00  0.00    +0.000 OA
ATOM     13  N   UNL     1      -1.205  11.635  21.537  0.00  0.00    +0.000 N 
ATOM     14  H   UNL     1      -2.206  11.483  21.478  0.00  0.00    +0.000 HD
BRANCH  11  15
ATOM     15  C   UNL     1      -1.818  13.612  22.835  0.00  0.00    +0.000 C 
BRANCH  15  17
ATOM     16  N   UNL     1      -3.638  12.032  23.863  0.00  0.00    +0.000 NA
ATOM     17  C   UNL     1      -2.816  12.714  23.407  0.00  0.00    +0.000 C 
ENDBRANCH  15  17
ENDBRANCH  11  15
ENDBRANCH   5  13
ENDBRANCH   1   8
BRANCH   3  18
ATOM     18  C   UNL     1       3.142   5.784  18.501  0.00  0.00    +0.000 A 
ATOM     19  C   UNL     1       3.055   4.481  18.996  0.00  0.00    +0.000 A 
ATOM     20  C   UNL     1       3.749   3.426  18.387  0.00  0.00    +0.000 A 
ATOM     21  C   UNL     1       4.571   3.669  17.294  0.00  0.00    +0.000 A 
ATOM     22  C   UNL     1       4.677   4.970  16.810  0.00  0.00    +0.000 A 
ATOM     23  C   UNL     1       3.940   6.021  17.378  0.00  0.00    +0.000 A 
BRANCH  22  24
ATOM     24  S   UNL     1       5.859   5.308  15.526  0.00  0.00    +0.000 S 
ATOM     25  O   UNL     1       5.995   4.111  14.723  0.00  0.00    +0.000 OA
ATOM     26  O   UNL     1       5.519   6.577  14.926  0.00  0.00    +0.000 OA
BRANCH  24  27
ATOM     27  N   UNL     1       7.316   5.530  16.394  0.00  0.00    +0.000 NA
ATOM     28  C   UNL     1       7.596   4.578  17.500  0.00  0.00    +0.000 C 
ATOM     29  C   UNL     1       7.182   5.310  18.759  0.00  0.00    +0.000 C 
ATOM     30  C   UNL     1       7.581   6.744  18.477  0.00  0.00    +0.000 C 
ATOM     31  C   UNL     1       7.479   6.904  16.961  0.00  0.00    +0.000 C 
ENDBRANCH  24  27
ENDBRANCH  22  24
ENDBRANCH   3  18
TORSDOF 7
ENDMDL
MODEL 9
REMARK VINA RESULT:      -7.5      5.683      8.042
REMARK  Name = 
REMARK  7 active torsions:
REMARK  status: ('A' for Active; 'I' for Inactive)
REMARK    1  A    between atoms: C_2  and  C_3
REMARK    2  A    between atoms: C_3  and  C_4
REMARK    3  A    between atoms: N_6  and  C_7
REMARK    4  A    between atoms: C_10  and  C_11
REMARK    5  A    between atoms: N_13  and  C_14
REMARK    6  A    between atoms: C_18  and  S_19
REMARK    7  A    between atoms: S_19  and  N_22
REMARK                            x       y       z     vdW  Elec       q    Type
REMARK                         _______ _______ _______ _____ _____    ______ ____
ROOT
ATOM      1  C   UNL     1       2.147   7.887  19.097  0.00  0.00    +0.000 C 
ATOM      2  O   UNL     1       2.144   8.077  17.884  0.00  0.00    +0.000 OA
ATOM      3  N   UNL     1       2.896   6.929  19.773  0.00  0.00    +0.000 N 
ATOM      4  H   UNL     1       2.950   7.014  20.784  0.00  0.00    +0.000 HD
ENDROOT
BRANCH   1   8
ATOM      5  C   UNL     1      -0.419  10.417  21.483  0.00  0.00    +0.000 A 
ATOM      6  C   UNL     1       0.374   9.433  22.088  0.00  0.00    +0.000 A 
ATOM      7  C   UNL     1       1.215   8.610  21.330  0.00  0.00    +0.000 A 
ATOM      8  C   UNL     1       1.274   8.757  19.941  0.00  0.00    +0.000 A 
ATOM      9  C   UNL     1       0.433   9.692  19.324  0.00  0.00    +0.000 A 
ATOM     10  C   UNL     1      -0.413  10.512  20.089  0.00  0.00    +0.000 A 
BRANCH   5  13
ATOM     11  C   UNL     1      -0.903  12.624  22.533  0.00  0.00    +0.000 C 
ATOM     12  O   UNL     1       0.120  13.210  22.186  0.00  0.00    +0.000 OA
ATOM     13  N   UNL     1      -1.229  11.310  22.225  0.00  0.00    +0.000 N 
ATOM     14  H   UNL     1      -2.178  11.000  22.402  0.00  0.00    +0.000 HD
BRANCH  11  15
ATOM     15  C   UNL     1      -1.938  13.358  23.352  0.00  0.00    +0.000 C 
BRANCH  15  17
ATOM     16  N   UNL     1      -0.770  15.264  24.717  0.00  0.00    +0.000 NA
ATOM     17  C   UNL     1      -1.306  14.433  24.109  0.00  0.00    +0.000 C 
ENDBRANCH  15  17
ENDBRANCH  11  15
ENDBRANCH   5  13
ENDBRANCH   1   8
BRANCH   3  18
ATOM     18  C   UNL     1       3.604   5.844  19.204  0.00  0.00    +0.000 A 
ATOM     19  C   UNL     1       3.246   4.508  19.395  0.00  0.00    +0.000 A 
ATOM     20  C   UNL     1       4.031   3.466  18.882  0.00  0.00    +0.000 A 
ATOM     21  C   UNL     1       5.208   3.747  18.202  0.00  0.00    +0.000 A 
ATOM     22  C   UNL     1       5.581   5.077  18.026  0.00  0.00    +0.000 A 
ATOM     23  C   UNL     1       4.771   6.128  18.486  0.00  0.00    +0.000 A 
BRANCH  22  24
ATOM     24  S   UNL     1       7.169   5.431  17.311  0.00  0.00    +0.000 S 
ATOM     25  O   UNL     1       7.669   6.645  17.921  0.00  0.00    +0.000 OA
ATOM     26  O   UNL     1       7.947   4.214  17.321  0.00  0.00    +0.000 OA
BRANCH  24  27
ATOM     27  N   UNL     1       6.788   5.777  15.680  0.00  0.00    +0.000 NA
ATOM     28  C   UNL     1       5.351   5.761  15.303  0.00  0.00    +0.000 C 
ATOM     29  C   UNL     1       5.129   4.406  14.668  0.00  0.00    +0.000 C 
ATOM     30  C   UNL     1       6.419   4.158  13.912  0.00  0.00    +0.000 C 
ATOM     31  C   UNL     1       7.498   4.904  14.695  0.00  0.00    +0.000 C 
ENDBRANCH  24  27
ENDBRANCH  22  24
ENDBRANCH   3  18
TORSDOF 7
ENDMDL
