MODEL 1
REMARK VINA RESULT:      -8.8      0.000      0.000
REMARK  Name = 
REMARK  8 active torsions:
REMARK  status: ('A' for Active; 'I' for Inactive)
REMARK    1  A    between atoms: C_1  and  C_2
REMARK    2  A    between atoms: C_2  and  O_3
REMARK    3  A    between atoms: O_3  and  C_4
REMARK    4  A    between atoms: C_4  and  C_6
REMARK    5  A    between atoms: C_7  and  C_8
REMARK    6  A    between atoms: C_13  and  C_14
REMARK    7  A    between atoms: C_17  and  N_18
REMARK    8  A    between atoms: N_21  and  C_22
REMARK                            x       y       z     vdW  Elec       q    Type
REMARK                         _______ _______ _______ _____ _____    ______ ____
ROOT
ATOM      1  C   UNL     1       2.903   6.762  19.182  0.00  0.00    +0.000 A 
ATOM      2  C   UNL     1       2.154   7.297  20.238  0.00  0.00    +0.000 A 
ATOM      3  C   UNL     1       1.409   8.463  20.057  0.00  0.00    +0.000 A 
ATOM      4  C   UNL     1       1.395   9.127  18.826  0.00  0.00    +0.000 A 
ATOM      5  C   UNL     1       2.131   8.594  17.766  0.00  0.00    +0.000 A 
ATOM      6  C   UNL     1       2.882   7.427  17.942  0.00  0.00    +0.000 A 
ENDROOT
BRANCH   1  14
ATOM      7  C   UNL     1       3.116   4.238  18.627  0.00  0.00    +0.000 C 
ATOM      8  C   UNL     1       3.950   3.360  18.021  0.00  0.00    +0.000 C 
ATOM      9  C   UNL     1       3.608   2.053  17.351  0.00  0.00    +0.000 C 
ATOM     10  N   UNL     1       5.304   3.634  17.998  0.00  0.00    +0.000 N 
ATOM     11  C   UNL     1       5.869   4.797  18.418  0.00  0.00    +0.000 C 
ATOM     12  S   UNL     1       7.489   5.095  18.221  0.00  0.00    +0.000 S 
ATOM     13  N   UNL     1       5.044   5.714  18.967  0.00  0.00    +0.000 N 
ATOM     14  C   UNL     1       3.660   5.454  19.346  0.00  0.00    +0.000 C 
ATOM     15  H   UNL     1       5.932   2.978  17.547  0.00  0.00    +0.000 HD
ATOM     16  H   UNL     1       5.469   6.584  19.267  0.00  0.00    +0.000 HD
BRANCH   7  17
ATOM     17  C   UNL     1       1.645   4.006  18.646  0.00  0.00    +0.000 C 
ATOM     18  O   UNL     1       0.943   3.938  17.649  0.00  0.00    +0.000 OA
BRANCH  17  19
ATOM     19  O   UNL     1       1.181   3.899  19.919  0.00  0.00    +0.000 OA
BRANCH  19  21
ATOM     20  C   UNL     1       2.197   2.711  21.812  0.00  0.00    +0.000 C 
ATOM     21  C   UNL     1       1.374   2.614  20.535  0.00  0.00    +0.000 C 
ENDBRANCH  19  21
ENDBRANCH  17  19
ENDBRANCH   7  17
ENDBRANCH   1  14
BRANCH   4  22
ATOM     22  N   UNL     1       0.623  10.288  18.601  0.00  0.00    +0.000 N 
ATOM     23  C   UNL     1      -0.622  10.521  19.153  0.00  0.00    +0.000 C 
ATOM     24  O   UNL     1      -1.119   9.864  20.061  0.00  0.00    +0.000 OA
ATOM     25  N   UNL     1      -1.267  11.579  18.527  0.00  0.00    +0.000 N 
ATOM     26  H   UNL     1       1.099  11.098  18.229  0.00  0.00    +0.000 HD
ATOM     27  H   UNL     1      -1.072  11.646  17.536  0.00  0.00    +0.000 HD
BRANCH  25  28
ATOM     28  C   UNL     1      -2.542  12.007  18.959  0.00  0.00    +0.000 A 
ATOM     29  C   UNL     1      -2.687  12.837  20.079  0.00  0.00    +0.000 A 
ATOM     30  C   UNL     1      -3.955  13.208  20.527  0.00  0.00    +0.000 A 
ATOM     31  C   UNL     1      -5.080  12.740  19.858  0.00  0.00    +0.000 A 
ATOM     32  F   UNL     1      -6.290  13.086  20.317  0.00  0.00    +0.000 F 
ATOM     33  C   UNL     1      -4.945  11.924  18.736  0.00  0.00    +0.000 A 
ATOM     34 CL   UNL     1      -6.340  11.310  17.933  0.00  0.00    +0.000 Cl
ATOM     35  C   UNL     1      -3.676  11.574  18.266  0.00  0.00    +0.000 A 
ENDBRANCH  25  28
ENDBRANCH   4  22
TORSDOF 6
ENDMDL
MODEL 2
REMARK VINA RESULT:      -8.7      2.567      2.853
REMARK  Name = 
REMARK  8 active torsions:
REMARK  status: ('A' for Active; 'I' for Inactive)
REMARK    1  A    between atoms: C_1  and  C_2
REMARK    2  A    between atoms: C_2  and  O_3
REMARK    3  A    between atoms: O_3  and  C_4
REMARK    4  A    between atoms: C_4  and  C_6
REMARK    5  A    between atoms: C_7  and  C_8
REMARK    6  A    between atoms: C_13  and  C_14
REMARK    7  A    between atoms: C_17  and  N_18
REMARK    8  A    between atoms: N_21  and  C_22
REMARK                            x       y       z     vdW  Elec       q    Type
REMARK                         _______ _______ _______ _____ _____    ______ ____
ROOT
ATOM      1  C   UNL     1       2.859   6.903  19.131  0.00  0.00    +0.000 A 
ATOM      2  C   UNL     1       1.991   7.478  20.067  0.00  0.00    +0.000 A 
ATOM      3  C   UNL     1       1.278   8.636  19.751  0.00  0.00    +0.000 A 
ATOM      4  C   UNL     1       1.415   9.250  18.502  0.00  0.00    +0.000 A 
ATOM      5  C   UNL     1       2.271   8.677  17.561  0.00  0.00    +0.000 A 
ATOM      6  C   UNL     1       2.991   7.518  17.872  0.00  0.00    +0.000 A 
ENDROOT
BRANCH   1  14
ATOM      7  C   UNL     1       3.103   4.352  18.732  0.00  0.00    +0.000 C 
ATOM      8  C   UNL     1       3.985   3.441  18.258  0.00  0.00    +0.000 C 
ATOM      9  C   UNL     1       3.699   2.101  17.628  0.00  0.00    +0.000 C 
ATOM     10  N   UNL     1       5.338   3.708  18.353  0.00  0.00    +0.000 N 
ATOM     11  C   UNL     1       5.869   4.890  18.765  0.00  0.00    +0.000 C 
ATOM     12  S   UNL     1       7.502   5.172  18.710  0.00  0.00    +0.000 S 
ATOM     13  N   UNL     1       5.002   5.838  19.182  0.00  0.00    +0.000 N 
ATOM     14  C   UNL     1       3.586   5.602  19.436  0.00  0.00    +0.000 C 
ATOM     15  H   UNL     1       6.000   3.028  18.000  0.00  0.00    +0.000 HD
ATOM     16  H   UNL     1       5.403   6.721  19.475  0.00  0.00    +0.000 HD
BRANCH   7  17
ATOM     17  C   UNL     1       1.636   4.127  18.620  0.00  0.00    +0.000 C 
ATOM     18  O   UNL     1       1.024   4.075  17.565  0.00  0.00    +0.000 OA
BRANCH  17  19
ATOM     19  O   UNL     1       1.062   4.005  19.846  0.00  0.00    +0.000 OA
BRANCH  19  21
ATOM     20  C   UNL     1       1.935   2.803  21.800  0.00  0.00    +0.000 C 
ATOM     21  C   UNL     1       1.208   2.716  20.466  0.00  0.00    +0.000 C 
ENDBRANCH  19  21
ENDBRANCH  17  19
ENDBRANCH   7  17
ENDBRANCH   1  14
BRANCH   4  22
ATOM     22  N   UNL     1       0.681  10.401  18.141  0.00  0.00    +0.000 N 
ATOM     23  C   UNL     1       0.630  11.565  18.883  0.00  0.00    +0.000 C 
ATOM     24  O   UNL     1       1.371  11.828  19.825  0.00  0.00    +0.000 OA
ATOM     25  N   UNL     1      -0.393  12.400  18.454  0.00  0.00    +0.000 N 
ATOM     26  H   UNL     1       0.382  10.480  17.178  0.00  0.00    +0.000 HD
ATOM     27  H   UNL     1      -1.215  11.904  18.133  0.00  0.00    +0.000 HD
BRANCH  25  28
ATOM     28  C   UNL     1      -0.600  13.660  19.058  0.00  0.00    +0.000 A 
ATOM     29  C   UNL     1      -1.443  13.802  20.169  0.00  0.00    +0.000 A 
ATOM     30  C   UNL     1      -1.681  15.059  20.723  0.00  0.00    +0.000 A 
ATOM     31  C   UNL     1      -1.081  16.179  20.159  0.00  0.00    +0.000 A 
ATOM     32  F   UNL     1      -1.341  17.382  20.688  0.00  0.00    +0.000 F 
ATOM     33  C   UNL     1      -0.232  16.047  19.062  0.00  0.00    +0.000 A 
ATOM     34 CL   UNL     1       0.478  17.439  18.336  0.00  0.00    +0.000 Cl
ATOM     35  C   UNL     1       0.033  14.784  18.522  0.00  0.00    +0.000 A 
ENDBRANCH  25  28
ENDBRANCH   4  22
TORSDOF 6
ENDMDL
MODEL 3
REMARK VINA RESULT:      -8.6      0.970      1.348
REMARK  Name = 
REMARK  8 active torsions:
REMARK  status: ('A' for Active; 'I' for Inactive)
REMARK    1  A    between atoms: C_1  and  C_2
REMARK    2  A    between atoms: C_2  and  O_3
REMARK    3  A    between atoms: O_3  and  C_4
REMARK    4  A    between atoms: C_4  and  C_6
REMARK    5  A    between atoms: C_7  and  C_8
REMARK    6  A    between atoms: C_13  and  C_14
REMARK    7  A    between atoms: C_17  and  N_18
REMARK    8  A    between atoms: N_21  and  C_22
REMARK                            x       y       z     vdW  Elec       q    Type
REMARK                         _______ _______ _______ _____ _____    ______ ____
ROOT
ATOM      1  C   UNL     1       2.754   6.883  19.274  0.00  0.00    +0.000 A 
ATOM      2  C   UNL     1       2.028   7.430  20.339  0.00  0.00    +0.000 A 
ATOM      3  C   UNL     1       1.248   8.572  20.150  0.00  0.00    +0.000 A 
ATOM      4  C   UNL     1       1.177   9.200  18.902  0.00  0.00    +0.000 A 
ATOM      5  C   UNL     1       1.890   8.655  17.834  0.00  0.00    +0.000 A 
ATOM      6  C   UNL     1       2.675   7.511  18.017  0.00  0.00    +0.000 A 
ENDROOT
BRANCH   1  14
ATOM      7  C   UNL     1       3.116   4.396  18.638  0.00  0.00    +0.000 C 
ATOM      8  C   UNL     1       4.034   3.577  18.071  0.00  0.00    +0.000 C 
ATOM      9  C   UNL     1       3.803   2.288  17.323  0.00  0.00    +0.000 C 
ATOM     10  N   UNL     1       5.373   3.903  18.173  0.00  0.00    +0.000 N 
ATOM     11  C   UNL     1       5.852   5.067  18.686  0.00  0.00    +0.000 C 
ATOM     12  S   UNL     1       7.469   5.435  18.638  0.00  0.00    +0.000 S 
ATOM     13  N   UNL     1       4.947   5.928  19.199  0.00  0.00    +0.000 N 
ATOM     14  C   UNL     1       3.549   5.599  19.449  0.00  0.00    +0.000 C 
ATOM     15  H   UNL     1       6.062   3.292  17.752  0.00  0.00    +0.000 HD
ATOM     16  H   UNL     1       5.309   6.799  19.568  0.00  0.00    +0.000 HD
BRANCH   7  17
ATOM     17  C   UNL     1       1.660   4.108  18.524  0.00  0.00    +0.000 C 
ATOM     18  O   UNL     1       1.041   4.084  17.471  0.00  0.00    +0.000 OA
BRANCH  17  19
ATOM     19  O   UNL     1       1.104   3.892  19.745  0.00  0.00    +0.000 OA
BRANCH  19  21
ATOM     20  C   UNL     1       1.880   2.768  21.785  0.00  0.00    +0.000 C 
ATOM     21  C   UNL     1       1.412   2.622  20.344  0.00  0.00    +0.000 C 
ENDBRANCH  19  21
ENDBRANCH  17  19
ENDBRANCH   7  17
ENDBRANCH   1  14
BRANCH   4  22
ATOM     22  N   UNL     1       0.369  10.335  18.671  0.00  0.00    +0.000 N 
ATOM     23  C   UNL     1      -1.012  10.337  18.711  0.00  0.00    +0.000 C 
ATOM     24  O   UNL     1      -1.701   9.424  19.156  0.00  0.00    +0.000 OA
ATOM     25  N   UNL     1      -1.537  11.494  18.152  0.00  0.00    +0.000 N 
ATOM     26  H   UNL     1       0.812  11.241  18.729  0.00  0.00    +0.000 HD
ATOM     27  H   UNL     1      -1.000  11.849  17.372  0.00  0.00    +0.000 HD
BRANCH  25  28
ATOM     28  C   UNL     1      -2.932  11.714  18.122  0.00  0.00    +0.000 A 
ATOM     29  C   UNL     1      -3.681  11.463  16.963  0.00  0.00    +0.000 A 
ATOM     30  C   UNL     1      -5.048  11.735  16.930  0.00  0.00    +0.000 A 
ATOM     31  C   UNL     1      -5.667  12.269  18.055  0.00  0.00    +0.000 A 
ATOM     32  F   UNL     1      -6.976  12.548  17.996  0.00  0.00    +0.000 F 
ATOM     33  C   UNL     1      -4.933  12.511  19.214  0.00  0.00    +0.000 A 
ATOM     34 CL   UNL     1      -5.690  13.212  20.594  0.00  0.00    +0.000 Cl
ATOM     35  C   UNL     1      -3.568  12.211  19.262  0.00  0.00    +0.000 A 
ENDBRANCH  25  28
ENDBRANCH   4  22
TORSDOF 6
ENDMDL
MODEL 4
REMARK VINA RESULT:      -8.6      2.299      2.628
REMARK  Name = 
REMARK  8 active torsions:
REMARK  status: ('A' for Active; 'I' for Inactive)
REMARK    1  A    between atoms: C_1  and  C_2
REMARK    2  A    between atoms: C_2  and  O_3
REMARK    3  A    between atoms: O_3  and  C_4
REMARK    4  A    between atoms: C_4  and  C_6
REMARK    5  A    between atoms: C_7  and  C_8
REMARK    6  A    between atoms: C_13  and  C_14
REMARK    7  A    between atoms: C_17  and  N_18
REMARK    8  A    between atoms: N_21  and  C_22
REMARK                            x       y       z     vdW  Elec       q    Type
REMARK                         _______ _______ _______ _____ _____    ______ ____
ROOT
ATOM      1  C   UNL     1       2.865   6.916  19.177  0.00  0.00    +0.000 A 
ATOM      2  C   UNL     1       1.990   7.504  20.099  0.00  0.00    +0.000 A 
ATOM      3  C   UNL     1       1.285   8.662  19.765  0.00  0.00    +0.000 A 
ATOM      4  C   UNL     1       1.438   9.264  18.512  0.00  0.00    +0.000 A 
ATOM      5  C   UNL     1       2.300   8.678  17.585  0.00  0.00    +0.000 A 
ATOM      6  C   UNL     1       3.012   7.519  17.914  0.00  0.00    +0.000 A 
ENDROOT
BRANCH   1  14
ATOM      7  C   UNL     1       3.137   4.371  18.765  0.00  0.00    +0.000 C 
ATOM      8  C   UNL     1       4.043   3.467  18.322  0.00  0.00    +0.000 C 
ATOM      9  C   UNL     1       3.791   2.133  17.667  0.00  0.00    +0.000 C 
ATOM     10  N   UNL     1       5.389   3.739  18.479  0.00  0.00    +0.000 N 
ATOM     11  C   UNL     1       5.896   4.918  18.926  0.00  0.00    +0.000 C 
ATOM     12  S   UNL     1       7.529   5.207  18.947  0.00  0.00    +0.000 S 
ATOM     13  N   UNL     1       5.008   5.859  19.313  0.00  0.00    +0.000 N 
ATOM     14  C   UNL     1       3.582   5.616  19.502  0.00  0.00    +0.000 C 
ATOM     15  H   UNL     1       6.069   3.064  18.151  0.00  0.00    +0.000 HD
ATOM     16  H   UNL     1       5.392   6.740  19.632  0.00  0.00    +0.000 HD
BRANCH   7  17
ATOM     17  C   UNL     1       1.677   4.141  18.586  0.00  0.00    +0.000 C 
ATOM     18  O   UNL     1       1.108   4.121  17.505  0.00  0.00    +0.000 OA
BRANCH  17  19
ATOM     19  O   UNL     1       1.054   3.974  19.782  0.00  0.00    +0.000 OA
BRANCH  19  21
ATOM     20  C   UNL     1       1.746   2.706  21.767  0.00  0.00    +0.000 C 
ATOM     21  C   UNL     1       1.173   2.662  20.357  0.00  0.00    +0.000 C 
ENDBRANCH  19  21
ENDBRANCH  17  19
ENDBRANCH   7  17
ENDBRANCH   1  14
BRANCH   4  22
ATOM     22  N   UNL     1       0.712  10.415  18.132  0.00  0.00    +0.000 N 
ATOM     23  C   UNL     1       0.621  11.569  18.885  0.00  0.00    +0.000 C 
ATOM     24  O   UNL     1       1.318  11.825  19.862  0.00  0.00    +0.000 OA
ATOM     25  N   UNL     1      -0.388  12.403  18.422  0.00  0.00    +0.000 N 
ATOM     26  H   UNL     1       0.455  10.503  17.158  0.00  0.00    +0.000 HD
ATOM     27  H   UNL     1      -1.191  11.906  18.060  0.00  0.00    +0.000 HD
BRANCH  25  28
ATOM     28  C   UNL     1      -0.629  13.654  19.031  0.00  0.00    +0.000 A 
ATOM     29  C   UNL     1      -0.001  14.819  18.568  0.00  0.00    +0.000 A 
ATOM     30  C   UNL     1      -0.207  16.039  19.212  0.00  0.00    +0.000 A 
ATOM     31  C   UNL     1      -1.036  16.092  20.327  0.00  0.00    +0.000 A 
ATOM     32  F   UNL     1      -1.201  17.268  20.948  0.00  0.00    +0.000 F 
ATOM     33  C   UNL     1      -1.673  14.942  20.787  0.00  0.00    +0.000 A 
ATOM     34 CL   UNL     1      -2.665  14.999  22.195  0.00  0.00    +0.000 Cl
ATOM     35  C   UNL     1      -1.493  13.723  20.127  0.00  0.00    +0.000 A 
ENDBRANCH  25  28
ENDBRANCH   4  22
TORSDOF 6
ENDMDL
MODEL 5
REMARK VINA RESULT:      -8.4      2.500      2.874
REMARK  Name = 
REMARK  8 active torsions:
REMARK  status: ('A' for Active; 'I' for Inactive)
REMARK    1  A    between atoms: C_1  and  C_2
REMARK    2  A    between atoms: C_2  and  O_3
REMARK    3  A    between atoms: O_3  and  C_4
REMARK    4  A    between atoms: C_4  and  C_6
REMARK    5  A    between atoms: C_7  and  C_8
REMARK    6  A    between atoms: C_13  and  C_14
REMARK    7  A    between atoms: C_17  and  N_18
REMARK    8  A    between atoms: N_21  and  C_22
REMARK                            x       y       z     vdW  Elec       q    Type
REMARK                         _______ _______ _______ _____ _____    ______ ____
ROOT
ATOM      1  C   UNL     1       2.705   6.567  19.529  0.00  0.00    +0.000 A 
ATOM      2  C   UNL     1       2.714   7.463  18.453  0.00  0.00    +0.000 A 
ATOM      3  C   UNL     1       1.948   8.629  18.498  0.00  0.00    +0.000 A 
ATOM      4  C   UNL     1       1.153   8.928  19.609  0.00  0.00    +0.000 A 
ATOM      5  C   UNL     1       1.146   8.044  20.689  0.00  0.00    +0.000 A 
ATOM      6  C   UNL     1       1.911   6.873  20.649  0.00  0.00    +0.000 A 
ENDROOT
BRANCH   1  14
ATOM      7  C   UNL     1       3.276   4.253  18.508  0.00  0.00    +0.000 C 
ATOM      8  C   UNL     1       4.270   3.608  17.851  0.00  0.00    +0.000 C 
ATOM      9  C   UNL     1       4.160   2.450  16.893  0.00  0.00    +0.000 C 
ATOM     10  N   UNL     1       5.576   4.006  18.061  0.00  0.00    +0.000 N 
ATOM     11  C   UNL     1       5.950   5.099  18.778  0.00  0.00    +0.000 C 
ATOM     12  S   UNL     1       7.534   5.583  18.857  0.00  0.00    +0.000 S 
ATOM     13  N   UNL     1       4.967   5.796  19.389  0.00  0.00    +0.000 N 
ATOM     14  C   UNL     1       3.591   5.331  19.523  0.00  0.00    +0.000 C 
ATOM     15  H   UNL     1       6.322   3.525  17.573  0.00  0.00    +0.000 HD
ATOM     16  H   UNL     1       5.250   6.616  19.910  0.00  0.00    +0.000 HD
BRANCH   7  17
ATOM     17  C   UNL     1       1.850   3.885  18.288  0.00  0.00    +0.000 C 
ATOM     18  O   UNL     1       1.123   4.404  17.454  0.00  0.00    +0.000 OA
BRANCH  17  19
ATOM     19  O   UNL     1       1.455   2.910  19.148  0.00  0.00    +0.000 OA
BRANCH  19  21
ATOM     20  C   UNL     1       1.562   2.803  21.598  0.00  0.00    +0.000 C 
ATOM     21  C   UNL     1       0.863   3.376  20.373  0.00  0.00    +0.000 C 
ENDBRANCH  19  21
ENDBRANCH  17  19
ENDBRANCH   7  17
ENDBRANCH   1  14
BRANCH   4  22
ATOM     22  N   UNL     1       0.395  10.116  19.699  0.00  0.00    +0.000 N 
ATOM     23  C   UNL     1       0.136  10.794  20.874  0.00  0.00    +0.000 C 
ATOM     24  O   UNL     1       0.698  10.581  21.944  0.00  0.00    +0.000 OA
ATOM     25  N   UNL     1      -0.871  11.737  20.709  0.00  0.00    +0.000 N 
ATOM     26  H   UNL     1       0.245  10.639  18.847  0.00  0.00    +0.000 HD
ATOM     27  H   UNL     1      -1.590  11.452  20.057  0.00  0.00    +0.000 HD
BRANCH  25  28
ATOM     28  C   UNL     1      -1.269  12.566  21.781  0.00  0.00    +0.000 A 
ATOM     29  C   UNL     1      -0.528  13.703  22.132  0.00  0.00    +0.000 A 
ATOM     30  C   UNL     1      -0.902  14.483  23.225  0.00  0.00    +0.000 A 
ATOM     31  C   UNL     1      -2.014  14.119  23.976  0.00  0.00    +0.000 A 
ATOM     32  F   UNL     1      -2.344  14.865  25.039  0.00  0.00    +0.000 F 
ATOM     33  C   UNL     1      -2.763  12.997  23.629  0.00  0.00    +0.000 A 
ATOM     34 CL   UNL     1      -4.115  12.521  24.584  0.00  0.00    +0.000 Cl
ATOM     35  C   UNL     1      -2.409  12.229  22.514  0.00  0.00    +0.000 A 
ENDBRANCH  25  28
ENDBRANCH   4  22
TORSDOF 6
ENDMDL
MODEL 6
REMARK VINA RESULT:      -8.4      2.740      3.893
REMARK  Name = 
REMARK  8 active torsions:
REMARK  status: ('A' for Active; 'I' for Inactive)
REMARK    1  A    between atoms: C_1  and  C_2
REMARK    2  A    between atoms: C_2  and  O_3
REMARK    3  A    between atoms: O_3  and  C_4
REMARK    4  A    between atoms: C_4  and  C_6
REMARK    5  A    between atoms: C_7  and  C_8
REMARK    6  A    between atoms: C_13  and  C_14
REMARK    7  A    between atoms: C_17  and  N_18
REMARK    8  A    between atoms: N_21  and  C_22
REMARK                            x       y       z     vdW  Elec       q    Type
REMARK                         _______ _______ _______ _____ _____    ______ ____
ROOT
ATOM      1  C   UNL     1       2.954   6.739  18.297  0.00  0.00    +0.000 A 
ATOM      2  C   UNL     1       2.742   7.794  17.400  0.00  0.00    +0.000 A 
ATOM      3  C   UNL     1       2.126   8.971  17.827  0.00  0.00    +0.000 A 
ATOM      4  C   UNL     1       1.701   9.125  19.151  0.00  0.00    +0.000 A 
ATOM      5  C   UNL     1       1.917   8.082  20.052  0.00  0.00    +0.000 A 
ATOM      6  C   UNL     1       2.533   6.898  19.630  0.00  0.00    +0.000 A 
ENDROOT
BRANCH   1  14
ATOM      7  C   UNL     1       5.168   5.604  17.568  0.00  0.00    +0.000 C 
ATOM      8  C   UNL     1       6.034   4.638  17.958  0.00  0.00    +0.000 C 
ATOM      9  C   UNL     1       7.511   4.534  17.672  0.00  0.00    +0.000 C 
ATOM     10  N   UNL     1       5.558   3.576  18.703  0.00  0.00    +0.000 N 
ATOM     11  C   UNL     1       4.298   3.481  19.204  0.00  0.00    +0.000 C 
ATOM     12  S   UNL     1       3.856   2.237  20.208  0.00  0.00    +0.000 S 
ATOM     13  N   UNL     1       3.435   4.468  18.880  0.00  0.00    +0.000 N 
ATOM     14  C   UNL     1       3.688   5.481  17.862  0.00  0.00    +0.000 C 
ATOM     15  H   UNL     1       6.203   2.851  18.995  0.00  0.00    +0.000 HD
ATOM     16  H   UNL     1       2.502   4.399  19.267  0.00  0.00    +0.000 HD
BRANCH   7  17
ATOM     17  C   UNL     1       5.639   6.787  16.796  0.00  0.00    +0.000 C 
ATOM     18  O   UNL     1       5.519   6.915  15.588  0.00  0.00    +0.000 OA
BRANCH  17  19
ATOM     19  O   UNL     1       6.236   7.698  17.608  0.00  0.00    +0.000 OA
BRANCH  19  21
ATOM     20  C   UNL     1       8.150   9.195  17.959  0.00  0.00    +0.000 C 
ATOM     21  C   UNL     1       7.649   7.869  17.404  0.00  0.00    +0.000 C 
ENDBRANCH  19  21
ENDBRANCH  17  19
ENDBRANCH   7  17
ENDBRANCH   1  14
BRANCH   4  22
ATOM     22  N   UNL     1       1.108  10.317  19.621  0.00  0.00    +0.000 N 
ATOM     23  C   UNL     1      -0.198  10.423  20.058  0.00  0.00    +0.000 C 
ATOM     24  O   UNL     1      -0.938   9.473  20.294  0.00  0.00    +0.000 OA
ATOM     25  N   UNL     1      -0.593  11.750  20.168  0.00  0.00    +0.000 N 
ATOM     26  H   UNL     1       1.726  11.069  19.894  0.00  0.00    +0.000 HD
ATOM     27  H   UNL     1      -0.187  12.355  19.466  0.00  0.00    +0.000 HD
BRANCH  25  28
ATOM     28  C   UNL     1      -1.886  12.085  20.631  0.00  0.00    +0.000 A 
ATOM     29  C   UNL     1      -2.926  12.367  19.735  0.00  0.00    +0.000 A 
ATOM     30  C   UNL     1      -4.182  12.748  20.205  0.00  0.00    +0.000 A 
ATOM     31  C   UNL     1      -4.396  12.856  21.574  0.00  0.00    +0.000 A 
ATOM     32  F   UNL     1      -5.602  13.248  22.007  0.00  0.00    +0.000 F 
ATOM     33  C   UNL     1      -3.371  12.566  22.472  0.00  0.00    +0.000 A 
ATOM     34 CL   UNL     1      -3.623  12.741  24.168  0.00  0.00    +0.000 Cl
ATOM     35  C   UNL     1      -2.119  12.155  22.006  0.00  0.00    +0.000 A 
ENDBRANCH  25  28
ENDBRANCH   4  22
TORSDOF 6
ENDMDL
MODEL 7
REMARK VINA RESULT:      -8.3      2.515      3.667
REMARK  Name = 
REMARK  8 active torsions:
REMARK  status: ('A' for Active; 'I' for Inactive)
REMARK    1  A    between atoms: C_1  and  C_2
REMARK    2  A    between atoms: C_2  and  O_3
REMARK    3  A    between atoms: O_3  and  C_4
REMARK    4  A    between atoms: C_4  and  C_6
REMARK    5  A    between atoms: C_7  and  C_8
REMARK    6  A    between atoms: C_13  and  C_14
REMARK    7  A    between atoms: C_17  and  N_18
REMARK    8  A    between atoms: N_21  and  C_22
REMARK                            x       y       z     vdW  Elec       q    Type
REMARK                         _______ _______ _______ _____ _____    ______ ____
ROOT
ATOM      1  C   UNL     1       2.917   6.765  18.283  0.00  0.00    +0.000 A 
ATOM      2  C   UNL     1       2.730   7.807  17.367  0.00  0.00    +0.000 A 
ATOM      3  C   UNL     1       2.132   9.002  17.769  0.00  0.00    +0.000 A 
ATOM      4  C   UNL     1       1.701   9.186  19.087  0.00  0.00    +0.000 A 
ATOM      5  C   UNL     1       1.893   8.156  20.007  0.00  0.00    +0.000 A 
ATOM      6  C   UNL     1       2.490   6.954  19.610  0.00  0.00    +0.000 A 
ENDROOT
BRANCH   1  14
ATOM      7  C   UNL     1       5.113   5.583  17.572  0.00  0.00    +0.000 C 
ATOM      8  C   UNL     1       5.968   4.615  17.981  0.00  0.00    +0.000 C 
ATOM      9  C   UNL     1       7.442   4.485  17.689  0.00  0.00    +0.000 C 
ATOM     10  N   UNL     1       5.482   3.578  18.753  0.00  0.00    +0.000 N 
ATOM     11  C   UNL     1       4.223   3.512  19.263  0.00  0.00    +0.000 C 
ATOM     12  S   UNL     1       3.770   2.299  20.298  0.00  0.00    +0.000 S 
ATOM     13  N   UNL     1       3.372   4.503  18.919  0.00  0.00    +0.000 N 
ATOM     14  C   UNL     1       3.633   5.486  17.875  0.00  0.00    +0.000 C 
ATOM     15  H   UNL     1       6.118   2.852  19.059  0.00  0.00    +0.000 HD
ATOM     16  H   UNL     1       2.440   4.455  19.312  0.00  0.00    +0.000 HD
BRANCH   7  17
ATOM     17  C   UNL     1       5.595   6.741  16.769  0.00  0.00    +0.000 C 
ATOM     18  O   UNL     1       5.478   6.837  15.557  0.00  0.00    +0.000 OA
BRANCH  17  19
ATOM     19  O   UNL     1       6.199   7.668  17.557  0.00  0.00    +0.000 OA
BRANCH  19  21
ATOM     20  C   UNL     1       8.142   9.113  17.961  0.00  0.00    +0.000 C 
ATOM     21  C   UNL     1       7.612   7.825  17.347  0.00  0.00    +0.000 C 
ENDBRANCH  19  21
ENDBRANCH  17  19
ENDBRANCH   7  17
ENDBRANCH   1  14
BRANCH   4  22
ATOM     22  N   UNL     1       1.125  10.396  19.532  0.00  0.00    +0.000 N 
ATOM     23  C   UNL     1      -0.110  10.499  20.144  0.00  0.00    +0.000 C 
ATOM     24  O   UNL     1      -0.762   9.551  20.568  0.00  0.00    +0.000 OA
ATOM     25  N   UNL     1      -0.547  11.816  20.194  0.00  0.00    +0.000 N 
ATOM     26  H   UNL     1       1.739  11.191  19.644  0.00  0.00    +0.000 HD
ATOM     27  H   UNL     1      -0.273  12.366  19.389  0.00  0.00    +0.000 HD
BRANCH  25  28
ATOM     28  C   UNL     1      -1.774  12.148  20.809  0.00  0.00    +0.000 A 
ATOM     29  C   UNL     1      -1.904  12.162  22.205  0.00  0.00    +0.000 A 
ATOM     30  C   UNL     1      -3.135  12.440  22.799  0.00  0.00    +0.000 A 
ATOM     31  C   UNL     1      -4.241  12.695  21.996  0.00  0.00    +0.000 A 
ATOM     32  F   UNL     1      -5.420  12.934  22.583  0.00  0.00    +0.000 F 
ATOM     33  C   UNL     1      -4.118  12.694  20.608  0.00  0.00    +0.000 A 
ATOM     34 CL   UNL     1      -5.496  12.968  19.611  0.00  0.00    +0.000 Cl
ATOM     35  C   UNL     1      -2.879  12.446  20.008  0.00  0.00    +0.000 A 
ENDBRANCH  25  28
ENDBRANCH   4  22
TORSDOF 6
ENDMDL
MODEL 8
REMARK VINA RESULT:      -8.3      3.090      3.455
REMARK  Name = 
REMARK  8 active torsions:
REMARK  status: ('A' for Active; 'I' for Inactive)
REMARK    1  A    between atoms: C_1  and  C_2
REMARK    2  A    between atoms: C_2  and  O_3
REMARK    3  A    between atoms: O_3  and  C_4
REMARK    4  A    between atoms: C_4  and  C_6
REMARK    5  A    between atoms: C_7  and  C_8
REMARK    6  A    between atoms: C_13  and  C_14
REMARK    7  A    between atoms: C_17  and  N_18
REMARK    8  A    between atoms: N_21  and  C_22
REMARK                            x       y       z     vdW  Elec       q    Type
REMARK                         _______ _______ _______ _____ _____    ______ ____
ROOT
ATOM      1  C   UNL     1       2.577   6.964  19.262  0.00  0.00    +0.000 A 
ATOM      2  C   UNL     1       2.588   7.606  18.017  0.00  0.00    +0.000 A 
ATOM      3  C   UNL     1       1.864   8.783  17.823  0.00  0.00    +0.000 A 
ATOM      4  C   UNL     1       1.109   9.345  18.857  0.00  0.00    +0.000 A 
ATOM      5  C   UNL     1       1.101   8.717  20.103  0.00  0.00    +0.000 A 
ATOM      6  C   UNL     1       1.823   7.535  20.303  0.00  0.00    +0.000 A 
ENDROOT
BRANCH   1  14
ATOM      7  C   UNL     1       3.045   4.465  18.751  0.00  0.00    +0.000 C 
ATOM      8  C   UNL     1       4.000   3.657  18.233  0.00  0.00    +0.000 C 
ATOM      9  C   UNL     1       3.829   2.326  17.545  0.00  0.00    +0.000 C 
ATOM     10  N   UNL     1       5.324   4.041  18.333  0.00  0.00    +0.000 N 
ATOM     11  C   UNL     1       5.751   5.246  18.795  0.00  0.00    +0.000 C 
ATOM     12  S   UNL     1       7.353   5.675  18.746  0.00  0.00    +0.000 S 
ATOM     13  N   UNL     1       4.807   6.094  19.257  0.00  0.00    +0.000 N 
ATOM     14  C   UNL     1       3.419   5.722  19.507  0.00  0.00    +0.000 C 
ATOM     15  H   UNL     1       6.042   3.438  17.949  0.00  0.00    +0.000 HD
ATOM     16  H   UNL     1       5.130   6.995  19.587  0.00  0.00    +0.000 HD
BRANCH   7  17
ATOM     17  C   UNL     1       1.602   4.114  18.635  0.00  0.00    +0.000 C 
ATOM     18  O   UNL     1       1.004   3.988  17.577  0.00  0.00    +0.000 OA
BRANCH  17  19
ATOM     19  O   UNL     1       1.031   3.971  19.860  0.00  0.00    +0.000 OA
BRANCH  19  21
ATOM     20  C   UNL     1       2.018   2.783  21.768  0.00  0.00    +0.000 C 
ATOM     21  C   UNL     1       1.218   2.685  20.476  0.00  0.00    +0.000 C 
ENDBRANCH  19  21
ENDBRANCH  17  19
ENDBRANCH   7  17
ENDBRANCH   1  14
BRANCH   4  22
ATOM     22  N   UNL     1       0.395  10.554  18.702  0.00  0.00    +0.000 N 
ATOM     23  C   UNL     1       0.843  11.790  19.125  0.00  0.00    +0.000 C 
ATOM     24  O   UNL     1       1.989  12.032  19.489  0.00  0.00    +0.000 OA
ATOM     25  N   UNL     1      -0.177  12.732  19.121  0.00  0.00    +0.000 N 
ATOM     26  H   UNL     1      -0.360  10.566  18.030  0.00  0.00    +0.000 HD
ATOM     27  H   UNL     1      -1.082  12.352  19.364  0.00  0.00    +0.000 HD
BRANCH  25  28
ATOM     28  C   UNL     1       0.075  14.073  19.488  0.00  0.00    +0.000 A 
ATOM     29  C   UNL     1       0.365  14.418  20.815  0.00  0.00    +0.000 A 
ATOM     30  C   UNL     1       0.559  15.752  21.174  0.00  0.00    +0.000 A 
ATOM     31  C   UNL     1       0.453  16.743  20.205  0.00  0.00    +0.000 A 
ATOM     32  F   UNL     1       0.616  18.021  20.573  0.00  0.00    +0.000 F 
ATOM     33  C   UNL     1       0.175  16.408  18.881  0.00  0.00    +0.000 A 
ATOM     34 CL   UNL     1       0.000  17.639  17.688  0.00  0.00    +0.000 Cl
ATOM     35  C   UNL     1       0.010  15.069  18.511  0.00  0.00    +0.000 A 
ENDBRANCH  25  28
ENDBRANCH   4  22
TORSDOF 6
ENDMDL
MODEL 9
REMARK VINA RESULT:      -8.3      1.331      1.832
REMARK  Name = 
REMARK  8 active torsions:
REMARK  status: ('A' for Active; 'I' for Inactive)
REMARK    1  A    between atoms: C_1  and  C_2
REMARK    2  A    between atoms: C_2  and  O_3
REMARK    3  A    between atoms: O_3  and  C_4
REMARK    4  A    between atoms: C_4  and  C_6
REMARK    5  A    between atoms: C_7  and  C_8
REMARK    6  A    between atoms: C_13  and  C_14
REMARK    7  A    between atoms: C_17  and  N_18
REMARK    8  A    between atoms: N_21  and  C_22
REMARK                            x       y       z     vdW  Elec       q    Type
REMARK                         _______ _______ _______ _____ _____    ______ ____
ROOT
ATOM      1  C   UNL     1       2.766   6.755  19.198  0.00  0.00    +0.000 A 
ATOM      2  C   UNL     1       2.792   7.443  17.979  0.00  0.00    +0.000 A 
ATOM      3  C   UNL     1       2.115   8.655  17.837  0.00  0.00    +0.000 A 
ATOM      4  C   UNL     1       1.392   9.207  18.900  0.00  0.00    +0.000 A 
ATOM      5  C   UNL     1       1.369   8.531  20.120  0.00  0.00    +0.000 A 
ATOM      6  C   UNL     1       2.045   7.315  20.269  0.00  0.00    +0.000 A 
ENDROOT
BRANCH   1  14
ATOM      7  C   UNL     1       3.089   4.244  18.637  0.00  0.00    +0.000 C 
ATOM      8  C   UNL     1       3.978   3.399  18.063  0.00  0.00    +0.000 C 
ATOM      9  C   UNL     1       3.711   2.087  17.370  0.00  0.00    +0.000 C 
ATOM     10  N   UNL     1       5.322   3.719  18.101  0.00  0.00    +0.000 N 
ATOM     11  C   UNL     1       5.828   4.896  18.554  0.00  0.00    +0.000 C 
ATOM     12  S   UNL     1       7.444   5.250  18.430  0.00  0.00    +0.000 S 
ATOM     13  N   UNL     1       4.949   5.781  19.072  0.00  0.00    +0.000 N 
ATOM     14  C   UNL     1       3.560   5.471  19.387  0.00  0.00    +0.000 C 
ATOM     15  H   UNL     1       5.991   3.088  17.675  0.00  0.00    +0.000 HD
ATOM     16  H   UNL     1       5.331   6.662  19.395  0.00  0.00    +0.000 HD
BRANCH   7  17
ATOM     17  C   UNL     1       1.627   3.962  18.590  0.00  0.00    +0.000 C 
ATOM     18  O   UNL     1       0.971   3.885  17.562  0.00  0.00    +0.000 OA
BRANCH  17  19
ATOM     19  O   UNL     1       1.113   3.821  19.840  0.00  0.00    +0.000 OA
BRANCH  19  21
ATOM     20  C   UNL     1       1.949   2.761  21.889  0.00  0.00    +0.000 C 
ATOM     21  C   UNL     1       1.400   2.568  20.483  0.00  0.00    +0.000 C 
ENDBRANCH  19  21
ENDBRANCH  17  19
ENDBRANCH   7  17
ENDBRANCH   1  14
BRANCH   4  22
ATOM     22  N   UNL     1       0.726  10.448  18.798  0.00  0.00    +0.000 N 
ATOM     23  C   UNL     1      -0.410  10.789  19.507  0.00  0.00    +0.000 C 
ATOM     24  O   UNL     1      -0.858  10.157  20.457  0.00  0.00    +0.000 OA
ATOM     25  N   UNL     1      -1.011  11.929  18.989  0.00  0.00    +0.000 N 
ATOM     26  H   UNL     1       1.235  11.218  18.386  0.00  0.00    +0.000 HD
ATOM     27  H   UNL     1      -0.934  12.008  17.983  0.00  0.00    +0.000 HD
BRANCH  25  28
ATOM     28  C   UNL     1      -2.171  12.470  19.586  0.00  0.00    +0.000 A 
ATOM     29  C   UNL     1      -3.451  12.067  19.181  0.00  0.00    +0.000 A 
ATOM     30  C   UNL     1      -4.588  12.648  19.742  0.00  0.00    +0.000 A 
ATOM     31  C   UNL     1      -4.444  13.642  20.704  0.00  0.00    +0.000 A 
ATOM     32  F   UNL     1      -5.547  14.207  21.213  0.00  0.00    +0.000 F 
ATOM     33  C   UNL     1      -3.176  14.040  21.121  0.00  0.00    +0.000 A 
ATOM     34 CL   UNL     1      -2.997  15.301  22.282  0.00  0.00    +0.000 Cl
ATOM     35  C   UNL     1      -2.034  13.439  20.583  0.00  0.00    +0.000 A 
ENDBRANCH  25  28
ENDBRANCH   4  22
TORSDOF 6
ENDMDL
