MODEL 1
REMARK VINA RESULT:      -7.2      0.000      0.000
REMARK  Name = 
REMARK  11 active torsions:
REMARK  status: ('A' for Active; 'I' for Inactive)
REMARK    1  A    between atoms: C_1  and  C_2
REMARK    2  A    between atoms: C_2  and  N_3
REMARK    3  A    between atoms: N_3  and  C_4
REMARK    4  A    between atoms: N_3  and  C_6
REMARK    5  A    between atoms: C_4  and  C_5
REMARK    6  A    between atoms: C_6  and  C_7
REMARK    7  A    between atoms: C_7  and  N_8
REMARK    8  A    between atoms: C_9  and  C_10
REMARK    9  A    between atoms: C_10  and  C_11
REMARK   10  A    between atoms: C_15  and  O_16
REMARK   11  A    between atoms: O_16  and  C_17
REMARK                            x       y       z     vdW  Elec       q    Type
REMARK                         _______ _______ _______ _____ _____    ______ ____
ROOT
ATOM      1  N   UNL     1       2.214   6.326  19.942  0.00  0.00    +0.000 N 
ATOM      2  C   UNL     1       2.645   6.263  18.626  0.00  0.00    +0.000 A 
ATOM      3  N   UNL     1       2.472   7.430  18.031  0.00  0.00    +0.000 NA
ATOM      4  C   UNL     1       1.882   8.250  18.948  0.00  0.00    +0.000 A 
ATOM      5  C   UNL     1       1.460   9.579  18.802  0.00  0.00    +0.000 A 
ATOM      6  C   UNL     1       0.879  10.227  19.897  0.00  0.00    +0.000 A 
ATOM      7  C   UNL     1       0.725   9.561  21.114  0.00  0.00    +0.000 A 
ATOM      8  C   UNL     1       1.139   8.232  21.274  0.00  0.00    +0.000 A 
ATOM      9  C   UNL     1       1.714   7.595  20.163  0.00  0.00    +0.000 A 
ENDROOT
BRANCH   1  10
ATOM     10  C   UNL     1       2.234   5.261  20.936  0.00  0.00    +0.000 C 
BRANCH  10  11
ATOM     11  C   UNL     1       1.251   4.124  20.617  0.00  0.00    +0.000 C 
BRANCH  11  12
ATOM     12  N   UNL     1       1.773   2.748  20.805  0.00  0.00    +0.000 NA
BRANCH  12  14
ATOM     13  C   UNL     1       0.574   2.626  18.568  0.00  0.00    +0.000 C 
ATOM     14  C   UNL     1       1.477   1.950  19.596  0.00  0.00    +0.000 C 
ENDBRANCH  12  14
BRANCH  12  15
ATOM     15  C   UNL     1       3.185   2.688  21.218  0.00  0.00    +0.000 C 
ATOM     16  C   UNL     1       4.179   2.181  20.179  0.00  0.00    +0.000 C 
ENDBRANCH  12  15
ENDBRANCH  11  12
ENDBRANCH  10  11
ENDBRANCH   1  10
BRANCH   2  17
ATOM     17  C   UNL     1       3.274   5.061  17.977  0.00  0.00    +0.000 C 
BRANCH  17  18
ATOM     18  C   UNL     1       4.791   5.088  17.993  0.00  0.00    +0.000 A 
ATOM     19  C   UNL     1       5.486   5.436  19.162  0.00  0.00    +0.000 A 
ATOM     20  C   UNL     1       6.880   5.507  19.163  0.00  0.00    +0.000 A 
ATOM     21  C   UNL     1       7.590   5.241  17.992  0.00  0.00    +0.000 A 
ATOM     22  C   UNL     1       6.920   4.904  16.816  0.00  0.00    +0.000 A 
ATOM     23  C   UNL     1       5.523   4.825  16.821  0.00  0.00    +0.000 A 
BRANCH  22  24
ATOM     24  O   UNL     1       7.735   4.684  15.740  0.00  0.00    +0.000 OA
ATOM     25  C   UNL     1       7.134   4.764  14.456  0.00  0.00    +0.000 C 
ENDBRANCH  22  24
ENDBRANCH  17  18
ENDBRANCH   2  17
TORSDOF 8
ENDMDL
MODEL 2
REMARK VINA RESULT:      -7.0      1.003      1.702
REMARK  Name = 
REMARK  11 active torsions:
REMARK  status: ('A' for Active; 'I' for Inactive)
REMARK    1  A    between atoms: C_1  and  C_2
REMARK    2  A    between atoms: C_2  and  N_3
REMARK    3  A    between atoms: N_3  and  C_4
REMARK    4  A    between atoms: N_3  and  C_6
REMARK    5  A    between atoms: C_4  and  C_5
REMARK    6  A    between atoms: C_6  and  C_7
REMARK    7  A    between atoms: C_7  and  N_8
REMARK    8  A    between atoms: C_9  and  C_10
REMARK    9  A    between atoms: C_10  and  C_11
REMARK   10  A    between atoms: C_15  and  O_16
REMARK   11  A    between atoms: O_16  and  C_17
REMARK                            x       y       z     vdW  Elec       q    Type
REMARK                         _______ _______ _______ _____ _____    ______ ____
ROOT
ATOM      1  N   UNL     1       2.397   6.230  19.699  0.00  0.00    +0.000 N 
ATOM      2  C   UNL     1       2.930   5.971  18.446  0.00  0.00    +0.000 A 
ATOM      3  N   UNL     1       2.847   7.046  17.682  0.00  0.00    +0.000 NA
ATOM      4  C   UNL     1       2.213   8.000  18.422  0.00  0.00    +0.000 A 
ATOM      5  C   UNL     1       1.850   9.305  18.057  0.00  0.00    +0.000 A 
ATOM      6  C   UNL     1       1.205  10.114  18.997  0.00  0.00    +0.000 A 
ATOM      7  C   UNL     1       0.930   9.632  20.278  0.00  0.00    +0.000 A 
ATOM      8  C   UNL     1       1.284   8.329  20.656  0.00  0.00    +0.000 A 
ATOM      9  C   UNL     1       1.925   7.528  19.698  0.00  0.00    +0.000 A 
ENDROOT
BRANCH   1  10
ATOM     10  C   UNL     1       2.299   5.316  20.830  0.00  0.00    +0.000 C 
BRANCH  10  11
ATOM     11  C   UNL     1       1.258   4.206  20.616  0.00  0.00    +0.000 C 
BRANCH  11  12
ATOM     12  N   UNL     1       1.742   2.819  20.823  0.00  0.00    +0.000 NA
BRANCH  12  14
ATOM     13  C   UNL     1       0.547   2.678  18.585  0.00  0.00    +0.000 C 
ATOM     14  C   UNL     1       1.489   2.032  19.597  0.00  0.00    +0.000 C 
ENDBRANCH  12  14
BRANCH  12  15
ATOM     15  C   UNL     1       3.131   2.729  21.304  0.00  0.00    +0.000 C 
ATOM     16  C   UNL     1       4.155   2.159  20.328  0.00  0.00    +0.000 C 
ENDBRANCH  12  15
ENDBRANCH  11  12
ENDBRANCH  10  11
ENDBRANCH   1  10
BRANCH   2  17
ATOM     17  C   UNL     1       3.567   4.676  18.026  0.00  0.00    +0.000 C 
BRANCH  17  18
ATOM     18  C   UNL     1       4.733   4.855  17.072  0.00  0.00    +0.000 A 
ATOM     19  C   UNL     1       4.888   4.004  15.966  0.00  0.00    +0.000 A 
ATOM     20  C   UNL     1       5.987   4.139  15.116  0.00  0.00    +0.000 A 
ATOM     21  C   UNL     1       6.946   5.119  15.371  0.00  0.00    +0.000 A 
ATOM     22  C   UNL     1       6.819   5.969  16.469  0.00  0.00    +0.000 A 
ATOM     23  C   UNL     1       5.711   5.836  17.314  0.00  0.00    +0.000 A 
BRANCH  22  24
ATOM     24  O   UNL     1       7.836   6.872  16.611  0.00  0.00    +0.000 OA
ATOM     25  C   UNL     1       7.667   7.875  17.602  0.00  0.00    +0.000 C 
ENDBRANCH  22  24
ENDBRANCH  17  18
ENDBRANCH   2  17
TORSDOF 8
ENDMDL
MODEL 3
REMARK VINA RESULT:      -7.0      2.715      6.773
REMARK  Name = 
REMARK  11 active torsions:
REMARK  status: ('A' for Active; 'I' for Inactive)
REMARK    1  A    between atoms: C_1  and  C_2
REMARK    2  A    between atoms: C_2  and  N_3
REMARK    3  A    between atoms: N_3  and  C_4
REMARK    4  A    between atoms: N_3  and  C_6
REMARK    5  A    between atoms: C_4  and  C_5
REMARK    6  A    between atoms: C_6  and  C_7
REMARK    7  A    between atoms: C_7  and  N_8
REMARK    8  A    between atoms: C_9  and  C_10
REMARK    9  A    between atoms: C_10  and  C_11
REMARK   10  A    between atoms: C_15  and  O_16
REMARK   11  A    between atoms: O_16  and  C_17
REMARK                            x       y       z     vdW  Elec       q    Type
REMARK                         _______ _______ _______ _____ _____    ______ ____
ROOT
ATOM      1  N   UNL     1       4.261   5.210  18.605  0.00  0.00    +0.000 N 
ATOM      2  C   UNL     1       3.258   6.035  18.122  0.00  0.00    +0.000 A 
ATOM      3  N   UNL     1       2.164   5.334  17.883  0.00  0.00    +0.000 NA
ATOM      4  C   UNL     1       2.465   4.035  18.165  0.00  0.00    +0.000 A 
ATOM      5  C   UNL     1       1.659   2.894  18.042  0.00  0.00    +0.000 A 
ATOM      6  C   UNL     1       2.189   1.651  18.402  0.00  0.00    +0.000 A 
ATOM      7  C   UNL     1       3.497   1.549  18.878  0.00  0.00    +0.000 A 
ATOM      8  C   UNL     1       4.316   2.680  19.004  0.00  0.00    +0.000 A 
ATOM      9  C   UNL     1       3.770   3.918  18.632  0.00  0.00    +0.000 A 
ENDROOT
BRANCH   1  10
ATOM     10  C   UNL     1       5.614   5.587  18.992  0.00  0.00    +0.000 C 
BRANCH  10  11
ATOM     11  C   UNL     1       6.692   4.958  18.096  0.00  0.00    +0.000 C 
BRANCH  11  12
ATOM     12  N   UNL     1       7.261   5.844  17.052  0.00  0.00    +0.000 NA
BRANCH  12  14
ATOM     13  C   UNL     1       6.177   3.970  15.723  0.00  0.00    +0.000 C 
ATOM     14  C   UNL     1       6.902   5.312  15.720  0.00  0.00    +0.000 C 
ENDBRANCH  12  14
BRANCH  12  15
ATOM     15  C   UNL     1       6.933   7.269  17.224  0.00  0.00    +0.000 C 
ATOM     16  C   UNL     1       8.039   8.161  17.778  0.00  0.00    +0.000 C 
ENDBRANCH  12  15
ENDBRANCH  11  12
ENDBRANCH  10  11
ENDBRANCH   1  10
BRANCH   2  17
ATOM     17  C   UNL     1       3.370   7.525  17.949  0.00  0.00    +0.000 C 
BRANCH  17  18
ATOM     18  C   UNL     1       2.238   8.298  18.599  0.00  0.00    +0.000 A 
ATOM     19  C   UNL     1       1.590   9.332  17.907  0.00  0.00    +0.000 A 
ATOM     20  C   UNL     1       0.581  10.075  18.523  0.00  0.00    +0.000 A 
ATOM     21  C   UNL     1       0.219   9.796  19.841  0.00  0.00    +0.000 A 
ATOM     22  C   UNL     1       0.857   8.780  20.552  0.00  0.00    +0.000 A 
ATOM     23  C   UNL     1       1.862   8.032  19.928  0.00  0.00    +0.000 A 
BRANCH  22  24
ATOM     24  O   UNL     1       0.417   8.623  21.837  0.00  0.00    +0.000 OA
ATOM     25  C   UNL     1       0.217   9.808  22.595  0.00  0.00    +0.000 C 
ENDBRANCH  22  24
ENDBRANCH  17  18
ENDBRANCH   2  17
TORSDOF 8
ENDMDL
MODEL 4
REMARK VINA RESULT:      -6.9      1.479      2.071
REMARK  Name = 
REMARK  11 active torsions:
REMARK  status: ('A' for Active; 'I' for Inactive)
REMARK    1  A    between atoms: C_1  and  C_2
REMARK    2  A    between atoms: C_2  and  N_3
REMARK    3  A    between atoms: N_3  and  C_4
REMARK    4  A    between atoms: N_3  and  C_6
REMARK    5  A    between atoms: C_4  and  C_5
REMARK    6  A    between atoms: C_6  and  C_7
REMARK    7  A    between atoms: C_7  and  N_8
REMARK    8  A    between atoms: C_9  and  C_10
REMARK    9  A    between atoms: C_10  and  C_11
REMARK   10  A    between atoms: C_15  and  O_16
REMARK   11  A    between atoms: O_16  and  C_17
REMARK                            x       y       z     vdW  Elec       q    Type
REMARK                         _______ _______ _______ _____ _____    ______ ____
ROOT
ATOM      1  N   UNL     1       2.237   6.924  19.684  0.00  0.00    +0.000 N 
ATOM      2  C   UNL     1       2.697   7.004  18.379  0.00  0.00    +0.000 A 
ATOM      3  N   UNL     1       2.366   8.168  17.847  0.00  0.00    +0.000 NA
ATOM      4  C   UNL     1       1.644   8.835  18.792  0.00  0.00    +0.000 A 
ATOM      5  C   UNL     1       1.033  10.095  18.711  0.00  0.00    +0.000 A 
ATOM      6  C   UNL     1       0.342  10.583  19.824  0.00  0.00    +0.000 A 
ATOM      7  C   UNL     1       0.265   9.830  20.997  0.00  0.00    +0.000 A 
ATOM      8  C   UNL     1       0.867   8.568  21.092  0.00  0.00    +0.000 A 
ATOM      9  C   UNL     1       1.551   8.090  19.963  0.00  0.00    +0.000 A 
ENDROOT
BRANCH   1  10
ATOM     10  C   UNL     1       2.395   5.815  20.615  0.00  0.00    +0.000 C 
BRANCH  10  11
ATOM     11  C   UNL     1       1.724   4.521  20.127  0.00  0.00    +0.000 C 
BRANCH  11  12
ATOM     12  N   UNL     1       2.615   3.343  19.992  0.00  0.00    +0.000 NA
BRANCH  12  14
ATOM     13  C   UNL     1       1.465   2.417  22.059  0.00  0.00    +0.000 C 
ATOM     14  C   UNL     1       2.766   2.699  21.314  0.00  0.00    +0.000 C 
ENDBRANCH  12  14
BRANCH  12  15
ATOM     15  C   UNL     1       2.225   2.409  18.923  0.00  0.00    +0.000 C 
ATOM     16  C   UNL     1       0.741   2.349  18.578  0.00  0.00    +0.000 C 
ENDBRANCH  12  15
ENDBRANCH  11  12
ENDBRANCH  10  11
ENDBRANCH   1  10
BRANCH   2  17
ATOM     17  C   UNL     1       3.508   5.949  17.679  0.00  0.00    +0.000 C 
BRANCH  17  18
ATOM     18  C   UNL     1       4.997   6.047  17.955  0.00  0.00    +0.000 A 
ATOM     19  C   UNL     1       5.612   5.182  18.874  0.00  0.00    +0.000 A 
ATOM     20  C   UNL     1       6.972   5.304  19.163  0.00  0.00    +0.000 A 
ATOM     21  C   UNL     1       7.727   6.300  18.543  0.00  0.00    +0.000 A 
ATOM     22  C   UNL     1       7.136   7.178  17.635  0.00  0.00    +0.000 A 
ATOM     23  C   UNL     1       5.773   7.047  17.341  0.00  0.00    +0.000 A 
BRANCH  22  24
ATOM     24  O   UNL     1       7.985   8.114  17.114  0.00  0.00    +0.000 OA
ATOM     25  C   UNL     1       8.314   9.215  17.949  0.00  0.00    +0.000 C 
ENDBRANCH  22  24
ENDBRANCH  17  18
ENDBRANCH   2  17
TORSDOF 8
ENDMDL
MODEL 5
REMARK VINA RESULT:      -6.9      2.570      6.161
REMARK  Name = 
REMARK  11 active torsions:
REMARK  status: ('A' for Active; 'I' for Inactive)
REMARK    1  A    between atoms: C_1  and  C_2
REMARK    2  A    between atoms: C_2  and  N_3
REMARK    3  A    between atoms: N_3  and  C_4
REMARK    4  A    between atoms: N_3  and  C_6
REMARK    5  A    between atoms: C_4  and  C_5
REMARK    6  A    between atoms: C_6  and  C_7
REMARK    7  A    between atoms: C_7  and  N_8
REMARK    8  A    between atoms: C_9  and  C_10
REMARK    9  A    between atoms: C_10  and  C_11
REMARK   10  A    between atoms: C_15  and  O_16
REMARK   11  A    between atoms: O_16  and  C_17
REMARK                            x       y       z     vdW  Elec       q    Type
REMARK                         _______ _______ _______ _____ _____    ______ ____
ROOT
ATOM      1  N   UNL     1       3.754   4.720  17.313  0.00  0.00    +0.000 N 
ATOM      2  C   UNL     1       4.055   5.634  18.311  0.00  0.00    +0.000 A 
ATOM      3  N   UNL     1       5.252   6.155  18.109  0.00  0.00    +0.000 NA
ATOM      4  C   UNL     1       5.758   5.546  16.998  0.00  0.00    +0.000 A 
ATOM      5  C   UNL     1       7.009   5.719  16.389  0.00  0.00    +0.000 A 
ATOM      6  C   UNL     1       7.308   4.980  15.240  0.00  0.00    +0.000 A 
ATOM      7  C   UNL     1       6.375   4.089  14.708  0.00  0.00    +0.000 A 
ATOM      8  C   UNL     1       5.122   3.902  15.308  0.00  0.00    +0.000 A 
ATOM      9  C   UNL     1       4.842   4.647  16.465  0.00  0.00    +0.000 A 
ENDROOT
BRANCH   1  10
ATOM     10  C   UNL     1       2.537   3.933  17.167  0.00  0.00    +0.000 C 
BRANCH  10  11
ATOM     11  C   UNL     1       2.689   2.493  17.682  0.00  0.00    +0.000 C 
BRANCH  11  12
ATOM     12  N   UNL     1       1.918   2.160  18.904  0.00  0.00    +0.000 NA
BRANCH  12  14
ATOM     13  C   UNL     1       4.308   2.316  19.753  0.00  0.00    +0.000 C 
ATOM     14  C   UNL     1       2.861   1.909  20.015  0.00  0.00    +0.000 C 
ENDBRANCH  12  14
BRANCH  12  15
ATOM     15  C   UNL     1       0.862   3.131  19.236  0.00  0.00    +0.000 C 
ATOM     16  C   UNL     1       0.875   3.694  20.654  0.00  0.00    +0.000 C 
ENDBRANCH  12  15
ENDBRANCH  11  12
ENDBRANCH  10  11
ENDBRANCH   1  10
BRANCH   2  17
ATOM     17  C   UNL     1       3.135   6.025  19.434  0.00  0.00    +0.000 C 
BRANCH  17  18
ATOM     18  C   UNL     1       2.390   7.323  19.183  0.00  0.00    +0.000 A 
ATOM     19  C   UNL     1       2.396   7.915  17.910  0.00  0.00    +0.000 A 
ATOM     20  C   UNL     1       1.751   9.133  17.692  0.00  0.00    +0.000 A 
ATOM     21  C   UNL     1       1.102   9.775  18.746  0.00  0.00    +0.000 A 
ATOM     22  C   UNL     1       1.091   9.211  20.022  0.00  0.00    +0.000 A 
ATOM     23  C   UNL     1       1.732   7.985  20.235  0.00  0.00    +0.000 A 
BRANCH  22  24
ATOM     24  O   UNL     1       0.434   9.951  20.965  0.00  0.00    +0.000 OA
ATOM     25  C   UNL     1      -0.704  10.680  20.527  0.00  0.00    +0.000 C 
ENDBRANCH  22  24
ENDBRANCH  17  18
ENDBRANCH   2  17
TORSDOF 8
ENDMDL
MODEL 6
REMARK VINA RESULT:      -6.8      2.057      3.708
REMARK  Name = 
REMARK  11 active torsions:
REMARK  status: ('A' for Active; 'I' for Inactive)
REMARK    1  A    between atoms: C_1  and  C_2
REMARK    2  A    between atoms: C_2  and  N_3
REMARK    3  A    between atoms: N_3  and  C_4
REMARK    4  A    between atoms: N_3  and  C_6
REMARK    5  A    between atoms: C_4  and  C_5
REMARK    6  A    between atoms: C_6  and  C_7
REMARK    7  A    between atoms: C_7  and  N_8
REMARK    8  A    between atoms: C_9  and  C_10
REMARK    9  A    between atoms: C_10  and  C_11
REMARK   10  A    between atoms: C_15  and  O_16
REMARK   11  A    between atoms: O_16  and  C_17
REMARK                            x       y       z     vdW  Elec       q    Type
REMARK                         _______ _______ _______ _____ _____    ______ ____
ROOT
ATOM      1  N   UNL     1       4.724   4.924  18.330  0.00  0.00    +0.000 N 
ATOM      2  C   UNL     1       5.499   5.199  17.215  0.00  0.00    +0.000 A 
ATOM      3  N   UNL     1       5.178   6.378  16.713  0.00  0.00    +0.000 NA
ATOM      4  C   UNL     1       4.155   6.859  17.475  0.00  0.00    +0.000 A 
ATOM      5  C   UNL     1       3.435   8.055  17.335  0.00  0.00    +0.000 A 
ATOM      6  C   UNL     1       2.419   8.342  18.251  0.00  0.00    +0.000 A 
ATOM      7  C   UNL     1       2.128   7.455  19.288  0.00  0.00    +0.000 A 
ATOM      8  C   UNL     1       2.836   6.254  19.440  0.00  0.00    +0.000 A 
ATOM      9  C   UNL     1       3.848   5.979  18.507  0.00  0.00    +0.000 A 
ENDROOT
BRANCH   1  10
ATOM     10  C   UNL     1       4.766   3.736  19.172  0.00  0.00    +0.000 C 
BRANCH  10  11
ATOM     11  C   UNL     1       3.851   2.609  18.665  0.00  0.00    +0.000 C 
BRANCH  11  12
ATOM     12  N   UNL     1       2.775   2.184  19.593  0.00  0.00    +0.000 NA
BRANCH  12  14
ATOM     13  C   UNL     1       1.939   3.397  21.662  0.00  0.00    +0.000 C 
ATOM     14  C   UNL     1       3.084   2.683  20.950  0.00  0.00    +0.000 C 
ENDBRANCH  12  14
BRANCH  12  15
ATOM     15  C   UNL     1       1.416   2.521  19.137  0.00  0.00    +0.000 C 
ATOM     16  C   UNL     1       1.311   3.404  17.898  0.00  0.00    +0.000 C 
ENDBRANCH  12  15
ENDBRANCH  11  12
ENDBRANCH  10  11
ENDBRANCH   1  10
BRANCH   2  17
ATOM     17  C   UNL     1       6.592   4.315  16.680  0.00  0.00    +0.000 C 
BRANCH  17  18
ATOM     18  C   UNL     1       6.720   4.357  15.169  0.00  0.00    +0.000 A 
ATOM     19  C   UNL     1       7.675   5.184  14.557  0.00  0.00    +0.000 A 
ATOM     20  C   UNL     1       7.761   5.259  13.165  0.00  0.00    +0.000 A 
ATOM     21  C   UNL     1       6.885   4.515  12.374  0.00  0.00    +0.000 A 
ATOM     22  C   UNL     1       5.921   3.695  12.960  0.00  0.00    +0.000 A 
ATOM     23  C   UNL     1       5.844   3.616  14.356  0.00  0.00    +0.000 A 
BRANCH  22  24
ATOM     24  O   UNL     1       5.119   3.035  12.071  0.00  0.00    +0.000 OA
ATOM     25  C   UNL     1       5.694   1.929  11.389  0.00  0.00    +0.000 C 
ENDBRANCH  22  24
ENDBRANCH  17  18
ENDBRANCH   2  17
TORSDOF 8
ENDMDL
MODEL 7
REMARK VINA RESULT:      -6.7      2.721      6.701
REMARK  Name = 
REMARK  11 active torsions:
REMARK  status: ('A' for Active; 'I' for Inactive)
REMARK    1  A    between atoms: C_1  and  C_2
REMARK    2  A    between atoms: C_2  and  N_3
REMARK    3  A    between atoms: N_3  and  C_4
REMARK    4  A    between atoms: N_3  and  C_6
REMARK    5  A    between atoms: C_4  and  C_5
REMARK    6  A    between atoms: C_6  and  C_7
REMARK    7  A    between atoms: C_7  and  N_8
REMARK    8  A    between atoms: C_9  and  C_10
REMARK    9  A    between atoms: C_10  and  C_11
REMARK   10  A    between atoms: C_15  and  O_16
REMARK   11  A    between atoms: O_16  and  C_17
REMARK                            x       y       z     vdW  Elec       q    Type
REMARK                         _______ _______ _______ _____ _____    ______ ____
ROOT
ATOM      1  N   UNL     1       4.072   5.258  18.771  0.00  0.00    +0.000 N 
ATOM      2  C   UNL     1       3.082   6.024  18.177  0.00  0.00    +0.000 A 
ATOM      3  N   UNL     1       2.031   5.275  17.894  0.00  0.00    +0.000 NA
ATOM      4  C   UNL     1       2.351   4.002  18.262  0.00  0.00    +0.000 A 
ATOM      5  C   UNL     1       1.592   2.829  18.138  0.00  0.00    +0.000 A 
ATOM      6  C   UNL     1       2.133   1.624  18.597  0.00  0.00    +0.000 A 
ATOM      7  C   UNL     1       3.404   1.591  19.171  0.00  0.00    +0.000 A 
ATOM      8  C   UNL     1       4.176   2.754  19.299  0.00  0.00    +0.000 A 
ATOM      9  C   UNL     1       3.621   3.953  18.827  0.00  0.00    +0.000 A 
ENDROOT
BRANCH   1  10
ATOM     10  C   UNL     1       5.380   5.701  19.236  0.00  0.00    +0.000 C 
BRANCH  10  11
ATOM     11  C   UNL     1       6.541   4.948  18.566  0.00  0.00    +0.000 C 
BRANCH  11  12
ATOM     12  N   UNL     1       6.973   5.469  17.247  0.00  0.00    +0.000 NA
BRANCH  12  14
ATOM     13  C   UNL     1       6.970   4.856  14.782  0.00  0.00    +0.000 C 
ATOM     14  C   UNL     1       6.414   4.610  16.182  0.00  0.00    +0.000 C 
ENDBRANCH  12  14
BRANCH  12  15
ATOM     15  C   UNL     1       6.705   6.903  17.047  0.00  0.00    +0.000 C 
ATOM     16  C   UNL     1       7.751   7.874  17.587  0.00  0.00    +0.000 C 
ENDBRANCH  12  15
ENDBRANCH  11  12
ENDBRANCH  10  11
ENDBRANCH   1  10
BRANCH   2  17
ATOM     17  C   UNL     1       3.159   7.507  17.937  0.00  0.00    +0.000 C 
BRANCH  17  18
ATOM     18  C   UNL     1       2.141   8.304  18.731  0.00  0.00    +0.000 A 
ATOM     19  C   UNL     1       1.902   8.010  20.083  0.00  0.00    +0.000 A 
ATOM     20  C   UNL     1       0.931   8.711  20.800  0.00  0.00    +0.000 A 
ATOM     21  C   UNL     1       0.183   9.704  20.168  0.00  0.00    +0.000 A 
ATOM     22  C   UNL     1       0.396  10.006  18.824  0.00  0.00    +0.000 A 
ATOM     23  C   UNL     1       1.377   9.307  18.110  0.00  0.00    +0.000 A 
BRANCH  22  24
ATOM     24  O   UNL     1      -0.414  10.989  18.326  0.00  0.00    +0.000 OA
ATOM     25  C   UNL     1      -1.462  11.444  19.172  0.00  0.00    +0.000 C 
ENDBRANCH  22  24
ENDBRANCH  17  18
ENDBRANCH   2  17
TORSDOF 8
ENDMDL
MODEL 8
REMARK VINA RESULT:      -6.7      2.827      6.971
REMARK  Name = 
REMARK  11 active torsions:
REMARK  status: ('A' for Active; 'I' for Inactive)
REMARK    1  A    between atoms: C_1  and  C_2
REMARK    2  A    between atoms: C_2  and  N_3
REMARK    3  A    between atoms: N_3  and  C_4
REMARK    4  A    between atoms: N_3  and  C_6
REMARK    5  A    between atoms: C_4  and  C_5
REMARK    6  A    between atoms: C_6  and  C_7
REMARK    7  A    between atoms: C_7  and  N_8
REMARK    8  A    between atoms: C_9  and  C_10
REMARK    9  A    between atoms: C_10  and  C_11
REMARK   10  A    between atoms: C_15  and  O_16
REMARK   11  A    between atoms: O_16  and  C_17
REMARK                            x       y       z     vdW  Elec       q    Type
REMARK                         _______ _______ _______ _____ _____    ______ ____
ROOT
ATOM      1  N   UNL     1       3.482   6.262  18.204  0.00  0.00    +0.000 N 
ATOM      2  C   UNL     1       2.642   7.234  18.725  0.00  0.00    +0.000 A 
ATOM      3  N   UNL     1       2.040   6.784  19.812  0.00  0.00    +0.000 NA
ATOM      4  C   UNL     1       2.452   5.495  19.979  0.00  0.00    +0.000 A 
ATOM      5  C   UNL     1       2.076   4.568  20.962  0.00  0.00    +0.000 A 
ATOM      6  C   UNL     1       2.642   3.289  20.935  0.00  0.00    +0.000 A 
ATOM      7  C   UNL     1       3.566   2.944  19.948  0.00  0.00    +0.000 A 
ATOM      8  C   UNL     1       3.949   3.858  18.957  0.00  0.00    +0.000 A 
ATOM      9  C   UNL     1       3.366   5.135  18.995  0.00  0.00    +0.000 A 
ENDROOT
BRANCH   1  10
ATOM     10  C   UNL     1       4.325   6.358  17.020  0.00  0.00    +0.000 C 
BRANCH  10  11
ATOM     11  C   UNL     1       5.819   6.494  17.357  0.00  0.00    +0.000 C 
BRANCH  11  12
ATOM     12  N   UNL     1       6.709   5.461  16.774  0.00  0.00    +0.000 NA
BRANCH  12  14
ATOM     13  C   UNL     1       7.704   5.742  19.095  0.00  0.00    +0.000 C 
ATOM     14  C   UNL     1       7.538   4.876  17.849  0.00  0.00    +0.000 C 
ENDBRANCH  12  14
BRANCH  12  15
ATOM     15  C   UNL     1       6.012   4.455  15.955  0.00  0.00    +0.000 C 
ATOM     16  C   UNL     1       6.531   4.252  14.536  0.00  0.00    +0.000 C 
ENDBRANCH  12  15
ENDBRANCH  11  12
ENDBRANCH  10  11
ENDBRANCH   1  10
BRANCH   2  17
ATOM     17  C   UNL     1       2.477   8.623  18.174  0.00  0.00    +0.000 C 
BRANCH  17  18
ATOM     18  C   UNL     1       1.239   9.335  18.686  0.00  0.00    +0.000 A 
ATOM     19  C   UNL     1       0.157   9.592  17.830  0.00  0.00    +0.000 A 
ATOM     20  C   UNL     1      -0.961  10.290  18.289  0.00  0.00    +0.000 A 
ATOM     21  C   UNL     1      -1.002  10.747  19.606  0.00  0.00    +0.000 A 
ATOM     22  C   UNL     1       0.066  10.513  20.472  0.00  0.00    +0.000 A 
ATOM     23  C   UNL     1       1.182   9.805  20.010  0.00  0.00    +0.000 A 
BRANCH  22  24
ATOM     24  O   UNL     1      -0.098  11.028  21.728  0.00  0.00    +0.000 OA
ATOM     25  C   UNL     1      -0.518  10.124  22.740  0.00  0.00    +0.000 C 
ENDBRANCH  22  24
ENDBRANCH  17  18
ENDBRANCH   2  17
TORSDOF 8
ENDMDL
MODEL 9
REMARK VINA RESULT:      -6.7      1.734      2.056
REMARK  Name = 
REMARK  11 active torsions:
REMARK  status: ('A' for Active; 'I' for Inactive)
REMARK    1  A    between atoms: C_1  and  C_2
REMARK    2  A    between atoms: C_2  and  N_3
REMARK    3  A    between atoms: N_3  and  C_4
REMARK    4  A    between atoms: N_3  and  C_6
REMARK    5  A    between atoms: C_4  and  C_5
REMARK    6  A    between atoms: C_6  and  C_7
REMARK    7  A    between atoms: C_7  and  N_8
REMARK    8  A    between atoms: C_9  and  C_10
REMARK    9  A    between atoms: C_10  and  C_11
REMARK   10  A    between atoms: C_15  and  O_16
REMARK   11  A    between atoms: O_16  and  C_17
REMARK                            x       y       z     vdW  Elec       q    Type
REMARK                         _______ _______ _______ _____ _____    ______ ____
ROOT
ATOM      1  N   UNL     1       2.351   6.821  19.404  0.00  0.00    +0.000 N 
ATOM      2  C   UNL     1       2.893   7.171  18.177  0.00  0.00    +0.000 A 
ATOM      3  N   UNL     1       2.580   8.419  17.878  0.00  0.00    +0.000 NA
ATOM      4  C   UNL     1       1.791   8.875  18.891  0.00  0.00    +0.000 A 
ATOM      5  C   UNL     1       1.169  10.125  19.033  0.00  0.00    +0.000 A 
ATOM      6  C   UNL     1       0.401  10.371  20.176  0.00  0.00    +0.000 A 
ATOM      7  C   UNL     1       0.260   9.391  21.159  0.00  0.00    +0.000 A 
ATOM      8  C   UNL     1       0.872   8.136  21.030  0.00  0.00    +0.000 A 
ATOM      9  C   UNL     1       1.633   7.904  19.873  0.00  0.00    +0.000 A 
ENDROOT
BRANCH   1  10
ATOM     10  C   UNL     1       2.465   5.543  20.094  0.00  0.00    +0.000 C 
BRANCH  10  11
ATOM     11  C   UNL     1       1.673   4.418  19.407  0.00  0.00    +0.000 C 
BRANCH  11  12
ATOM     12  N   UNL     1       2.148   3.039  19.675  0.00  0.00    +0.000 NA
BRANCH  12  14
ATOM     13  C   UNL     1       2.721   3.001  17.200  0.00  0.00    +0.000 C 
ATOM     14  C   UNL     1       3.120   2.652  18.631  0.00  0.00    +0.000 C 
ENDBRANCH  12  14
BRANCH  12  15
ATOM     15  C   UNL     1       2.640   2.824  21.046  0.00  0.00    +0.000 C 
ATOM     16  C   UNL     1       1.594   2.477  22.100  0.00  0.00    +0.000 C 
ENDBRANCH  12  15
ENDBRANCH  11  12
ENDBRANCH  10  11
ENDBRANCH   1  10
BRANCH   2  17
ATOM     17  C   UNL     1       3.762   6.284  17.329  0.00  0.00    +0.000 C 
BRANCH  17  18
ATOM     18  C   UNL     1       5.230   6.333  17.707  0.00  0.00    +0.000 A 
ATOM     19  C   UNL     1       5.777   5.371  18.572  0.00  0.00    +0.000 A 
ATOM     20  C   UNL     1       7.116   5.445  18.958  0.00  0.00    +0.000 A 
ATOM     21  C   UNL     1       7.918   6.486  18.491  0.00  0.00    +0.000 A 
ATOM     22  C   UNL     1       7.394   7.459  17.640  0.00  0.00    +0.000 A 
ATOM     23  C   UNL     1       6.053   7.377  17.248  0.00  0.00    +0.000 A 
BRANCH  22  24
ATOM     24  O   UNL     1       8.283   8.430  17.270  0.00  0.00    +0.000 OA
ATOM     25  C   UNL     1       8.477   9.501  18.183  0.00  0.00    +0.000 C 
ENDBRANCH  22  24
ENDBRANCH  17  18
ENDBRANCH   2  17
TORSDOF 8
ENDMDL
