MODEL 1
REMARK VINA RESULT:      -7.2      0.000      0.000
REMARK  Name = 
REMARK  10 active torsions:
REMARK  status: ('A' for Active; 'I' for Inactive)
REMARK    1  A    between atoms: C_1  and  C_2
REMARK    2  A    between atoms: C_2  and  C_3
REMARK    3  A    between atoms: C_2  and  O_4
REMARK    4  A    between atoms: O_4  and  C_5
REMARK    5  A    between atoms: C_10  and  N_11
REMARK    6  A    between atoms: N_14  and  C_15
REMARK    7  A    between atoms: C_18  and  N_19
REMARK    8  A    between atoms: N_19  and  S_20
REMARK    9  A    between atoms: S_20  and  C_23
REMARK   10  A    between atoms: C_28  and  C_29
REMARK                            x       y       z     vdW  Elec       q    Type
REMARK                         _______ _______ _______ _____ _____    ______ ____
ROOT
ATOM      1  C   UNL     1       1.093  11.151  20.351  0.00  0.00    +0.000 C 
ATOM      2  C   UNL     1       1.619  12.300  19.451  0.00  0.00    +0.000 C 
ATOM      3  C   UNL     1       0.567  13.238  18.831  0.00  0.00    +0.000 C 
ATOM      4  C   UNL     1      -0.609  13.641  19.742  0.00  0.00    +0.000 C 
ATOM      5  C   UNL     1      -1.086  12.424  20.523  0.00  0.00    +0.000 C 
ATOM      6  C   UNL     1       0.065  11.794  21.312  0.00  0.00    +0.000 C 
ENDROOT
BRANCH   1  10
ATOM      7  N   UNL     1       2.001   7.744  18.542  0.00  0.00    +0.000 N 
ATOM      8  C   UNL     1       1.884   9.008  17.798  0.00  0.00    +0.000 C 
ATOM      9  C   UNL     1       0.605   9.766  18.271  0.00  0.00    +0.000 C 
ATOM     10  N   UNL     1       0.433   9.988  19.723  0.00  0.00    +0.000 NA
ATOM     11  C   UNL     1       0.745   8.714  20.437  0.00  0.00    +0.000 C 
ATOM     12  C   UNL     1       2.040   7.988  19.999  0.00  0.00    +0.000 C 
BRANCH   7  18
ATOM     13  C   UNL     1       2.707   5.328  18.360  0.00  0.00    +0.000 A 
ATOM     14  C   UNL     1       3.576   4.409  17.741  0.00  0.00    +0.000 A 
ATOM     15  C   UNL     1       4.688   4.839  17.020  0.00  0.00    +0.000 A 
ATOM     16  C   UNL     1       4.932   6.195  16.891  0.00  0.00    +0.000 A 
ATOM     17  C   UNL     1       4.021   7.110  17.425  0.00  0.00    +0.000 A 
ATOM     18  C   UNL     1       2.862   6.713  18.132  0.00  0.00    +0.000 A 
BRANCH  13  19
ATOM     19  O   UNL     1       1.689   4.883  19.173  0.00  0.00    +0.000 OA
BRANCH  19  21
ATOM     20  C   UNL     1       1.713   3.430  21.185  0.00  0.00    +0.000 C 
ATOM     21  C   UNL     1       1.810   3.529  19.658  0.00  0.00    +0.000 C 
ATOM     22  C   UNL     1       0.675   2.726  19.024  0.00  0.00    +0.000 C 
ENDBRANCH  19  21
ENDBRANCH  13  19
ENDBRANCH   7  18
ENDBRANCH   1  10
BRANCH   4  23
ATOM     23  N   UNL     1      -0.234  14.764  20.649  0.00  0.00    +0.000 NA
ATOM     24  H   UNL     1       0.534  14.583  21.302  0.00  0.00    +0.000 HD
BRANCH  23  25
ATOM     25  S   UNL     1      -0.044  16.322  19.989  0.00  0.00    +0.000 S 
ATOM     26  O   UNL     1      -0.942  16.422  18.863  0.00  0.00    +0.000 OA
ATOM     27  O   UNL     1      -0.096  17.282  21.069  0.00  0.00    +0.000 OA
BRANCH  25  28
ATOM     28  C   UNL     1       1.610  16.287  19.333  0.00  0.00    +0.000 A 
ATOM     29  C   UNL     1       1.833  16.752  18.025  0.00  0.00    +0.000 A 
ATOM     30  C   UNL     1       3.128  16.797  17.507  0.00  0.00    +0.000 A 
ATOM     31  C   UNL     1       4.195  16.331  18.270  0.00  0.00    +0.000 A 
ATOM     32  C   UNL     1       3.971  15.836  19.558  0.00  0.00    +0.000 A 
ATOM     33  C   UNL     1       2.680  15.816  20.106  0.00  0.00    +0.000 A 
BRANCH  33  34
ATOM     34  C   UNL     1       2.524  15.375  21.458  0.00  0.00    +0.000 C 
ATOM     35  N   UNL     1       2.369  15.059  22.565  0.00  0.00    +0.000 NA
ENDBRANCH  33  34
ENDBRANCH  25  28
ENDBRANCH  23  25
ENDBRANCH   4  23
TORSDOF 8
ENDMDL
MODEL 2
REMARK VINA RESULT:      -7.1      1.081      1.466
REMARK  Name = 
REMARK  10 active torsions:
REMARK  status: ('A' for Active; 'I' for Inactive)
REMARK    1  A    between atoms: C_1  and  C_2
REMARK    2  A    between atoms: C_2  and  C_3
REMARK    3  A    between atoms: C_2  and  O_4
REMARK    4  A    between atoms: O_4  and  C_5
REMARK    5  A    between atoms: C_10  and  N_11
REMARK    6  A    between atoms: N_14  and  C_15
REMARK    7  A    between atoms: C_18  and  N_19
REMARK    8  A    between atoms: N_19  and  S_20
REMARK    9  A    between atoms: S_20  and  C_23
REMARK   10  A    between atoms: C_28  and  C_29
REMARK                            x       y       z     vdW  Elec       q    Type
REMARK                         _______ _______ _______ _____ _____    ______ ____
ROOT
ATOM      1  C   UNL     1       1.003  11.148  20.515  0.00  0.00    +0.000 C 
ATOM      2  C   UNL     1       1.522  12.348  19.680  0.00  0.00    +0.000 C 
ATOM      3  C   UNL     1       0.463  13.302  19.096  0.00  0.00    +0.000 C 
ATOM      4  C   UNL     1      -0.728  13.643  20.013  0.00  0.00    +0.000 C 
ATOM      5  C   UNL     1      -1.196  12.382  20.726  0.00  0.00    +0.000 C 
ATOM      6  C   UNL     1      -0.044  11.728  21.495  0.00  0.00    +0.000 C 
ENDROOT
BRANCH   1  10
ATOM      7  N   UNL     1       1.977   7.867  18.518  0.00  0.00    +0.000 N 
ATOM      8  C   UNL     1       1.835   9.169  17.846  0.00  0.00    +0.000 C 
ATOM      9  C   UNL     1       0.540   9.873  18.360  0.00  0.00    +0.000 C 
ATOM     10  N   UNL     1       0.366  10.009  19.823  0.00  0.00    +0.000 NA
ATOM     11  C   UNL     1       0.704   8.704  20.464  0.00  0.00    +0.000 C 
ATOM     12  C   UNL     1       2.013   8.030  19.986  0.00  0.00    +0.000 C 
BRANCH   7  18
ATOM     13  C   UNL     1       2.693   5.479  18.131  0.00  0.00    +0.000 A 
ATOM     14  C   UNL     1       3.593   4.623  17.467  0.00  0.00    +0.000 A 
ATOM     15  C   UNL     1       4.740   5.117  16.851  0.00  0.00    +0.000 A 
ATOM     16  C   UNL     1       4.989   6.478  16.870  0.00  0.00    +0.000 A 
ATOM     17  C   UNL     1       4.052   7.339  17.446  0.00  0.00    +0.000 A 
ATOM     18  C   UNL     1       2.859   6.879  18.051  0.00  0.00    +0.000 A 
BRANCH  13  19
ATOM     19  O   UNL     1       1.636   4.960  18.843  0.00  0.00    +0.000 OA
BRANCH  19  21
ATOM     20  C   UNL     1       2.036   4.255  21.189  0.00  0.00    +0.000 C 
ATOM     21  C   UNL     1       1.941   3.849  19.713  0.00  0.00    +0.000 C 
ATOM     22  C   UNL     1       0.822   2.825  19.540  0.00  0.00    +0.000 C 
ENDBRANCH  19  21
ENDBRANCH  13  19
ENDBRANCH   7  18
ENDBRANCH   1  10
BRANCH   4  23
ATOM     23  N   UNL     1      -0.378  14.724  20.979  0.00  0.00    +0.000 NA
ATOM     24  H   UNL     1       0.619  14.853  21.173  0.00  0.00    +0.000 HD
BRANCH  23  25
ATOM     25  S   UNL     1      -1.111  16.250  20.799  0.00  0.00    +0.000 S 
ATOM     26  O   UNL     1      -2.487  16.024  20.425  0.00  0.00    +0.000 OA
ATOM     27  O   UNL     1      -0.776  17.053  21.955  0.00  0.00    +0.000 OA
BRANCH  25  28
ATOM     28  C   UNL     1      -0.289  16.931  19.374  0.00  0.00    +0.000 A 
ATOM     29  C   UNL     1      -1.068  17.466  18.332  0.00  0.00    +0.000 A 
ATOM     30  C   UNL     1      -0.451  18.065  17.232  0.00  0.00    +0.000 A 
ATOM     31  C   UNL     1       0.937  18.085  17.143  0.00  0.00    +0.000 A 
ATOM     32  C   UNL     1       1.712  17.522  18.162  0.00  0.00    +0.000 A 
ATOM     33  C   UNL     1       1.109  16.947  19.290  0.00  0.00    +0.000 A 
BRANCH  33  34
ATOM     34  C   UNL     1       1.954  16.462  20.337  0.00  0.00    +0.000 C 
ATOM     35  N   UNL     1       2.629  16.110  21.216  0.00  0.00    +0.000 NA
ENDBRANCH  33  34
ENDBRANCH  25  28
ENDBRANCH  23  25
ENDBRANCH   4  23
TORSDOF 8
ENDMDL
MODEL 3
REMARK VINA RESULT:      -7.1      4.066     10.512
REMARK  Name = 
REMARK  10 active torsions:
REMARK  status: ('A' for Active; 'I' for Inactive)
REMARK    1  A    between atoms: C_1  and  C_2
REMARK    2  A    between atoms: C_2  and  C_3
REMARK    3  A    between atoms: C_2  and  O_4
REMARK    4  A    between atoms: O_4  and  C_5
REMARK    5  A    between atoms: C_10  and  N_11
REMARK    6  A    between atoms: N_14  and  C_15
REMARK    7  A    between atoms: C_18  and  N_19
REMARK    8  A    between atoms: N_19  and  S_20
REMARK    9  A    between atoms: S_20  and  C_23
REMARK   10  A    between atoms: C_28  and  C_29
REMARK                            x       y       z     vdW  Elec       q    Type
REMARK                         _______ _______ _______ _____ _____    ______ ____
ROOT
ATOM      1  C   UNL     1      -0.784   9.875  21.130  0.00  0.00    +0.000 C 
ATOM      2  C   UNL     1      -0.280   9.608  19.687  0.00  0.00    +0.000 C 
ATOM      3  C   UNL     1       1.234   9.389  19.506  0.00  0.00    +0.000 C 
ATOM      4  C   UNL     1       1.934   8.539  20.584  0.00  0.00    +0.000 C 
ATOM      5  C   UNL     1       1.413   8.934  21.959  0.00  0.00    +0.000 C 
ATOM      6  C   UNL     1      -0.112   8.807  22.024  0.00  0.00    +0.000 C 
ENDROOT
BRANCH   1  10
ATOM      7  N   UNL     1      -2.741  13.050  22.469  0.00  0.00    +0.000 N 
ATOM      8  C   UNL     1      -2.330  12.931  21.061  0.00  0.00    +0.000 C 
ATOM      9  C   UNL     1      -0.858  12.417  20.997  0.00  0.00    +0.000 C 
ATOM     10  N   UNL     1      -0.525  11.189  21.752  0.00  0.00    +0.000 NA
ATOM     11  C   UNL     1      -1.127  11.292  23.115  0.00  0.00    +0.000 C 
ATOM     12  C   UNL     1      -2.603  11.758  23.172  0.00  0.00    +0.000 C 
BRANCH   7  18
ATOM     13  C   UNL     1      -5.233  13.395  22.662  0.00  0.00    +0.000 A 
ATOM     14  C   UNL     1      -6.265  14.149  23.255  0.00  0.00    +0.000 A 
ATOM     15  C   UNL     1      -5.999  15.349  23.910  0.00  0.00    +0.000 A 
ATOM     16  C   UNL     1      -4.693  15.800  24.000  0.00  0.00    +0.000 A 
ATOM     17  C   UNL     1      -3.658  15.009  23.495  0.00  0.00    +0.000 A 
ATOM     18  C   UNL     1      -3.885  13.768  22.855  0.00  0.00    +0.000 A 
BRANCH  13  19
ATOM     19  O   UNL     1      -5.529  12.281  21.911  0.00  0.00    +0.000 OA
BRANCH  19  21
ATOM     20  C   UNL     1      -5.738  12.808  19.495  0.00  0.00    +0.000 C 
ATOM     21  C   UNL     1      -6.446  12.480  20.815  0.00  0.00    +0.000 C 
ATOM     22  C   UNL     1      -7.241  11.186  20.656  0.00  0.00    +0.000 C 
ENDBRANCH  19  21
ENDBRANCH  13  19
ENDBRANCH   7  18
ENDBRANCH   1  10
BRANCH   4  23
ATOM     23  N   UNL     1       1.757   7.081  20.326  0.00  0.00    +0.000 NA
ATOM     24  H   UNL     1       0.792   6.751  20.231  0.00  0.00    +0.000 HD
BRANCH  23  25
ATOM     25  S   UNL     1       2.716   6.338  19.132  0.00  0.00    +0.000 S 
ATOM     26  O   UNL     1       2.344   6.917  17.862  0.00  0.00    +0.000 OA
ATOM     27  O   UNL     1       4.091   6.351  19.581  0.00  0.00    +0.000 OA
BRANCH  25  28
ATOM     28  C   UNL     1       2.132   4.656  19.128  0.00  0.00    +0.000 A 
ATOM     29  C   UNL     1       1.118   4.287  20.030  0.00  0.00    +0.000 A 
ATOM     30  C   UNL     1       0.596   2.992  20.005  0.00  0.00    +0.000 A 
ATOM     31  C   UNL     1       1.117   2.052  19.123  0.00  0.00    +0.000 A 
ATOM     32  C   UNL     1       2.150   2.408  18.250  0.00  0.00    +0.000 A 
ATOM     33  C   UNL     1       2.663   3.713  18.238  0.00  0.00    +0.000 A 
BRANCH  33  34
ATOM     34  C   UNL     1       3.661   4.040  17.266  0.00  0.00    +0.000 C 
ATOM     35  N   UNL     1       4.480   4.256  16.471  0.00  0.00    +0.000 NA
ENDBRANCH  33  34
ENDBRANCH  25  28
ENDBRANCH  23  25
ENDBRANCH   4  23
TORSDOF 8
ENDMDL
MODEL 4
REMARK VINA RESULT:      -7.1      3.466      9.920
REMARK  Name = 
REMARK  10 active torsions:
REMARK  status: ('A' for Active; 'I' for Inactive)
REMARK    1  A    between atoms: C_1  and  C_2
REMARK    2  A    between atoms: C_2  and  C_3
REMARK    3  A    between atoms: C_2  and  O_4
REMARK    4  A    between atoms: O_4  and  C_5
REMARK    5  A    between atoms: C_10  and  N_11
REMARK    6  A    between atoms: N_14  and  C_15
REMARK    7  A    between atoms: C_18  and  N_19
REMARK    8  A    between atoms: N_19  and  S_20
REMARK    9  A    between atoms: S_20  and  C_23
REMARK   10  A    between atoms: C_28  and  C_29
REMARK                            x       y       z     vdW  Elec       q    Type
REMARK                         _______ _______ _______ _____ _____    ______ ____
ROOT
ATOM      1  C   UNL     1       1.908   8.531  19.792  0.00  0.00    +0.000 C 
ATOM      2  C   UNL     1       2.037   7.484  20.930  0.00  0.00    +0.000 C 
ATOM      3  C   UNL     1       1.737   6.017  20.566  0.00  0.00    +0.000 C 
ATOM      4  C   UNL     1       2.264   5.532  19.202  0.00  0.00    +0.000 C 
ATOM      5  C   UNL     1       2.022   6.608  18.152  0.00  0.00    +0.000 C 
ATOM      6  C   UNL     1       2.655   7.937  18.576  0.00  0.00    +0.000 C 
ENDROOT
BRANCH   1  10
ATOM      7  N   UNL     1      -0.475  11.696  19.701  0.00  0.00    +0.000 N 
ATOM      8  C   UNL     1      -0.455  10.775  20.849  0.00  0.00    +0.000 C 
ATOM      9  C   UNL     1      -0.459   9.305  20.327  0.00  0.00    +0.000 C 
ATOM     10  N   UNL     1       0.563   8.927  19.326  0.00  0.00    +0.000 NA
ATOM     11  C   UNL     1       0.623   9.994  18.284  0.00  0.00    +0.000 C 
ATOM     12  C   UNL     1       0.674  11.451  18.806  0.00  0.00    +0.000 C 
BRANCH   7  18
ATOM     13  C   UNL     1      -1.916  13.618  20.473  0.00  0.00    +0.000 A 
ATOM     14  C   UNL     1      -1.996  15.009  20.677  0.00  0.00    +0.000 A 
ATOM     15  C   UNL     1      -1.048  15.874  20.136  0.00  0.00    +0.000 A 
ATOM     16  C   UNL     1       0.006  15.356  19.403  0.00  0.00    +0.000 A 
ATOM     17  C   UNL     1       0.140  13.971  19.279  0.00  0.00    +0.000 A 
ATOM     18  C   UNL     1      -0.783  13.059  19.843  0.00  0.00    +0.000 A 
BRANCH  13  19
ATOM     19  O   UNL     1      -2.929  12.793  20.905  0.00  0.00    +0.000 OA
BRANCH  19  21
ATOM     20  C   UNL     1      -5.072  12.937  22.149  0.00  0.00    +0.000 C 
ATOM     21  C   UNL     1      -3.554  13.155  22.154  0.00  0.00    +0.000 C 
ATOM     22  C   UNL     1      -2.921  12.286  23.240  0.00  0.00    +0.000 C 
ENDBRANCH  19  21
ENDBRANCH  13  19
ENDBRANCH   7  18
ENDBRANCH   1  10
BRANCH   4  23
ATOM     23  N   UNL     1       3.704   5.151  19.279  0.00  0.00    +0.000 NA
ATOM     24  H   UNL     1       4.155   5.270  20.191  0.00  0.00    +0.000 HD
BRANCH  23  25
ATOM     25  S   UNL     1       4.196   3.668  18.604  0.00  0.00    +0.000 S 
ATOM     26  O   UNL     1       5.022   3.004  19.585  0.00  0.00    +0.000 OA
ATOM     27  O   UNL     1       3.032   3.015  18.047  0.00  0.00    +0.000 OA
BRANCH  25  28
ATOM     28  C   UNL     1       5.267   4.162  17.271  0.00  0.00    +0.000 A 
ATOM     29  C   UNL     1       4.896   3.853  15.951  0.00  0.00    +0.000 A 
ATOM     30  C   UNL     1       5.683   4.284  14.882  0.00  0.00    +0.000 A 
ATOM     31  C   UNL     1       6.866   4.974  15.127  0.00  0.00    +0.000 A 
ATOM     32  C   UNL     1       7.255   5.252  16.441  0.00  0.00    +0.000 A 
ATOM     33  C   UNL     1       6.458   4.856  17.525  0.00  0.00    +0.000 A 
BRANCH  33  34
ATOM     34  C   UNL     1       6.866   5.239  18.842  0.00  0.00    +0.000 C 
ATOM     35  N   UNL     1       7.188   5.502  19.927  0.00  0.00    +0.000 NA
ENDBRANCH  33  34
ENDBRANCH  25  28
ENDBRANCH  23  25
ENDBRANCH   4  23
TORSDOF 8
ENDMDL
MODEL 5
REMARK VINA RESULT:      -7.0      3.257      5.786
REMARK  Name = 
REMARK  10 active torsions:
REMARK  status: ('A' for Active; 'I' for Inactive)
REMARK    1  A    between atoms: C_1  and  C_2
REMARK    2  A    between atoms: C_2  and  C_3
REMARK    3  A    between atoms: C_2  and  O_4
REMARK    4  A    between atoms: O_4  and  C_5
REMARK    5  A    between atoms: C_10  and  N_11
REMARK    6  A    between atoms: N_14  and  C_15
REMARK    7  A    between atoms: C_18  and  N_19
REMARK    8  A    between atoms: N_19  and  S_20
REMARK    9  A    between atoms: S_20  and  C_23
REMARK   10  A    between atoms: C_28  and  C_29
REMARK                            x       y       z     vdW  Elec       q    Type
REMARK                         _______ _______ _______ _____ _____    ______ ____
ROOT
ATOM      1  C   UNL     1       0.016  10.270  18.725  0.00  0.00    +0.000 C 
ATOM      2  C   UNL     1      -1.133  10.096  19.753  0.00  0.00    +0.000 C 
ATOM      3  C   UNL     1      -1.248  11.162  20.858  0.00  0.00    +0.000 C 
ATOM      4  C   UNL     1      -1.007  12.622  20.425  0.00  0.00    +0.000 C 
ATOM      5  C   UNL     1       0.182  12.680  19.476  0.00  0.00    +0.000 C 
ATOM      6  C   UNL     1      -0.029  11.749  18.278  0.00  0.00    +0.000 C 
ENDROOT
BRANCH   1  10
ATOM      7  N   UNL     1       2.481   7.203  19.198  0.00  0.00    +0.000 N 
ATOM      8  C   UNL     1       1.584   7.648  20.276  0.00  0.00    +0.000 C 
ATOM      9  C   UNL     1       1.635   9.204  20.377  0.00  0.00    +0.000 C 
ATOM     10  N   UNL     1       1.404   9.982  19.140  0.00  0.00    +0.000 NA
ATOM     11  C   UNL     1       2.203   9.368  18.038  0.00  0.00    +0.000 C 
ATOM     12  C   UNL     1       2.113   7.827  17.911  0.00  0.00    +0.000 C 
BRANCH   7  18
ATOM     13  C   UNL     1       4.177   5.385  18.768  0.00  0.00    +0.000 A 
ATOM     14  C   UNL     1       4.451   4.005  18.833  0.00  0.00    +0.000 A 
ATOM     15  C   UNL     1       3.436   3.075  19.041  0.00  0.00    +0.000 A 
ATOM     16  C   UNL     1       2.134   3.516  19.209  0.00  0.00    +0.000 A 
ATOM     17  C   UNL     1       1.873   4.887  19.238  0.00  0.00    +0.000 A 
ATOM     18  C   UNL     1       2.883   5.863  19.066  0.00  0.00    +0.000 A 
BRANCH  13  19
ATOM     19  O   UNL     1       5.171   6.276  18.434  0.00  0.00    +0.000 OA
BRANCH  19  21
ATOM     20  C   UNL     1       5.187   6.375  15.955  0.00  0.00    +0.000 C 
ATOM     21  C   UNL     1       5.921   5.973  17.239  0.00  0.00    +0.000 C 
ATOM     22  C   UNL     1       7.238   6.741  17.332  0.00  0.00    +0.000 C 
ENDBRANCH  19  21
ENDBRANCH  13  19
ENDBRANCH   7  18
ENDBRANCH   1  10
BRANCH   4  23
ATOM     23  N   UNL     1      -2.230  13.216  19.813  0.00  0.00    +0.000 NA
ATOM     24  H   UNL     1      -2.503  12.847  18.897  0.00  0.00    +0.000 HD
BRANCH  23  25
ATOM     25  S   UNL     1      -3.623  13.396  20.775  0.00  0.00    +0.000 S 
ATOM     26  O   UNL     1      -3.351  12.767  22.045  0.00  0.00    +0.000 OA
ATOM     27  O   UNL     1      -4.047  14.777  20.705  0.00  0.00    +0.000 OA
BRANCH  25  28
ATOM     28  C   UNL     1      -4.828  12.386  19.941  0.00  0.00    +0.000 A 
ATOM     29  C   UNL     1      -4.494  11.814  18.700  0.00  0.00    +0.000 A 
ATOM     30  C   UNL     1      -5.395  10.965  18.054  0.00  0.00    +0.000 A 
ATOM     31  C   UNL     1      -6.646  10.728  18.614  0.00  0.00    +0.000 A 
ATOM     32  C   UNL     1      -6.993  11.324  19.831  0.00  0.00    +0.000 A 
ATOM     33  C   UNL     1      -6.087  12.152  20.509  0.00  0.00    +0.000 A 
BRANCH  33  34
ATOM     34  C   UNL     1      -6.467  12.667  21.789  0.00  0.00    +0.000 C 
ATOM     35  N   UNL     1      -6.799  13.124  22.804  0.00  0.00    +0.000 NA
ENDBRANCH  33  34
ENDBRANCH  25  28
ENDBRANCH  23  25
ENDBRANCH   4  23
TORSDOF 8
ENDMDL
MODEL 6
REMARK VINA RESULT:      -7.0      3.757     10.042
REMARK  Name = 
REMARK  10 active torsions:
REMARK  status: ('A' for Active; 'I' for Inactive)
REMARK    1  A    between atoms: C_1  and  C_2
REMARK    2  A    between atoms: C_2  and  C_3
REMARK    3  A    between atoms: C_2  and  O_4
REMARK    4  A    between atoms: O_4  and  C_5
REMARK    5  A    between atoms: C_10  and  N_11
REMARK    6  A    between atoms: N_14  and  C_15
REMARK    7  A    between atoms: C_18  and  N_19
REMARK    8  A    between atoms: N_19  and  S_20
REMARK    9  A    between atoms: S_20  and  C_23
REMARK   10  A    between atoms: C_28  and  C_29
REMARK                            x       y       z     vdW  Elec       q    Type
REMARK                         _______ _______ _______ _____ _____    ______ ____
ROOT
ATOM      1  C   UNL     1       0.162   9.792  19.988  0.00  0.00    +0.000 C 
ATOM      2  C   UNL     1       0.677   9.831  18.525  0.00  0.00    +0.000 C 
ATOM      3  C   UNL     1       2.055   9.200  18.253  0.00  0.00    +0.000 C 
ATOM      4  C   UNL     1       2.360   7.883  18.992  0.00  0.00    +0.000 C 
ATOM      5  C   UNL     1       1.875   7.984  20.431  0.00  0.00    +0.000 C 
ATOM      6  C   UNL     1       0.387   8.345  20.484  0.00  0.00    +0.000 C 
ENDROOT
BRANCH   1  10
ATOM      7  N   UNL     1      -0.877  12.629  22.552  0.00  0.00    +0.000 N 
ATOM      8  C   UNL     1      -0.546  12.936  21.151  0.00  0.00    +0.000 C 
ATOM      9  C   UNL     1       0.742  12.154  20.745  0.00  0.00    +0.000 C 
ATOM     10  N   UNL     1       0.766  10.695  20.989  0.00  0.00    +0.000 NA
ATOM     11  C   UNL     1       0.246  10.435  22.364  0.00  0.00    +0.000 C 
ATOM     12  C   UNL     1      -1.058  11.177  22.748  0.00  0.00    +0.000 C 
BRANCH   7  18
ATOM     13  C   UNL     1      -3.192  13.272  23.323  0.00  0.00    +0.000 A 
ATOM     14  C   UNL     1      -3.950  14.021  24.243  0.00  0.00    +0.000 A 
ATOM     15  C   UNL     1      -3.362  15.008  25.029  0.00  0.00    +0.000 A 
ATOM     16  C   UNL     1      -2.002  15.244  24.922  0.00  0.00    +0.000 A 
ATOM     17  C   UNL     1      -1.232  14.439  24.079  0.00  0.00    +0.000 A 
ATOM     18  C   UNL     1      -1.786  13.404  23.291  0.00  0.00    +0.000 A 
BRANCH  13  19
ATOM     19  O   UNL     1      -3.811  12.392  22.465  0.00  0.00    +0.000 OA
BRANCH  19  21
ATOM     20  C   UNL     1      -4.031  12.577  20.000  0.00  0.00    +0.000 C 
ATOM     21  C   UNL     1      -4.559  12.982  21.381  0.00  0.00    +0.000 C 
ATOM     22  C   UNL     1      -6.005  12.514  21.528  0.00  0.00    +0.000 C 
ENDBRANCH  19  21
ENDBRANCH  13  19
ENDBRANCH   7  18
ENDBRANCH   1  10
BRANCH   4  23
ATOM     23  N   UNL     1       1.757   6.713  18.289  0.00  0.00    +0.000 NA
ATOM     24  H   UNL     1       1.584   6.827  17.286  0.00  0.00    +0.000 HD
BRANCH  23  25
ATOM     25  S   UNL     1       2.408   5.166  18.568  0.00  0.00    +0.000 S 
ATOM     26  O   UNL     1       2.975   5.171  19.897  0.00  0.00    +0.000 OA
ATOM     27  O   UNL     1       1.420   4.181  18.185  0.00  0.00    +0.000 OA
BRANCH  25  28
ATOM     28  C   UNL     1       3.769   5.084  17.423  0.00  0.00    +0.000 A 
ATOM     29  C   UNL     1       4.270   6.279  16.877  0.00  0.00    +0.000 A 
ATOM     30  C   UNL     1       5.377   6.251  16.027  0.00  0.00    +0.000 A 
ATOM     31  C   UNL     1       5.952   5.033  15.678  0.00  0.00    +0.000 A 
ATOM     32  C   UNL     1       5.433   3.841  16.193  0.00  0.00    +0.000 A 
ATOM     33  C   UNL     1       4.343   3.854  17.075  0.00  0.00    +0.000 A 
BRANCH  33  34
ATOM     34  C   UNL     1       3.908   2.611  17.634  0.00  0.00    +0.000 C 
ATOM     35  N   UNL     1       3.526   1.627  18.121  0.00  0.00    +0.000 NA
ENDBRANCH  33  34
ENDBRANCH  25  28
ENDBRANCH  23  25
ENDBRANCH   4  23
TORSDOF 8
ENDMDL
MODEL 7
REMARK VINA RESULT:      -7.0      3.256      5.558
REMARK  Name = 
REMARK  10 active torsions:
REMARK  status: ('A' for Active; 'I' for Inactive)
REMARK    1  A    between atoms: C_1  and  C_2
REMARK    2  A    between atoms: C_2  and  C_3
REMARK    3  A    between atoms: C_2  and  O_4
REMARK    4  A    between atoms: O_4  and  C_5
REMARK    5  A    between atoms: C_10  and  N_11
REMARK    6  A    between atoms: N_14  and  C_15
REMARK    7  A    between atoms: C_18  and  N_19
REMARK    8  A    between atoms: N_19  and  S_20
REMARK    9  A    between atoms: S_20  and  C_23
REMARK   10  A    between atoms: C_28  and  C_29
REMARK                            x       y       z     vdW  Elec       q    Type
REMARK                         _______ _______ _______ _____ _____    ______ ____
ROOT
ATOM      1  C   UNL     1      -0.314   9.589  20.028  0.00  0.00    +0.000 C 
ATOM      2  C   UNL     1      -0.924   9.417  21.444  0.00  0.00    +0.000 C 
ATOM      3  C   UNL     1      -0.876  10.642  22.377  0.00  0.00    +0.000 C 
ATOM      4  C   UNL     1      -1.171  12.007  21.727  0.00  0.00    +0.000 C 
ATOM      5  C   UNL     1      -0.468  12.090  20.379  0.00  0.00    +0.000 C 
ATOM      6  C   UNL     1      -0.875  10.920  19.477  0.00  0.00    +0.000 C 
ENDROOT
BRANCH   1  10
ATOM      7  N   UNL     1       2.692   7.369  18.708  0.00  0.00    +0.000 N 
ATOM      8  C   UNL     1       2.206   7.270  20.094  0.00  0.00    +0.000 C 
ATOM      9  C   UNL     1       1.988   8.705  20.665  0.00  0.00    +0.000 C 
ATOM     10  N   UNL     1       1.155   9.640  19.877  0.00  0.00    +0.000 NA
ATOM     11  C   UNL     1       1.574   9.558  18.446  0.00  0.00    +0.000 C 
ATOM     12  C   UNL     1       1.745   8.132  17.869  0.00  0.00    +0.000 C 
BRANCH   7  18
ATOM     13  C   UNL     1       2.747   4.966  17.940  0.00  0.00    +0.000 A 
ATOM     14  C   UNL     1       3.364   4.025  17.093  0.00  0.00    +0.000 A 
ATOM     15  C   UNL     1       4.569   4.307  16.455  0.00  0.00    +0.000 A 
ATOM     16  C   UNL     1       5.162   5.544  16.639  0.00  0.00    +0.000 A 
ATOM     17  C   UNL     1       4.507   6.512  17.404  0.00  0.00    +0.000 A 
ATOM     18  C   UNL     1       3.265   6.275  18.038  0.00  0.00    +0.000 A 
BRANCH  13  19
ATOM     19  O   UNL     1       1.626   4.623  18.661  0.00  0.00    +0.000 OA
BRANCH  19  21
ATOM     20  C   UNL     1       1.454   3.659  20.941  0.00  0.00    +0.000 C 
ATOM     21  C   UNL     1       1.723   3.419  19.451  0.00  0.00    +0.000 C 
ATOM     22  C   UNL     1       0.688   2.439  18.901  0.00  0.00    +0.000 C 
ENDBRANCH  19  21
ENDBRANCH  13  19
ENDBRANCH   7  18
ENDBRANCH   1  10
BRANCH   4  23
ATOM     23  N   UNL     1      -2.638  12.243  21.597  0.00  0.00    +0.000 NA
ATOM     24  H   UNL     1      -3.241  11.425  21.724  0.00  0.00    +0.000 HD
BRANCH  23  25
ATOM     25  S   UNL     1      -3.328  13.572  22.407  0.00  0.00    +0.000 S 
ATOM     26  O   UNL     1      -2.734  13.629  23.722  0.00  0.00    +0.000 OA
ATOM     27  O   UNL     1      -3.285  14.715  21.521  0.00  0.00    +0.000 OA
BRANCH  25  28
ATOM     28  C   UNL     1      -5.025  13.080  22.624  0.00  0.00    +0.000 A 
ATOM     29  C   UNL     1      -5.613  13.210  23.895  0.00  0.00    +0.000 A 
ATOM     30  C   UNL     1      -6.960  12.893  24.080  0.00  0.00    +0.000 A 
ATOM     31  C   UNL     1      -7.707  12.398  23.016  0.00  0.00    +0.000 A 
ATOM     32  C   UNL     1      -7.115  12.236  21.760  0.00  0.00    +0.000 A 
ATOM     33  C   UNL     1      -5.773  12.581  21.549  0.00  0.00    +0.000 A 
BRANCH  33  34
ATOM     34  C   UNL     1      -5.245  12.471  20.224  0.00  0.00    +0.000 C 
ATOM     35  N   UNL     1      -4.781  12.418  19.159  0.00  0.00    +0.000 NA
ENDBRANCH  33  34
ENDBRANCH  25  28
ENDBRANCH  23  25
ENDBRANCH   4  23
TORSDOF 8
ENDMDL
MODEL 8
REMARK VINA RESULT:      -6.9      2.842      4.568
REMARK  Name = 
REMARK  10 active torsions:
REMARK  status: ('A' for Active; 'I' for Inactive)
REMARK    1  A    between atoms: C_1  and  C_2
REMARK    2  A    between atoms: C_2  and  C_3
REMARK    3  A    between atoms: C_2  and  O_4
REMARK    4  A    between atoms: O_4  and  C_5
REMARK    5  A    between atoms: C_10  and  N_11
REMARK    6  A    between atoms: N_14  and  C_15
REMARK    7  A    between atoms: C_18  and  N_19
REMARK    8  A    between atoms: N_19  and  S_20
REMARK    9  A    between atoms: S_20  and  C_23
REMARK   10  A    between atoms: C_28  and  C_29
REMARK                            x       y       z     vdW  Elec       q    Type
REMARK                         _______ _______ _______ _____ _____    ______ ____
ROOT
ATOM      1  C   UNL     1       1.207  10.429  20.982  0.00  0.00    +0.000 C 
ATOM      2  C   UNL     1       1.192  11.931  20.596  0.00  0.00    +0.000 C 
ATOM      3  C   UNL     1      -0.152  12.672  20.730  0.00  0.00    +0.000 C 
ATOM      4  C   UNL     1      -0.996  12.334  21.974  0.00  0.00    +0.000 C 
ATOM      5  C   UNL     1      -0.965  10.831  22.215  0.00  0.00    +0.000 C 
ATOM      6  C   UNL     1       0.476  10.327  22.340  0.00  0.00    +0.000 C 
ENDROOT
BRANCH   1  10
ATOM      7  N   UNL     1       2.198   7.443  18.571  0.00  0.00    +0.000 N 
ATOM      8  C   UNL     1       2.165   8.838  18.103  0.00  0.00    +0.000 C 
ATOM      9  C   UNL     1       0.865   9.525  18.625  0.00  0.00    +0.000 C 
ATOM     10  N   UNL     1       0.580   9.445  20.075  0.00  0.00    +0.000 NA
ATOM     11  C   UNL     1       0.809   8.041  20.527  0.00  0.00    +0.000 C 
ATOM     12  C   UNL     1       2.122   7.378  20.045  0.00  0.00    +0.000 C 
BRANCH   7  18
ATOM     13  C   UNL     1       2.816   5.118  17.811  0.00  0.00    +0.000 A 
ATOM     14  C   UNL     1       3.739   4.330  17.096  0.00  0.00    +0.000 A 
ATOM     15  C   UNL     1       4.978   4.838  16.712  0.00  0.00    +0.000 A 
ATOM     16  C   UNL     1       5.301   6.148  17.020  0.00  0.00    +0.000 A 
ATOM     17  C   UNL     1       4.353   6.959  17.647  0.00  0.00    +0.000 A 
ATOM     18  C   UNL     1       3.071   6.491  18.020  0.00  0.00    +0.000 A 
BRANCH  13  19
ATOM     19  O   UNL     1       1.653   4.562  18.292  0.00  0.00    +0.000 OA
BRANCH  19  21
ATOM     20  C   UNL     1       1.192   3.900  20.639  0.00  0.00    +0.000 C 
ATOM     21  C   UNL     1       1.808   3.527  19.286  0.00  0.00    +0.000 C 
ATOM     22  C   UNL     1       1.117   2.278  18.741  0.00  0.00    +0.000 C 
ENDBRANCH  19  21
ENDBRANCH  13  19
ENDBRANCH   7  18
ENDBRANCH   1  10
BRANCH   4  23
ATOM     23  N   UNL     1      -0.530  13.093  23.171  0.00  0.00    +0.000 NA
ATOM     24  H   UNL     1       0.483  13.127  23.320  0.00  0.00    +0.000 HD
BRANCH  23  25
ATOM     25  S   UNL     1      -1.187  14.634  23.469  0.00  0.00    +0.000 S 
ATOM     26  O   UNL     1      -0.710  15.060  24.764  0.00  0.00    +0.000 OA
ATOM     27  O   UNL     1      -0.978  15.452  22.294  0.00  0.00    +0.000 OA
BRANCH  25  28
ATOM     28  C   UNL     1      -2.929  14.310  23.637  0.00  0.00    +0.000 A 
ATOM     29  C   UNL     1      -3.354  12.993  23.886  0.00  0.00    +0.000 A 
ATOM     30  C   UNL     1      -4.708  12.718  24.086  0.00  0.00    +0.000 A 
ATOM     31  C   UNL     1      -5.644  13.743  23.987  0.00  0.00    +0.000 A 
ATOM     32  C   UNL     1      -5.226  15.048  23.705  0.00  0.00    +0.000 A 
ATOM     33  C   UNL     1      -3.867  15.346  23.535  0.00  0.00    +0.000 A 
BRANCH  33  34
ATOM     34  C   UNL     1      -3.493  16.712  23.330  0.00  0.00    +0.000 C 
ATOM     35  N   UNL     1      -3.157  17.817  23.205  0.00  0.00    +0.000 NA
ENDBRANCH  33  34
ENDBRANCH  25  28
ENDBRANCH  23  25
ENDBRANCH   4  23
TORSDOF 8
ENDMDL
MODEL 9
REMARK VINA RESULT:      -6.9      2.871      5.352
REMARK  Name = 
REMARK  10 active torsions:
REMARK  status: ('A' for Active; 'I' for Inactive)
REMARK    1  A    between atoms: C_1  and  C_2
REMARK    2  A    between atoms: C_2  and  C_3
REMARK    3  A    between atoms: C_2  and  O_4
REMARK    4  A    between atoms: O_4  and  C_5
REMARK    5  A    between atoms: C_10  and  N_11
REMARK    6  A    between atoms: N_14  and  C_15
REMARK    7  A    between atoms: C_18  and  N_19
REMARK    8  A    between atoms: N_19  and  S_20
REMARK    9  A    between atoms: S_20  and  C_23
REMARK   10  A    between atoms: C_28  and  C_29
REMARK                            x       y       z     vdW  Elec       q    Type
REMARK                         _______ _______ _______ _____ _____    ______ ____
ROOT
ATOM      1  C   UNL     1       0.437   9.659  19.077  0.00  0.00    +0.000 C 
ATOM      2  C   UNL     1      -0.678   9.787  20.148  0.00  0.00    +0.000 C 
ATOM      3  C   UNL     1      -0.515  10.905  21.195  0.00  0.00    +0.000 C 
ATOM      4  C   UNL     1       0.014  12.255  20.674  0.00  0.00    +0.000 C 
ATOM      5  C   UNL     1       1.147  12.010  19.687  0.00  0.00    +0.000 C 
ATOM      6  C   UNL     1       0.692  11.090  18.550  0.00  0.00    +0.000 C 
ENDROOT
BRANCH   1  10
ATOM      7  N   UNL     1       2.450   6.248  18.948  0.00  0.00    +0.000 N 
ATOM      8  C   UNL     1       1.552   6.575  20.067  0.00  0.00    +0.000 C 
ATOM      9  C   UNL     1       1.799   8.051  20.508  0.00  0.00    +0.000 C 
ATOM     10  N   UNL     1       1.748   9.099  19.464  0.00  0.00    +0.000 NA
ATOM     11  C   UNL     1       2.527   8.627  18.281  0.00  0.00    +0.000 C 
ATOM     12  C   UNL     1       2.247   7.177  17.817  0.00  0.00    +0.000 C 
BRANCH   7  18
ATOM     13  C   UNL     1       3.897   4.373  18.076  0.00  0.00    +0.000 A 
ATOM     14  C   UNL     1       4.005   2.986  17.861  0.00  0.00    +0.000 A 
ATOM     15  C   UNL     1       2.894   2.151  17.950  0.00  0.00    +0.000 A 
ATOM     16  C   UNL     1       1.663   2.692  18.279  0.00  0.00    +0.000 A 
ATOM     17  C   UNL     1       1.570   4.051  18.584  0.00  0.00    +0.000 A 
ATOM     18  C   UNL     1       2.682   4.924  18.539  0.00  0.00    +0.000 A 
BRANCH  13  19
ATOM     19  O   UNL     1       4.977   5.198  17.858  0.00  0.00    +0.000 OA
BRANCH  19  21
ATOM     20  C   UNL     1       7.211   4.606  16.955  0.00  0.00    +0.000 C 
ATOM     21  C   UNL     1       6.272   4.641  18.166  0.00  0.00    +0.000 C 
ATOM     22  C   UNL     1       6.886   5.516  19.258  0.00  0.00    +0.000 C 
ENDBRANCH  19  21
ENDBRANCH  13  19
ENDBRANCH   7  18
ENDBRANCH   1  10
BRANCH   4  23
ATOM     23  N   UNL     1      -1.078  13.070  20.067  0.00  0.00    +0.000 NA
ATOM     24  H   UNL     1      -1.340  12.832  19.107  0.00  0.00    +0.000 HD
BRANCH  23  25
ATOM     25  S   UNL     1      -2.490  13.351  20.975  0.00  0.00    +0.000 S 
ATOM     26  O   UNL     1      -2.351  12.632  22.219  0.00  0.00    +0.000 OA
ATOM     27  O   UNL     1      -2.762  14.772  20.963  0.00  0.00    +0.000 OA
BRANCH  25  28
ATOM     28  C   UNL     1      -3.752  12.520  20.033  0.00  0.00    +0.000 A 
ATOM     29  C   UNL     1      -3.393  11.878  18.834  0.00  0.00    +0.000 A 
ATOM     30  C   UNL     1      -4.348  11.164  18.108  0.00  0.00    +0.000 A 
ATOM     31  C   UNL     1      -5.669  11.133  18.545  0.00  0.00    +0.000 A 
ATOM     32  C   UNL     1      -6.035  11.801  19.717  0.00  0.00    +0.000 A 
ATOM     33  C   UNL     1      -5.081  12.494  20.477  0.00  0.00    +0.000 A 
BRANCH  33  34
ATOM     34  C   UNL     1      -5.497  13.088  21.710  0.00  0.00    +0.000 C 
ATOM     35  N   UNL     1      -5.883  13.573  22.693  0.00  0.00    +0.000 NA
ENDBRANCH  33  34
ENDBRANCH  25  28
ENDBRANCH  23  25
ENDBRANCH   4  23
TORSDOF 8
ENDMDL
