MODEL 1
REMARK VINA RESULT:      -7.2      0.000      0.000
REMARK  Name = 
REMARK  3 active torsions:
REMARK  status: ('A' for Active; 'I' for Inactive)
REMARK    1  A    between atoms: S_2  and  N_4
REMARK    2  A    between atoms: S_2  and  C_19
REMARK    3  A    between atoms: C_5  and  C_6
REMARK                            x       y       z     vdW  Elec       q    Type
REMARK                         _______ _______ _______ _____ _____    ______ ____
ROOT
ATOM      1  N   UNL     1       3.801   4.336  17.654  0.00  0.00    +0.000 NA
ATOM      2  C   UNL     1       4.056   5.568  18.019  0.00  0.00    +0.000 C 
ATOM      3  N   UNL     1       5.385   5.973  17.959  0.00  0.00    +0.000 N 
ATOM      4  C   UNL     1       5.825   7.186  17.263  0.00  0.00    +0.000 C 
ATOM      5  C   UNL     1       7.124   6.891  16.493  0.00  0.00    +0.000 C 
ATOM      6  O   UNL     1       8.143   6.364  17.361  0.00  0.00    +0.000 OA
ATOM      7  C   UNL     1       7.699   5.136  17.965  0.00  0.00    +0.000 C 
ATOM      8  C   UNL     1       6.427   5.357  18.792  0.00  0.00    +0.000 C 
ENDROOT
BRANCH   2   9
ATOM      9  C   UNL     1       3.052   6.575  18.549  0.00  0.00    +0.000 A 
ATOM     10  C   UNL     1       2.603   7.591  17.691  0.00  0.00    +0.000 A 
ATOM     11  C   UNL     1       1.762   8.606  18.165  0.00  0.00    +0.000 A 
ATOM     12  C   UNL     1       1.394   8.632  19.508  0.00  0.00    +0.000 A 
ATOM     13 CL   UNL     1       0.437   9.923  20.117  0.00  0.00    +0.000 Cl
ATOM     14  C   UNL     1       1.789   7.606  20.355  0.00  0.00    +0.000 A 
ATOM     15  C   UNL     1       2.567   6.556  19.859  0.00  0.00    +0.000 A 
ENDBRANCH   2   9
BRANCH   1  17
ATOM     16  O   UNL     1       1.315   4.625  17.373  0.00  0.00    +0.000 OA
ATOM     17  S   UNL     1       2.338   3.641  17.667  0.00  0.00    +0.000 S 
ATOM     18  O   UNL     1       2.398   2.390  16.933  0.00  0.00    +0.000 OA
BRANCH  17  19
ATOM     19  C   UNL     1       2.082   3.154  19.362  0.00  0.00    +0.000 A 
ATOM     20  C   UNL     1       3.156   2.677  20.114  0.00  0.00    +0.000 A 
ATOM     21  C   UNL     1       2.947   2.325  21.446  0.00  0.00    +0.000 A 
ATOM     22  C   UNL     1       1.680   2.462  22.023  0.00  0.00    +0.000 A 
ATOM     23  C   UNL     1       0.616   2.966  21.275  0.00  0.00    +0.000 A 
ATOM     24  C   UNL     1       0.811   3.322  19.944  0.00  0.00    +0.000 A 
ENDBRANCH  17  19
ENDBRANCH   1  17
TORSDOF 3
ENDMDL
MODEL 2
REMARK VINA RESULT:      -7.1      0.380      1.062
REMARK  Name = 
REMARK  3 active torsions:
REMARK  status: ('A' for Active; 'I' for Inactive)
REMARK    1  A    between atoms: S_2  and  N_4
REMARK    2  A    between atoms: S_2  and  C_19
REMARK    3  A    between atoms: C_5  and  C_6
REMARK                            x       y       z     vdW  Elec       q    Type
REMARK                         _______ _______ _______ _____ _____    ______ ____
ROOT
ATOM      1  N   UNL     1       3.636   4.155  17.444  0.00  0.00    +0.000 NA
ATOM      2  C   UNL     1       3.940   5.381  17.790  0.00  0.00    +0.000 C 
ATOM      3  N   UNL     1       5.254   5.782  17.570  0.00  0.00    +0.000 N 
ATOM      4  C   UNL     1       5.611   7.002  16.839  0.00  0.00    +0.000 C 
ATOM      5  C   UNL     1       6.803   6.712  15.911  0.00  0.00    +0.000 C 
ATOM      6  O   UNL     1       7.919   6.170  16.639  0.00  0.00    +0.000 OA
ATOM      7  C   UNL     1       7.546   4.936  17.279  0.00  0.00    +0.000 C 
ATOM      8  C   UNL     1       6.388   5.152  18.260  0.00  0.00    +0.000 C 
ENDROOT
BRANCH   2   9
ATOM      9  C   UNL     1       3.016   6.386  18.452  0.00  0.00    +0.000 A 
ATOM     10  C   UNL     1       2.508   7.443  17.680  0.00  0.00    +0.000 A 
ATOM     11  C   UNL     1       1.740   8.454  18.271  0.00  0.00    +0.000 A 
ATOM     12  C   UNL     1       1.504   8.434  19.643  0.00  0.00    +0.000 A 
ATOM     13 CL   UNL     1       0.640   9.718  20.390  0.00  0.00    +0.000 Cl
ATOM     14  C   UNL     1       1.957   7.369  20.409  0.00  0.00    +0.000 A 
ATOM     15  C   UNL     1       2.660   6.325  19.801  0.00  0.00    +0.000 A 
ENDBRANCH   2   9
BRANCH   1  17
ATOM     16  O   UNL     1       1.134   4.425  17.342  0.00  0.00    +0.000 OA
ATOM     17  S   UNL     1       2.182   3.466  17.630  0.00  0.00    +0.000 S 
ATOM     18  O   UNL     1       2.188   2.159  16.996  0.00  0.00    +0.000 OA
BRANCH  17  19
ATOM     19  C   UNL     1       2.066   3.115  19.374  0.00  0.00    +0.000 A 
ATOM     20  C   UNL     1       0.837   3.240  20.024  0.00  0.00    +0.000 A 
ATOM     21  C   UNL     1       0.756   2.937  21.382  0.00  0.00    +0.000 A 
ATOM     22  C   UNL     1       1.888   2.500  22.077  0.00  0.00    +0.000 A 
ATOM     23  C   UNL     1       3.107   2.350  21.417  0.00  0.00    +0.000 A 
ATOM     24  C   UNL     1       3.202   2.648  20.062  0.00  0.00    +0.000 A 
ENDBRANCH  17  19
ENDBRANCH   1  17
TORSDOF 3
ENDMDL
MODEL 3
REMARK VINA RESULT:      -7.0      6.165      9.676
REMARK  Name = 
REMARK  3 active torsions:
REMARK  status: ('A' for Active; 'I' for Inactive)
REMARK    1  A    between atoms: S_2  and  N_4
REMARK    2  A    between atoms: S_2  and  C_19
REMARK    3  A    between atoms: C_5  and  C_6
REMARK                            x       y       z     vdW  Elec       q    Type
REMARK                         _______ _______ _______ _____ _____    ______ ____
ROOT
ATOM      1  N   UNL     1       0.205  12.335  18.567  0.00  0.00    +0.000 NA
ATOM      2  C   UNL     1      -0.135  11.071  18.520  0.00  0.00    +0.000 C 
ATOM      3  N   UNL     1      -1.443  10.792  18.138  0.00  0.00    +0.000 N 
ATOM      4  C   UNL     1      -1.784   9.854  17.063  0.00  0.00    +0.000 C 
ATOM      5  C   UNL     1      -2.926  10.441  16.215  0.00  0.00    +0.000 C 
ATOM      6  O   UNL     1      -4.067  10.775  17.026  0.00  0.00    +0.000 OA
ATOM      7  C   UNL     1      -3.705  11.753  18.019  0.00  0.00    +0.000 C 
ATOM      8  C   UNL     1      -2.598  11.222  18.937  0.00  0.00    +0.000 C 
ENDROOT
BRANCH   2   9
ATOM      9  C   UNL     1       0.741   9.888  18.890  0.00  0.00    +0.000 A 
ATOM     10  C   UNL     1       1.493   9.267  17.880  0.00  0.00    +0.000 A 
ATOM     11  C   UNL     1       2.231   8.108  18.151  0.00  0.00    +0.000 A 
ATOM     12  C   UNL     1       2.193   7.542  19.423  0.00  0.00    +0.000 A 
ATOM     13 CL   UNL     1       3.022   6.071  19.739  0.00  0.00    +0.000 Cl
ATOM     14  C   UNL     1       1.495   8.174  20.442  0.00  0.00    +0.000 A 
ATOM     15  C   UNL     1       0.822   9.371  20.185  0.00  0.00    +0.000 A 
ENDBRANCH   2   9
BRANCH   1  17
ATOM     16  O   UNL     1       1.841  12.740  20.438  0.00  0.00    +0.000 OA
ATOM     17  S   UNL     1       1.659  12.895  19.008  0.00  0.00    +0.000 S 
ATOM     18  O   UNL     1       2.660  12.411  18.075  0.00  0.00    +0.000 OA
BRANCH  17  19
ATOM     19  C   UNL     1       1.579  14.651  18.708  0.00  0.00    +0.000 A 
ATOM     20  C   UNL     1       2.719  15.331  18.277  0.00  0.00    +0.000 A 
ATOM     21  C   UNL     1       2.635  16.698  18.021  0.00  0.00    +0.000 A 
ATOM     22  C   UNL     1       1.420  17.373  18.180  0.00  0.00    +0.000 A 
ATOM     23  C   UNL     1       0.277  16.683  18.584  0.00  0.00    +0.000 A 
ATOM     24  C   UNL     1       0.347  15.318  18.843  0.00  0.00    +0.000 A 
ENDBRANCH  17  19
ENDBRANCH   1  17
TORSDOF 3
ENDMDL
MODEL 4
REMARK VINA RESULT:      -7.0      0.923      1.663
REMARK  Name = 
REMARK  3 active torsions:
REMARK  status: ('A' for Active; 'I' for Inactive)
REMARK    1  A    between atoms: S_2  and  N_4
REMARK    2  A    between atoms: S_2  and  C_19
REMARK    3  A    between atoms: C_5  and  C_6
REMARK                            x       y       z     vdW  Elec       q    Type
REMARK                         _______ _______ _______ _____ _____    ______ ____
ROOT
ATOM      1  N   UNL     1       3.470   3.935  17.168  0.00  0.00    +0.000 NA
ATOM      2  C   UNL     1       3.918   5.143  17.401  0.00  0.00    +0.000 C 
ATOM      3  N   UNL     1       5.212   5.421  16.973  0.00  0.00    +0.000 N 
ATOM      4  C   UNL     1       5.551   6.576  16.136  0.00  0.00    +0.000 C 
ATOM      5  C   UNL     1       6.565   6.148  15.060  0.00  0.00    +0.000 C 
ATOM      6  O   UNL     1       7.731   5.542  15.646  0.00  0.00    +0.000 OA
ATOM      7  C   UNL     1       7.361   4.371  16.397  0.00  0.00    +0.000 C 
ATOM      8  C   UNL     1       6.383   4.724  17.523  0.00  0.00    +0.000 C 
ENDROOT
BRANCH   2   9
ATOM      9  C   UNL     1       3.185   6.249  18.137  0.00  0.00    +0.000 A 
ATOM     10  C   UNL     1       3.031   6.143  19.529  0.00  0.00    +0.000 A 
ATOM     11  C   UNL     1       2.269   7.082  20.237  0.00  0.00    +0.000 A 
ATOM     12  C   UNL     1       1.628   8.112  19.554  0.00  0.00    +0.000 A 
ATOM     13 CL   UNL     1       0.619   9.214  20.401  0.00  0.00    +0.000 Cl
ATOM     14  C   UNL     1       1.813   8.258  18.186  0.00  0.00    +0.000 A 
ATOM     15  C   UNL     1       2.635   7.362  17.497  0.00  0.00    +0.000 A 
ENDBRANCH   2   9
BRANCH   1  17
ATOM     16  O   UNL     1       1.013   4.419  17.431  0.00  0.00    +0.000 OA
ATOM     17  S   UNL     1       2.010   3.381  17.598  0.00  0.00    +0.000 S 
ATOM     18  O   UNL     1       1.812   2.061  17.024  0.00  0.00    +0.000 OA
BRANCH  17  19
ATOM     19  C   UNL     1       2.134   3.091  19.353  0.00  0.00    +0.000 A 
ATOM     20  C   UNL     1       1.016   3.284  20.166  0.00  0.00    +0.000 A 
ATOM     21  C   UNL     1       1.121   3.030  21.532  0.00  0.00    +0.000 A 
ATOM     22  C   UNL     1       2.325   2.571  22.075  0.00  0.00    +0.000 A 
ATOM     23  C   UNL     1       3.431   2.352  21.254  0.00  0.00    +0.000 A 
ATOM     24  C   UNL     1       3.341   2.603  19.889  0.00  0.00    +0.000 A 
ENDBRANCH  17  19
ENDBRANCH   1  17
TORSDOF 3
ENDMDL
MODEL 5
REMARK VINA RESULT:      -7.0      6.095      9.654
REMARK  Name = 
REMARK  3 active torsions:
REMARK  status: ('A' for Active; 'I' for Inactive)
REMARK    1  A    between atoms: S_2  and  N_4
REMARK    2  A    between atoms: S_2  and  C_19
REMARK    3  A    between atoms: C_5  and  C_6
REMARK                            x       y       z     vdW  Elec       q    Type
REMARK                         _______ _______ _______ _____ _____    ______ ____
ROOT
ATOM      1  N   UNL     1       0.359  12.282  18.551  0.00  0.00    +0.000 NA
ATOM      2  C   UNL     1      -0.014  11.026  18.530  0.00  0.00    +0.000 C 
ATOM      3  N   UNL     1      -1.337  10.775  18.183  0.00  0.00    +0.000 N 
ATOM      4  C   UNL     1      -1.726   9.831  17.130  0.00  0.00    +0.000 C 
ATOM      5  C   UNL     1      -2.872  10.435  16.299  0.00  0.00    +0.000 C 
ATOM      6  O   UNL     1      -3.985  10.809  17.130  0.00  0.00    +0.000 OA
ATOM      7  C   UNL     1      -3.576  11.791  18.099  0.00  0.00    +0.000 C 
ATOM      8  C   UNL     1      -2.463  11.246  19.001  0.00  0.00    +0.000 C 
ENDROOT
BRANCH   2   9
ATOM      9  C   UNL     1       0.840   9.827  18.899  0.00  0.00    +0.000 A 
ATOM     10  C   UNL     1       1.584   9.197  17.889  0.00  0.00    +0.000 A 
ATOM     11  C   UNL     1       2.301   8.024  18.157  0.00  0.00    +0.000 A 
ATOM     12  C   UNL     1       2.250   7.454  19.427  0.00  0.00    +0.000 A 
ATOM     13 CL   UNL     1       3.052   5.968  19.741  0.00  0.00    +0.000 Cl
ATOM     14  C   UNL     1       1.560   8.095  20.447  0.00  0.00    +0.000 A 
ATOM     15  C   UNL     1       0.908   9.304  20.192  0.00  0.00    +0.000 A 
ENDBRANCH   2   9
BRANCH   1  17
ATOM     16  O   UNL     1       2.037  12.698  20.382  0.00  0.00    +0.000 OA
ATOM     17  S   UNL     1       1.836  12.812  18.951  0.00  0.00    +0.000 S 
ATOM     18  O   UNL     1       2.807  12.266  18.019  0.00  0.00    +0.000 OA
BRANCH  17  19
ATOM     19  C   UNL     1       1.805  14.557  18.593  0.00  0.00    +0.000 A 
ATOM     20  C   UNL     1       0.690  15.316  18.951  0.00  0.00    +0.000 A 
ATOM     21  C   UNL     1       0.690  16.685  18.688  0.00  0.00    +0.000 A 
ATOM     22  C   UNL     1       1.801  17.289  18.088  0.00  0.00    +0.000 A 
ATOM     23  C   UNL     1       2.924  16.531  17.759  0.00  0.00    +0.000 A 
ATOM     24  C   UNL     1       2.937  15.164  18.016  0.00  0.00    +0.000 A 
ENDBRANCH  17  19
ENDBRANCH   1  17
TORSDOF 3
ENDMDL
MODEL 6
REMARK VINA RESULT:      -6.8      4.099      6.725
REMARK  Name = 
REMARK  3 active torsions:
REMARK  status: ('A' for Active; 'I' for Inactive)
REMARK    1  A    between atoms: S_2  and  N_4
REMARK    2  A    between atoms: S_2  and  C_19
REMARK    3  A    between atoms: C_5  and  C_6
REMARK                            x       y       z     vdW  Elec       q    Type
REMARK                         _______ _______ _______ _____ _____    ______ ____
ROOT
ATOM      1  N   UNL     1       5.319   4.236  15.708  0.00  0.00    +0.000 NA
ATOM      2  C   UNL     1       5.310   4.671  16.944  0.00  0.00    +0.000 C 
ATOM      3  N   UNL     1       4.384   4.089  17.803  0.00  0.00    +0.000 N 
ATOM      4  C   UNL     1       4.745   3.513  19.103  0.00  0.00    +0.000 C 
ATOM      5  C   UNL     1       3.980   2.194  19.308  0.00  0.00    +0.000 C 
ATOM      6  O   UNL     1       2.560   2.381  19.173  0.00  0.00    +0.000 OA
ATOM      7  C   UNL     1       2.244   2.875  17.859  0.00  0.00    +0.000 C 
ATOM      8  C   UNL     1       2.936   4.218  17.594  0.00  0.00    +0.000 C 
ENDROOT
BRANCH   2   9
ATOM      9  C   UNL     1       6.173   5.782  17.513  0.00  0.00    +0.000 A 
ATOM     10  C   UNL     1       5.893   7.107  17.142  0.00  0.00    +0.000 A 
ATOM     11  C   UNL     1       6.726   8.155  17.554  0.00  0.00    +0.000 A 
ATOM     12  C   UNL     1       7.863   7.881  18.310  0.00  0.00    +0.000 A 
ATOM     13 CL   UNL     1       8.939   9.149  18.743  0.00  0.00    +0.000 Cl
ATOM     14  C   UNL     1       8.123   6.583  18.726  0.00  0.00    +0.000 A 
ATOM     15  C   UNL     1       7.248   5.552  18.374  0.00  0.00    +0.000 A 
ENDBRANCH   2   9
BRANCH   1  17
ATOM     16  O   UNL     1       5.873   6.111  14.121  0.00  0.00    +0.000 OA
ATOM     17  S   UNL     1       6.287   4.784  14.532  0.00  0.00    +0.000 S 
ATOM     18  O   UNL     1       7.669   4.513  14.887  0.00  0.00    +0.000 OA
BRANCH  17  19
ATOM     19  C   UNL     1       5.964   3.714  13.143  0.00  0.00    +0.000 A 
ATOM     20  C   UNL     1       4.667   3.605  12.641  0.00  0.00    +0.000 A 
ATOM     21  C   UNL     1       4.434   2.784  11.539  0.00  0.00    +0.000 A 
ATOM     22  C   UNL     1       5.491   2.094  10.936  0.00  0.00    +0.000 A 
ATOM     23  C   UNL     1       6.791   2.229  11.424  0.00  0.00    +0.000 A 
ATOM     24  C   UNL     1       7.037   3.044  12.524  0.00  0.00    +0.000 A 
ENDBRANCH  17  19
ENDBRANCH   1  17
TORSDOF 3
ENDMDL
MODEL 7
REMARK VINA RESULT:      -6.8      0.220      1.004
REMARK  Name = 
REMARK  3 active torsions:
REMARK  status: ('A' for Active; 'I' for Inactive)
REMARK    1  A    between atoms: S_2  and  N_4
REMARK    2  A    between atoms: S_2  and  C_19
REMARK    3  A    between atoms: C_5  and  C_6
REMARK                            x       y       z     vdW  Elec       q    Type
REMARK                         _______ _______ _______ _____ _____    ______ ____
ROOT
ATOM      1  N   UNL     1       3.731   4.441  17.623  0.00  0.00    +0.000 NA
ATOM      2  C   UNL     1       4.079   5.651  17.987  0.00  0.00    +0.000 C 
ATOM      3  N   UNL     1       5.428   5.971  17.873  0.00  0.00    +0.000 N 
ATOM      4  C   UNL     1       5.915   7.161  17.169  0.00  0.00    +0.000 C 
ATOM      5  C   UNL     1       7.158   6.793  16.341  0.00  0.00    +0.000 C 
ATOM      6  O   UNL     1       8.178   6.192  17.159  0.00  0.00    +0.000 OA
ATOM      7  C   UNL     1       7.681   4.988  17.771  0.00  0.00    +0.000 C 
ATOM      8  C   UNL     1       6.463   5.280  18.655  0.00  0.00    +0.000 C 
ENDROOT
BRANCH   2   9
ATOM      9  C   UNL     1       3.166   6.714  18.569  0.00  0.00    +0.000 A 
ATOM     10  C   UNL     1       2.739   6.579  19.899  0.00  0.00    +0.000 A 
ATOM     11  C   UNL     1       1.811   7.475  20.446  0.00  0.00    +0.000 A 
ATOM     12  C   UNL     1       1.278   8.490  19.656  0.00  0.00    +0.000 A 
ATOM     13 CL   UNL     1       0.073   9.537  20.291  0.00  0.00    +0.000 Cl
ATOM     14  C   UNL     1       1.730   8.666  18.355  0.00  0.00    +0.000 A 
ATOM     15  C   UNL     1       2.710   7.814  17.839  0.00  0.00    +0.000 A 
ENDBRANCH   2   9
BRANCH   1  17
ATOM     16  O   UNL     1       1.257   4.904  17.520  0.00  0.00    +0.000 OA
ATOM     17  S   UNL     1       2.228   3.841  17.694  0.00  0.00    +0.000 S 
ATOM     18  O   UNL     1       2.159   2.633  16.891  0.00  0.00    +0.000 OA
BRANCH  17  19
ATOM     19  C   UNL     1       2.044   3.274  19.374  0.00  0.00    +0.000 A 
ATOM     20  C   UNL     1       3.147   2.755  20.052  0.00  0.00    +0.000 A 
ATOM     21  C   UNL     1       2.994   2.340  21.374  0.00  0.00    +0.000 A 
ATOM     22  C   UNL     1       1.755   2.457  22.013  0.00  0.00    +0.000 A 
ATOM     23  C   UNL     1       0.663   3.003  21.339  0.00  0.00    +0.000 A 
ATOM     24  C   UNL     1       0.802   3.422  20.020  0.00  0.00    +0.000 A 
ENDBRANCH  17  19
ENDBRANCH   1  17
TORSDOF 3
ENDMDL
MODEL 8
REMARK VINA RESULT:      -6.7      5.751      8.333
REMARK  Name = 
REMARK  3 active torsions:
REMARK  status: ('A' for Active; 'I' for Inactive)
REMARK    1  A    between atoms: S_2  and  N_4
REMARK    2  A    between atoms: S_2  and  C_19
REMARK    3  A    between atoms: C_5  and  C_6
REMARK                            x       y       z     vdW  Elec       q    Type
REMARK                         _______ _______ _______ _____ _____    ______ ____
ROOT
ATOM      1  N   UNL     1      -0.749  10.236  19.680  0.00  0.00    +0.000 NA
ATOM      2  C   UNL     1      -1.505  11.300  19.795  0.00  0.00    +0.000 C 
ATOM      3  N   UNL     1      -2.376  11.560  18.742  0.00  0.00    +0.000 N 
ATOM      4  C   UNL     1      -3.813  11.790  18.926  0.00  0.00    +0.000 C 
ATOM      5  C   UNL     1      -4.594  11.058  17.820  0.00  0.00    +0.000 C 
ATOM      6  O   UNL     1      -4.145  11.449  16.510  0.00  0.00    +0.000 OA
ATOM      7  C   UNL     1      -2.750  11.137  16.347  0.00  0.00    +0.000 C 
ATOM      8  C   UNL     1      -1.895  11.869  17.388  0.00  0.00    +0.000 C 
ENDROOT
BRANCH   2   9
ATOM      9  C   UNL     1      -1.486  12.300  20.935  0.00  0.00    +0.000 A 
ATOM     10  C   UNL     1      -0.871  13.545  20.726  0.00  0.00    +0.000 A 
ATOM     11  C   UNL     1      -0.733  14.459  21.779  0.00  0.00    +0.000 A 
ATOM     12  C   UNL     1      -1.175  14.120  23.055  0.00  0.00    +0.000 A 
ATOM     13 CL   UNL     1      -0.927  15.196  24.370  0.00  0.00    +0.000 Cl
ATOM     14  C   UNL     1      -1.829  12.913  23.264  0.00  0.00    +0.000 A 
ATOM     15  C   UNL     1      -2.031  12.038  22.193  0.00  0.00    +0.000 A 
ENDBRANCH   2   9
BRANCH   1  17
ATOM     16  O   UNL     1       1.198  10.867  21.148  0.00  0.00    +0.000 OA
ATOM     17  S   UNL     1       0.354   9.753  20.765  0.00  0.00    +0.000 S 
ATOM     18  O   UNL     1      -0.295   8.932  21.771  0.00  0.00    +0.000 OA
BRANCH  17  19
ATOM     19  C   UNL     1       1.402   8.622  19.872  0.00  0.00    +0.000 A 
ATOM     20  C   UNL     1       1.766   7.408  20.457  0.00  0.00    +0.000 A 
ATOM     21  C   UNL     1       2.565   6.522  19.737  0.00  0.00    +0.000 A 
ATOM     22  C   UNL     1       2.982   6.840  18.440  0.00  0.00    +0.000 A 
ATOM     23  C   UNL     1       2.592   8.042  17.849  0.00  0.00    +0.000 A 
ATOM     24  C   UNL     1       1.795   8.936  18.557  0.00  0.00    +0.000 A 
ENDBRANCH  17  19
ENDBRANCH   1  17
TORSDOF 3
ENDMDL
MODEL 9
REMARK VINA RESULT:      -6.6      5.716      8.336
REMARK  Name = 
REMARK  3 active torsions:
REMARK  status: ('A' for Active; 'I' for Inactive)
REMARK    1  A    between atoms: S_2  and  N_4
REMARK    2  A    between atoms: S_2  and  C_19
REMARK    3  A    between atoms: C_5  and  C_6
REMARK                            x       y       z     vdW  Elec       q    Type
REMARK                         _______ _______ _______ _____ _____    ______ ____
ROOT
ATOM      1  N   UNL     1      -0.681  10.130  19.874  0.00  0.00    +0.000 NA
ATOM      2  C   UNL     1      -1.329  11.257  20.034  0.00  0.00    +0.000 C 
ATOM      3  N   UNL     1      -2.214  11.615  19.022  0.00  0.00    +0.000 N 
ATOM      4  C   UNL     1      -3.614  11.975  19.269  0.00  0.00    +0.000 C 
ATOM      5  C   UNL     1      -4.504  11.338  18.188  0.00  0.00    +0.000 C 
ATOM      6  O   UNL     1      -4.074  11.708  16.866  0.00  0.00    +0.000 OA
ATOM      7  C   UNL     1      -2.722  11.270  16.640  0.00  0.00    +0.000 C 
ATOM      8  C   UNL     1      -1.761  11.901  17.654  0.00  0.00    +0.000 C 
ENDROOT
BRANCH   2   9
ATOM      9  C   UNL     1      -1.169  12.232  21.185  0.00  0.00    +0.000 A 
ATOM     10  C   UNL     1      -1.812  11.948  22.400  0.00  0.00    +0.000 A 
ATOM     11  C   UNL     1      -1.784  12.868  23.456  0.00  0.00    +0.000 A 
ATOM     12  C   UNL     1      -1.143  14.094  23.291  0.00  0.00    +0.000 A 
ATOM     13 CL   UNL     1      -1.181  15.265  24.547  0.00  0.00    +0.000 Cl
ATOM     14  C   UNL     1      -0.460  14.366  22.113  0.00  0.00    +0.000 A 
ATOM     15  C   UNL     1      -0.429  13.413  21.092  0.00  0.00    +0.000 A 
ENDBRANCH   2   9
BRANCH   1  17
ATOM     16  O   UNL     1       1.269  10.589  21.400  0.00  0.00    +0.000 OA
ATOM     17  S   UNL     1       0.415   9.528  20.904  0.00  0.00    +0.000 S 
ATOM     18  O   UNL     1      -0.244   8.614  21.821  0.00  0.00    +0.000 OA
BRANCH  17  19
ATOM     19  C   UNL     1       1.455   8.484  19.902  0.00  0.00    +0.000 A 
ATOM     20  C   UNL     1       1.858   7.239  20.387  0.00  0.00    +0.000 A 
ATOM     21  C   UNL     1       2.650   6.423  19.582  0.00  0.00    +0.000 A 
ATOM     22  C   UNL     1       3.020   6.841  18.299  0.00  0.00    +0.000 A 
ATOM     23  C   UNL     1       2.590   8.073  17.807  0.00  0.00    +0.000 A 
ATOM     24  C   UNL     1       1.800   8.898  18.601  0.00  0.00    +0.000 A 
ENDBRANCH  17  19
ENDBRANCH   1  17
TORSDOF 3
ENDMDL
