MODEL 1
REMARK VINA RESULT:      -7.5      0.000      0.000
REMARK  Name = 
REMARK  8 active torsions:
REMARK  status: ('A' for Active; 'I' for Inactive)
REMARK    1  A    between atoms: C_1  and  C_2
REMARK    2  A    between atoms: C_2  and  C_3
REMARK    3  A    between atoms: C_3  and  N_4
REMARK    4  A    between atoms: C_5  and  C_7
REMARK    5  A    between atoms: C_10  and  C_11
REMARK    6  A    between atoms: C_11  and  N_12
REMARK    7  A    between atoms: N_20  and  C_21
REMARK    8  A    between atoms: C_21  and  C_22
REMARK                            x       y       z     vdW  Elec       q    Type
REMARK                         _______ _______ _______ _____ _____    ______ ____
ROOT
ATOM      1  N   UNL     1       4.349   5.661  19.091  0.00  0.00    +0.000 N 
ATOM      2  C   UNL     1       4.344   4.336  19.557  0.00  0.00    +0.000 A 
ATOM      3  O   UNL     1       5.325   3.603  19.486  0.00  0.00    +0.000 OA
ATOM      4  C   UNL     1       3.065   3.934  20.081  0.00  0.00    +0.000 A 
ATOM      5  S   UNL     1       2.691   2.329  20.474  0.00  0.00    +0.000 S 
ATOM      6  C   UNL     1       1.100   2.772  20.927  0.00  0.00    +0.000 A 
ATOM      7  C   UNL     1       0.893   4.133  20.829  0.00  0.00    +0.000 A 
ATOM      8  C   UNL     1       2.028   4.803  20.291  0.00  0.00    +0.000 A 
ATOM      9  N   UNL     1       2.156   6.141  19.912  0.00  0.00    +0.000 N 
ATOM     10  C   UNL     1       3.201   6.459  19.028  0.00  0.00    +0.000 A 
ATOM     11  O   UNL     1       3.102   7.391  18.224  0.00  0.00    +0.000 OA
ENDROOT
BRANCH   1  12
ATOM     12  C   UNL     1       5.566   6.169  18.455  0.00  0.00    +0.000 C 
BRANCH  12  16
ATOM     13  C   UNL     1       6.990   4.283  15.480  0.00  0.00    +0.000 C 
ATOM     14  C   UNL     1       7.661   5.514  16.107  0.00  0.00    +0.000 C 
ATOM     15  C   UNL     1       6.729   6.721  16.226  0.00  0.00    +0.000 C 
ATOM     16  C   UNL     1       5.398   6.405  16.930  0.00  0.00    +0.000 C 
ATOM     17  C   UNL     1       4.724   5.201  16.256  0.00  0.00    +0.000 C 
ATOM     18  C   UNL     1       5.641   3.980  16.143  0.00  0.00    +0.000 C 
BRANCH  13  20
ATOM     19  N   UNL     1       6.050   3.429  13.387  0.00  0.00    +0.000 N 
ATOM     20  C   UNL     1       6.871   4.388  13.953  0.00  0.00    +0.000 C 
ATOM     21  O   UNL     1       7.426   5.255  13.296  0.00  0.00    +0.000 OA
ATOM     22  H   UNL     1       5.581   2.762  13.972  0.00  0.00    +0.000 HD
BRANCH  19  23
ATOM     23  C   UNL     1       5.848   3.363  11.952  0.00  0.00    +0.000 C 
BRANCH  23  25
ATOM     24  C   UNL     1       3.783   3.816  10.585  0.00  0.00    +0.000 C 
ATOM     25  C   UNL     1       4.434   2.904  11.606  0.00  0.00    +0.000 C 
ENDBRANCH  23  25
ENDBRANCH  19  23
ENDBRANCH  13  20
ENDBRANCH  12  16
ENDBRANCH   1  12
BRANCH   9  26
ATOM     26  C   UNL     1       1.081   7.126  20.062  0.00  0.00    +0.000 C 
BRANCH  26  27
ATOM     27  C   UNL     1       1.318   8.391  20.923  0.00  0.00    +0.000 C 
ATOM     28  O   UNL     1       1.835   8.369  22.039  0.00  0.00    +0.000 OA
ATOM     29  N   UNL     1       0.816   9.570  20.379  0.00  0.00    +0.000 N 
ATOM     30  C   UNL     1       0.780  10.815  21.120  0.00  0.00    +0.000 C 
ATOM     31  C   UNL     1      -0.094  11.702  20.247  0.00  0.00    +0.000 C 
ATOM     32  C   UNL     1       0.289  11.290  18.828  0.00  0.00    +0.000 C 
ATOM     33  C   UNL     1       0.764   9.845  18.954  0.00  0.00    +0.000 C 
ENDBRANCH  26  27
ENDBRANCH   9  26
TORSDOF 7
ENDMDL
MODEL 2
REMARK VINA RESULT:      -7.1      8.065     10.945
REMARK  Name = 
REMARK  8 active torsions:
REMARK  status: ('A' for Active; 'I' for Inactive)
REMARK    1  A    between atoms: C_1  and  C_2
REMARK    2  A    between atoms: C_2  and  C_3
REMARK    3  A    between atoms: C_3  and  N_4
REMARK    4  A    between atoms: C_5  and  C_7
REMARK    5  A    between atoms: C_10  and  C_11
REMARK    6  A    between atoms: C_11  and  N_12
REMARK    7  A    between atoms: N_20  and  C_21
REMARK    8  A    between atoms: C_21  and  C_22
REMARK                            x       y       z     vdW  Elec       q    Type
REMARK                         _______ _______ _______ _____ _____    ______ ____
ROOT
ATOM      1  N   UNL     1       4.632  14.749  20.692  0.00  0.00    +0.000 N 
ATOM      2  C   UNL     1       4.998  14.441  22.012  0.00  0.00    +0.000 A 
ATOM      3  O   UNL     1       4.177  14.251  22.903  0.00  0.00    +0.000 OA
ATOM      4  C   UNL     1       6.425  14.414  22.202  0.00  0.00    +0.000 A 
ATOM      5  S   UNL     1       7.151  14.325  23.730  0.00  0.00    +0.000 S 
ATOM      6  C   UNL     1       8.714  14.387  23.032  0.00  0.00    +0.000 A 
ATOM      7  C   UNL     1       8.664  14.418  21.654  0.00  0.00    +0.000 A 
ATOM      8  C   UNL     1       7.326  14.479  21.173  0.00  0.00    +0.000 A 
ATOM      9  N   UNL     1       6.873  14.664  19.866  0.00  0.00    +0.000 N 
ATOM     10  C   UNL     1       5.552  15.114  19.702  0.00  0.00    +0.000 A 
ATOM     11  O   UNL     1       5.225  15.812  18.737  0.00  0.00    +0.000 OA
ENDROOT
BRANCH   1  12
ATOM     12  C   UNL     1       3.208  14.892  20.382  0.00  0.00    +0.000 C 
BRANCH  12  16
ATOM     13  C   UNL     1      -0.172  13.949  18.927  0.00  0.00    +0.000 C 
ATOM     14  C   UNL     1       0.033  14.391  20.383  0.00  0.00    +0.000 C 
ATOM     15  C   UNL     1       1.111  13.593  21.117  0.00  0.00    +0.000 C 
ATOM     16  C   UNL     1       2.454  13.536  20.368  0.00  0.00    +0.000 C 
ATOM     17  C   UNL     1       2.228  13.045  18.930  0.00  0.00    +0.000 C 
ATOM     18  C   UNL     1       1.162  13.845  18.179  0.00  0.00    +0.000 C 
BRANCH  13  20
ATOM     19  N   UNL     1      -1.334  12.321  17.515  0.00  0.00    +0.000 N 
ATOM     20  C   UNL     1      -0.998  12.659  18.813  0.00  0.00    +0.000 C 
ATOM     21  O   UNL     1      -1.310  11.976  19.776  0.00  0.00    +0.000 OA
ATOM     22  H   UNL     1      -1.019  12.891  16.751  0.00  0.00    +0.000 HD
BRANCH  19  23
ATOM     23  C   UNL     1      -2.137  11.148  17.226  0.00  0.00    +0.000 C 
BRANCH  23  25
ATOM     24  C   UNL     1      -2.930   9.948  15.160  0.00  0.00    +0.000 C 
ATOM     25  C   UNL     1      -2.856  11.277  15.885  0.00  0.00    +0.000 C 
ENDBRANCH  23  25
ENDBRANCH  19  23
ENDBRANCH  13  20
ENDBRANCH  12  16
ENDBRANCH   1  12
BRANCH   9  26
ATOM     26  C   UNL     1       7.770  14.787  18.713  0.00  0.00    +0.000 C 
BRANCH  26  27
ATOM     27  C   UNL     1       8.247  13.512  17.975  0.00  0.00    +0.000 C 
ATOM     28  O   UNL     1       7.527  12.845  17.232  0.00  0.00    +0.000 OA
ATOM     29  N   UNL     1       9.542  13.108  18.285  0.00  0.00    +0.000 N 
ATOM     30  C   UNL     1      10.092  11.843  17.837  0.00  0.00    +0.000 C 
ATOM     31  C   UNL     1      11.375  11.728  18.646  0.00  0.00    +0.000 C 
ATOM     32  C   UNL     1      11.876  13.167  18.721  0.00  0.00    +0.000 C 
ATOM     33  C   UNL     1      10.621  14.027  18.602  0.00  0.00    +0.000 C 
ENDBRANCH  26  27
ENDBRANCH   9  26
TORSDOF 7
ENDMDL
MODEL 3
REMARK VINA RESULT:      -7.0      2.164      8.114
REMARK  Name = 
REMARK  8 active torsions:
REMARK  status: ('A' for Active; 'I' for Inactive)
REMARK    1  A    between atoms: C_1  and  C_2
REMARK    2  A    between atoms: C_2  and  C_3
REMARK    3  A    between atoms: C_3  and  N_4
REMARK    4  A    between atoms: C_5  and  C_7
REMARK    5  A    between atoms: C_10  and  C_11
REMARK    6  A    between atoms: C_11  and  N_12
REMARK    7  A    between atoms: N_20  and  C_21
REMARK    8  A    between atoms: C_21  and  C_22
REMARK                            x       y       z     vdW  Elec       q    Type
REMARK                         _______ _______ _______ _____ _____    ______ ____
ROOT
ATOM      1  N   UNL     1       2.651   6.625  19.244  0.00  0.00    +0.000 N 
ATOM      2  C   UNL     1       2.198   5.615  20.109  0.00  0.00    +0.000 A 
ATOM      3  O   UNL     1       1.564   5.851  21.133  0.00  0.00    +0.000 OA
ATOM      4  C   UNL     1       2.591   4.298  19.682  0.00  0.00    +0.000 A 
ATOM      5  S   UNL     1       2.411   2.921  20.652  0.00  0.00    +0.000 S 
ATOM      6  C   UNL     1       3.125   1.934  19.448  0.00  0.00    +0.000 A 
ATOM      7  C   UNL     1       3.436   2.650  18.310  0.00  0.00    +0.000 A 
ATOM      8  C   UNL     1       3.166   4.038  18.467  0.00  0.00    +0.000 A 
ATOM      9  N   UNL     1       3.474   5.092  17.605  0.00  0.00    +0.000 N 
ATOM     10  C   UNL     1       3.499   6.385  18.157  0.00  0.00    +0.000 A 
ATOM     11  O   UNL     1       4.246   7.261  17.710  0.00  0.00    +0.000 OA
ENDROOT
BRANCH   1  12
ATOM     12  C   UNL     1       2.390   8.019  19.608  0.00  0.00    +0.000 C 
BRANCH  12  16
ATOM     13  C   UNL     1       0.997  11.542  19.326  0.00  0.00    +0.000 C 
ATOM     14  C   UNL     1       0.785  10.640  20.550  0.00  0.00    +0.000 C 
ATOM     15  C   UNL     1       0.216   9.264  20.202  0.00  0.00    +0.000 C 
ATOM     16  C   UNL     1       1.011   8.527  19.110  0.00  0.00    +0.000 C 
ATOM     17  C   UNL     1       1.168   9.431  17.878  0.00  0.00    +0.000 C 
ATOM     18  C   UNL     1       1.750  10.807  18.210  0.00  0.00    +0.000 C 
BRANCH  13  20
ATOM     19  N   UNL     1      -1.448  11.490  19.217  0.00  0.00    +0.000 N 
ATOM     20  C   UNL     1      -0.310  12.169  18.821  0.00  0.00    +0.000 C 
ATOM     21  O   UNL     1      -0.348  13.191  18.152  0.00  0.00    +0.000 OA
ATOM     22  H   UNL     1      -1.369  10.679  19.802  0.00  0.00    +0.000 HD
BRANCH  19  23
ATOM     23  C   UNL     1      -2.768  11.929  18.805  0.00  0.00    +0.000 C 
BRANCH  23  25
ATOM     24  C   UNL     1      -2.706   9.763  17.523  0.00  0.00    +0.000 C 
ATOM     25  C   UNL     1      -3.246  11.179  17.565  0.00  0.00    +0.000 C 
ENDBRANCH  23  25
ENDBRANCH  19  23
ENDBRANCH  13  20
ENDBRANCH  12  16
ENDBRANCH   1  12
BRANCH   9  26
ATOM     26  C   UNL     1       4.127   4.906  16.306  0.00  0.00    +0.000 C 
BRANCH  26  27
ATOM     27  C   UNL     1       5.671   4.825  16.230  0.00  0.00    +0.000 C 
ATOM     28  O   UNL     1       6.407   4.917  17.212  0.00  0.00    +0.000 OA
ATOM     29  N   UNL     1       6.188   4.731  14.941  0.00  0.00    +0.000 N 
ATOM     30  C   UNL     1       7.607   4.832  14.663  0.00  0.00    +0.000 C 
ATOM     31  C   UNL     1       7.645   4.965  13.148  0.00  0.00    +0.000 C 
ATOM     32  C   UNL     1       6.505   4.062  12.685  0.00  0.00    +0.000 C 
ATOM     33  C   UNL     1       5.521   4.042  13.851  0.00  0.00    +0.000 C 
ENDBRANCH  26  27
ENDBRANCH   9  26
TORSDOF 7
ENDMDL
MODEL 4
REMARK VINA RESULT:      -7.0      0.725      1.252
REMARK  Name = 
REMARK  8 active torsions:
REMARK  status: ('A' for Active; 'I' for Inactive)
REMARK    1  A    between atoms: C_1  and  C_2
REMARK    2  A    between atoms: C_2  and  C_3
REMARK    3  A    between atoms: C_3  and  N_4
REMARK    4  A    between atoms: C_5  and  C_7
REMARK    5  A    between atoms: C_10  and  C_11
REMARK    6  A    between atoms: C_11  and  N_12
REMARK    7  A    between atoms: N_20  and  C_21
REMARK    8  A    between atoms: C_21  and  C_22
REMARK                            x       y       z     vdW  Elec       q    Type
REMARK                         _______ _______ _______ _____ _____    ______ ____
ROOT
ATOM      1  N   UNL     1       4.634   5.166  19.125  0.00  0.00    +0.000 N 
ATOM      2  C   UNL     1       4.333   3.928  19.717  0.00  0.00    +0.000 A 
ATOM      3  O   UNL     1       5.175   3.054  19.893  0.00  0.00    +0.000 OA
ATOM      4  C   UNL     1       2.939   3.794  20.051  0.00  0.00    +0.000 A 
ATOM      5  S   UNL     1       2.243   2.328  20.536  0.00  0.00    +0.000 S 
ATOM      6  C   UNL     1       0.699   3.060  20.659  0.00  0.00    +0.000 A 
ATOM      7  C   UNL     1       0.744   4.411  20.387  0.00  0.00    +0.000 A 
ATOM      8  C   UNL     1       2.045   4.829  19.988  0.00  0.00    +0.000 A 
ATOM      9  N   UNL     1       2.454   6.072  19.501  0.00  0.00    +0.000 N 
ATOM     10  C   UNL     1       3.661   6.113  18.783  0.00  0.00    +0.000 A 
ATOM     11  O   UNL     1       3.846   6.937  17.883  0.00  0.00    +0.000 OA
ENDROOT
BRANCH   1  12
ATOM     12  C   UNL     1       6.003   5.399  18.661  0.00  0.00    +0.000 C 
BRANCH  12  16
ATOM     13  C   UNL     1       6.268   5.676  14.881  0.00  0.00    +0.000 C 
ATOM     14  C   UNL     1       5.032   5.127  15.609  0.00  0.00    +0.000 C 
ATOM     15  C   UNL     1       5.355   4.005  16.596  0.00  0.00    +0.000 C 
ATOM     16  C   UNL     1       6.465   4.367  17.599  0.00  0.00    +0.000 C 
ATOM     17  C   UNL     1       7.706   4.868  16.845  0.00  0.00    +0.000 C 
ATOM     18  C   UNL     1       7.399   6.001  15.863  0.00  0.00    +0.000 C 
BRANCH  13  20
ATOM     19  N   UNL     1       5.754   3.923  13.252  0.00  0.00    +0.000 N 
ATOM     20  C   UNL     1       6.739   4.760  13.743  0.00  0.00    +0.000 C 
ATOM     21  O   UNL     1       7.873   4.784  13.290  0.00  0.00    +0.000 OA
ATOM     22  H   UNL     1       4.824   3.969  13.627  0.00  0.00    +0.000 HD
BRANCH  19  23
ATOM     23  C   UNL     1       6.033   2.971  12.193  0.00  0.00    +0.000 C 
BRANCH  23  25
ATOM     24  C   UNL     1       3.896   3.713  11.090  0.00  0.00    +0.000 C 
ATOM     25  C   UNL     1       4.756   2.529  11.484  0.00  0.00    +0.000 C 
ENDBRANCH  23  25
ENDBRANCH  19  23
ENDBRANCH  13  20
ENDBRANCH  12  16
ENDBRANCH   1  12
BRANCH   9  26
ATOM     26  C   UNL     1       1.552   7.218  19.361  0.00  0.00    +0.000 C 
BRANCH  26  27
ATOM     27  C   UNL     1       1.490   8.284  20.482  0.00  0.00    +0.000 C 
ATOM     28  O   UNL     1       1.720   8.042  21.667  0.00  0.00    +0.000 OA
ATOM     29  N   UNL     1       1.060   9.542  20.069  0.00  0.00    +0.000 N 
ATOM     30  C   UNL     1       0.764  10.609  21.004  0.00  0.00    +0.000 C 
ATOM     31  C   UNL     1       0.073  11.643  20.128  0.00  0.00    +0.000 C 
ATOM     32  C   UNL     1       0.815  11.534  18.799  0.00  0.00    +0.000 C 
ATOM     33  C   UNL     1       1.337  10.101  18.757  0.00  0.00    +0.000 C 
ENDBRANCH  26  27
ENDBRANCH   9  26
TORSDOF 7
ENDMDL
MODEL 5
REMARK VINA RESULT:      -6.9      3.780      6.739
REMARK  Name = 
REMARK  8 active torsions:
REMARK  status: ('A' for Active; 'I' for Inactive)
REMARK    1  A    between atoms: C_1  and  C_2
REMARK    2  A    between atoms: C_2  and  C_3
REMARK    3  A    between atoms: C_3  and  N_4
REMARK    4  A    between atoms: C_5  and  C_7
REMARK    5  A    between atoms: C_10  and  C_11
REMARK    6  A    between atoms: C_11  and  N_12
REMARK    7  A    between atoms: N_20  and  C_21
REMARK    8  A    between atoms: C_21  and  C_22
REMARK                            x       y       z     vdW  Elec       q    Type
REMARK                         _______ _______ _______ _____ _____    ______ ____
ROOT
ATOM      1  N   UNL     1       0.519   9.745  20.214  0.00  0.00    +0.000 N 
ATOM      2  C   UNL     1      -0.274   9.714  21.373  0.00  0.00    +0.000 A 
ATOM      3  O   UNL     1      -0.723   8.674  21.844  0.00  0.00    +0.000 OA
ATOM      4  C   UNL     1      -0.526  11.025  21.912  0.00  0.00    +0.000 A 
ATOM      5  S   UNL     1      -1.651  11.317  23.144  0.00  0.00    +0.000 S 
ATOM      6  C   UNL     1      -1.326  12.997  23.095  0.00  0.00    +0.000 A 
ATOM      7  C   UNL     1      -0.332  13.306  22.188  0.00  0.00    +0.000 A 
ATOM      8  C   UNL     1       0.101  12.158  21.466  0.00  0.00    +0.000 A 
ATOM      9  N   UNL     1       0.976  12.086  20.381  0.00  0.00    +0.000 N 
ATOM     10  C   UNL     1       0.913  10.931  19.582  0.00  0.00    +0.000 A 
ATOM     11  O   UNL     1       1.179  10.967  18.377  0.00  0.00    +0.000 OA
ENDROOT
BRANCH   1  12
ATOM     12  C   UNL     1       0.780   8.485  19.518  0.00  0.00    +0.000 C 
BRANCH  12  16
ATOM     13  C   UNL     1       2.277   5.071  18.786  0.00  0.00    +0.000 C 
ATOM     14  C   UNL     1       1.599   5.435  20.115  0.00  0.00    +0.000 C 
ATOM     15  C   UNL     1       2.162   6.702  20.759  0.00  0.00    +0.000 C 
ATOM     16  C   UNL     1       2.193   7.914  19.810  0.00  0.00    +0.000 C 
ATOM     17  C   UNL     1       2.918   7.539  18.509  0.00  0.00    +0.000 C 
ATOM     18  C   UNL     1       2.355   6.279  17.846  0.00  0.00    +0.000 C 
BRANCH  13  20
ATOM     19  N   UNL     1       4.679   5.037  18.314  0.00  0.00    +0.000 N 
ATOM     20  C   UNL     1       3.647   4.406  18.984  0.00  0.00    +0.000 C 
ATOM     21  O   UNL     1       3.820   3.425  19.691  0.00  0.00    +0.000 OA
ATOM     22  H   UNL     1       4.496   5.866  17.779  0.00  0.00    +0.000 HD
BRANCH  19  23
ATOM     23  C   UNL     1       6.036   4.526  18.367  0.00  0.00    +0.000 C 
BRANCH  23  25
ATOM     24  C   UNL     1       6.494   6.782  17.350  0.00  0.00    +0.000 C 
ATOM     25  C   UNL     1       7.062   5.637  18.164  0.00  0.00    +0.000 C 
ENDBRANCH  23  25
ENDBRANCH  19  23
ENDBRANCH  13  20
ENDBRANCH  12  16
ENDBRANCH   1  12
BRANCH   9  26
ATOM     26  C   UNL     1       1.655  13.255  19.815  0.00  0.00    +0.000 C 
BRANCH  26  27
ATOM     27  C   UNL     1       2.945  13.788  20.484  0.00  0.00    +0.000 C 
ATOM     28  O   UNL     1       3.190  13.669  21.684  0.00  0.00    +0.000 OA
ATOM     29  N   UNL     1       3.787  14.507  19.640  0.00  0.00    +0.000 N 
ATOM     30  C   UNL     1       4.942  15.235  20.128  0.00  0.00    +0.000 C 
ATOM     31  C   UNL     1       5.349  16.068  18.922  0.00  0.00    +0.000 C 
ATOM     32  C   UNL     1       5.063  15.144  17.741  0.00  0.00    +0.000 C 
ATOM     33  C   UNL     1       3.948  14.222  18.225  0.00  0.00    +0.000 C 
ENDBRANCH  26  27
ENDBRANCH   9  26
TORSDOF 7
ENDMDL
MODEL 6
REMARK VINA RESULT:      -6.9      3.584      6.710
REMARK  Name = 
REMARK  8 active torsions:
REMARK  status: ('A' for Active; 'I' for Inactive)
REMARK    1  A    between atoms: C_1  and  C_2
REMARK    2  A    between atoms: C_2  and  C_3
REMARK    3  A    between atoms: C_3  and  N_4
REMARK    4  A    between atoms: C_5  and  C_7
REMARK    5  A    between atoms: C_10  and  C_11
REMARK    6  A    between atoms: C_11  and  N_12
REMARK    7  A    between atoms: N_20  and  C_21
REMARK    8  A    between atoms: C_21  and  C_22
REMARK                            x       y       z     vdW  Elec       q    Type
REMARK                         _______ _______ _______ _____ _____    ______ ____
ROOT
ATOM      1  N   UNL     1       0.180   9.461  20.332  0.00  0.00    +0.000 N 
ATOM      2  C   UNL     1      -0.305   9.750  21.618  0.00  0.00    +0.000 A 
ATOM      3  O   UNL     1      -0.468   8.889  22.476  0.00  0.00    +0.000 OA
ATOM      4  C   UNL     1      -0.618  11.144  21.795  0.00  0.00    +0.000 A 
ATOM      5  S   UNL     1      -1.454  11.738  23.143  0.00  0.00    +0.000 S 
ATOM      6  C   UNL     1      -1.407  13.331  22.516  0.00  0.00    +0.000 A 
ATOM      7  C   UNL     1      -0.712  13.399  21.326  0.00  0.00    +0.000 A 
ATOM      8  C   UNL     1      -0.292  12.113  20.884  0.00  0.00    +0.000 A 
ATOM      9  N   UNL     1       0.304  11.755  19.673  0.00  0.00    +0.000 N 
ATOM     10  C   UNL     1       0.231  10.403  19.298  0.00  0.00    +0.000 A 
ATOM     11  O   UNL     1       0.198  10.066  18.110  0.00  0.00    +0.000 OA
ENDROOT
BRANCH   1  12
ATOM     12  C   UNL     1       0.458   8.064  19.993  0.00  0.00    +0.000 C 
BRANCH  12  16
ATOM     13  C   UNL     1       2.433   5.121  18.624  0.00  0.00    +0.000 C 
ATOM     14  C   UNL     1       1.781   5.135  20.014  0.00  0.00    +0.000 C 
ATOM     15  C   UNL     1       2.171   6.348  20.859  0.00  0.00    +0.000 C 
ATOM     16  C   UNL     1       1.957   7.692  20.141  0.00  0.00    +0.000 C 
ATOM     17  C   UNL     1       2.659   7.672  18.775  0.00  0.00    +0.000 C 
ATOM     18  C   UNL     1       2.267   6.469  17.913  0.00  0.00    +0.000 C 
BRANCH  13  20
ATOM     19  N   UNL     1       4.667   5.160  17.624  0.00  0.00    +0.000 N 
ATOM     20  C   UNL     1       3.899   4.668  18.664  0.00  0.00    +0.000 C 
ATOM     21  O   UNL     1       4.358   3.960  19.548  0.00  0.00    +0.000 OA
ATOM     22  H   UNL     1       4.256   5.773  16.944  0.00  0.00    +0.000 HD
BRANCH  19  23
ATOM     23  C   UNL     1       6.068   4.808  17.491  0.00  0.00    +0.000 C 
BRANCH  23  25
ATOM     24  C   UNL     1       7.740   5.804  19.088  0.00  0.00    +0.000 C 
ATOM     25  C   UNL     1       6.976   5.998  17.793  0.00  0.00    +0.000 C 
ENDBRANCH  23  25
ENDBRANCH  19  23
ENDBRANCH  13  20
ENDBRANCH  12  16
ENDBRANCH   1  12
BRANCH   9  26
ATOM     26  C   UNL     1       0.647  12.723  18.628  0.00  0.00    +0.000 C 
BRANCH  26  27
ATOM     27  C   UNL     1       2.134  13.049  18.344  0.00  0.00    +0.000 C 
ATOM     28  O   UNL     1       2.928  12.242  17.862  0.00  0.00    +0.000 OA
ATOM     29  N   UNL     1       2.546  14.310  18.763  0.00  0.00    +0.000 N 
ATOM     30  C   UNL     1       3.937  14.719  18.749  0.00  0.00    +0.000 C 
ATOM     31  C   UNL     1       3.915  16.015  19.547  0.00  0.00    +0.000 C 
ATOM     32  C   UNL     1       2.588  16.654  19.147  0.00  0.00    +0.000 C 
ATOM     33  C   UNL     1       1.689  15.483  18.759  0.00  0.00    +0.000 C 
ENDBRANCH  26  27
ENDBRANCH   9  26
TORSDOF 7
ENDMDL
MODEL 7
REMARK VINA RESULT:      -6.8      3.566      6.544
REMARK  Name = 
REMARK  8 active torsions:
REMARK  status: ('A' for Active; 'I' for Inactive)
REMARK    1  A    between atoms: C_1  and  C_2
REMARK    2  A    between atoms: C_2  and  C_3
REMARK    3  A    between atoms: C_3  and  N_4
REMARK    4  A    between atoms: C_5  and  C_7
REMARK    5  A    between atoms: C_10  and  C_11
REMARK    6  A    between atoms: C_11  and  N_12
REMARK    7  A    between atoms: N_20  and  C_21
REMARK    8  A    between atoms: C_21  and  C_22
REMARK                            x       y       z     vdW  Elec       q    Type
REMARK                         _______ _______ _______ _____ _____    ______ ____
ROOT
ATOM      1  N   UNL     1       0.491   9.365  20.358  0.00  0.00    +0.000 N 
ATOM      2  C   UNL     1      -0.269   9.466  21.534  0.00  0.00    +0.000 A 
ATOM      3  O   UNL     1      -0.714   8.488  22.125  0.00  0.00    +0.000 OA
ATOM      4  C   UNL     1      -0.494  10.830  21.937  0.00  0.00    +0.000 A 
ATOM      5  S   UNL     1      -1.582  11.264  23.160  0.00  0.00    +0.000 S 
ATOM      6  C   UNL     1      -1.242  12.926  22.924  0.00  0.00    +0.000 A 
ATOM      7  C   UNL     1      -0.271  13.125  21.963  0.00  0.00    +0.000 A 
ATOM      8  C   UNL     1       0.131  11.902  21.356  0.00  0.00    +0.000 A 
ATOM      9  N   UNL     1       0.974  11.704  20.262  0.00  0.00    +0.000 N 
ATOM     10  C   UNL     1       0.879  10.472  19.593  0.00  0.00    +0.000 A 
ATOM     11  O   UNL     1       1.111  10.376  18.384  0.00  0.00    +0.000 OA
ENDROOT
BRANCH   1  12
ATOM     12  C   UNL     1       0.722   8.034  19.793  0.00  0.00    +0.000 C 
BRANCH  12  16
ATOM     13  C   UNL     1       2.522   4.977  18.433  0.00  0.00    +0.000 C 
ATOM     14  C   UNL     1       1.760   4.993  19.766  0.00  0.00    +0.000 C 
ATOM     15  C   UNL     1       2.189   6.124  20.701  0.00  0.00    +0.000 C 
ATOM     16  C   UNL     1       2.162   7.513  20.039  0.00  0.00    +0.000 C 
ATOM     17  C   UNL     1       2.970   7.485  18.733  0.00  0.00    +0.000 C 
ATOM     18  C   UNL     1       2.541   6.366  17.782  0.00  0.00    +0.000 C 
BRANCH  13  20
ATOM     19  N   UNL     1       4.840   4.886  17.650  0.00  0.00    +0.000 N 
ATOM     20  C   UNL     1       3.931   4.384  18.565  0.00  0.00    +0.000 C 
ATOM     21  O   UNL     1       4.235   3.562  19.416  0.00  0.00    +0.000 OA
ATOM     22  H   UNL     1       4.554   5.591  16.996  0.00  0.00    +0.000 HD
BRANCH  19  23
ATOM     23  C   UNL     1       6.211   4.413  17.614  0.00  0.00    +0.000 C 
BRANCH  23  25
ATOM     24  C   UNL     1       7.116   6.761  17.526  0.00  0.00    +0.000 C 
ATOM     25  C   UNL     1       7.169   5.424  18.239  0.00  0.00    +0.000 C 
ENDBRANCH  23  25
ENDBRANCH  19  23
ENDBRANCH  13  20
ENDBRANCH  12  16
ENDBRANCH   1  12
BRANCH   9  26
ATOM     26  C   UNL     1       1.649  12.798  19.557  0.00  0.00    +0.000 C 
BRANCH  26  27
ATOM     27  C   UNL     1       2.554  13.774  20.347  0.00  0.00    +0.000 C 
ATOM     28  O   UNL     1       3.225  13.442  21.323  0.00  0.00    +0.000 OA
ATOM     29  N   UNL     1       2.490  15.099  19.927  0.00  0.00    +0.000 N 
ATOM     30  C   UNL     1       3.121  16.179  20.660  0.00  0.00    +0.000 C 
ATOM     31  C   UNL     1       2.539  17.420  20.000  0.00  0.00    +0.000 C 
ATOM     32  C   UNL     1       2.427  17.020  18.532  0.00  0.00    +0.000 C 
ATOM     33  C   UNL     1       2.274  15.502  18.549  0.00  0.00    +0.000 C 
ENDBRANCH  26  27
ENDBRANCH   9  26
TORSDOF 7
ENDMDL
MODEL 8
REMARK VINA RESULT:      -6.8      3.543      6.602
REMARK  Name = 
REMARK  8 active torsions:
REMARK  status: ('A' for Active; 'I' for Inactive)
REMARK    1  A    between atoms: C_1  and  C_2
REMARK    2  A    between atoms: C_2  and  C_3
REMARK    3  A    between atoms: C_3  and  N_4
REMARK    4  A    between atoms: C_5  and  C_7
REMARK    5  A    between atoms: C_10  and  C_11
REMARK    6  A    between atoms: C_11  and  N_12
REMARK    7  A    between atoms: N_20  and  C_21
REMARK    8  A    between atoms: C_21  and  C_22
REMARK                            x       y       z     vdW  Elec       q    Type
REMARK                         _______ _______ _______ _____ _____    ______ ____
ROOT
ATOM      1  N   UNL     1       0.555   9.463  20.223  0.00  0.00    +0.000 N 
ATOM      2  C   UNL     1      -0.176   9.511  21.422  0.00  0.00    +0.000 A 
ATOM      3  O   UNL     1      -0.582   8.505  21.993  0.00  0.00    +0.000 OA
ATOM      4  C   UNL     1      -0.420  10.857  21.872  0.00  0.00    +0.000 A 
ATOM      5  S   UNL     1      -1.484  11.228  23.137  0.00  0.00    +0.000 S 
ATOM      6  C   UNL     1      -1.188  12.904  22.943  0.00  0.00    +0.000 A 
ATOM      7  C   UNL     1      -0.248  13.154  21.964  0.00  0.00    +0.000 A 
ATOM      8  C   UNL     1       0.165  11.959  21.309  0.00  0.00    +0.000 A 
ATOM      9  N   UNL     1       0.983  11.814  20.187  0.00  0.00    +0.000 N 
ATOM     10  C   UNL     1       0.897  10.601  19.483  0.00  0.00    +0.000 A 
ATOM     11  O   UNL     1       1.099  10.547  18.267  0.00  0.00    +0.000 OA
ENDROOT
BRANCH   1  12
ATOM     12  C   UNL     1       0.800   8.156  19.612  0.00  0.00    +0.000 C 
BRANCH  12  16
ATOM     13  C   UNL     1       2.565   5.045  18.332  0.00  0.00    +0.000 C 
ATOM     14  C   UNL     1       1.801   5.102  19.663  0.00  0.00    +0.000 C 
ATOM     15  C   UNL     1       2.242   6.251  20.570  0.00  0.00    +0.000 C 
ATOM     16  C   UNL     1       2.233   7.624  19.874  0.00  0.00    +0.000 C 
ATOM     17  C   UNL     1       3.044   7.553  18.571  0.00  0.00    +0.000 C 
ATOM     18  C   UNL     1       2.603   6.416  17.647  0.00  0.00    +0.000 C 
BRANCH  13  20
ATOM     19  N   UNL     1       4.886   4.914  17.564  0.00  0.00    +0.000 N 
ATOM     20  C   UNL     1       3.967   4.437  18.482  0.00  0.00    +0.000 C 
ATOM     21  O   UNL     1       4.257   3.626  19.348  0.00  0.00    +0.000 OA
ATOM     22  H   UNL     1       4.612   5.612  16.898  0.00  0.00    +0.000 HD
BRANCH  19  23
ATOM     23  C   UNL     1       6.252   4.426  17.544  0.00  0.00    +0.000 C 
BRANCH  23  25
ATOM     24  C   UNL     1       6.813   6.876  17.410  0.00  0.00    +0.000 C 
ATOM     25  C   UNL     1       7.244   5.519  17.930  0.00  0.00    +0.000 C 
ENDBRANCH  23  25
ENDBRANCH  19  23
ENDBRANCH  13  20
ENDBRANCH  12  16
ENDBRANCH   1  12
BRANCH   9  26
ATOM     26  C   UNL     1       1.613  12.945  19.499  0.00  0.00    +0.000 C 
BRANCH  26  27
ATOM     27  C   UNL     1       0.729  14.065  18.900  0.00  0.00    +0.000 C 
ATOM     28  O   UNL     1      -0.271  13.851  18.214  0.00  0.00    +0.000 OA
ATOM     29  N   UNL     1       1.199  15.358  19.115  0.00  0.00    +0.000 N 
ATOM     30  C   UNL     1       0.608  16.517  18.476  0.00  0.00    +0.000 C 
ATOM     31  C   UNL     1       1.614  17.617  18.776  0.00  0.00    +0.000 C 
ATOM     32  C   UNL     1       2.100  17.278  20.183  0.00  0.00    +0.000 C 
ATOM     33  C   UNL     1       1.919  15.768  20.308  0.00  0.00    +0.000 C 
ENDBRANCH  26  27
ENDBRANCH   9  26
TORSDOF 7
ENDMDL
MODEL 9
REMARK VINA RESULT:      -6.8      2.130      8.692
REMARK  Name = 
REMARK  8 active torsions:
REMARK  status: ('A' for Active; 'I' for Inactive)
REMARK    1  A    between atoms: C_1  and  C_2
REMARK    2  A    between atoms: C_2  and  C_3
REMARK    3  A    between atoms: C_3  and  N_4
REMARK    4  A    between atoms: C_5  and  C_7
REMARK    5  A    between atoms: C_10  and  C_11
REMARK    6  A    between atoms: C_11  and  N_12
REMARK    7  A    between atoms: N_20  and  C_21
REMARK    8  A    between atoms: C_21  and  C_22
REMARK                            x       y       z     vdW  Elec       q    Type
REMARK                         _______ _______ _______ _____ _____    ______ ____
ROOT
ATOM      1  N   UNL     1       2.831   6.564  19.115  0.00  0.00    +0.000 N 
ATOM      2  C   UNL     1       2.447   5.535  19.990  0.00  0.00    +0.000 A 
ATOM      3  O   UNL     1       1.855   5.745  21.044  0.00  0.00    +0.000 OA
ATOM      4  C   UNL     1       2.857   4.232  19.534  0.00  0.00    +0.000 A 
ATOM      5  S   UNL     1       2.760   2.843  20.499  0.00  0.00    +0.000 S 
ATOM      6  C   UNL     1       3.445   1.886  19.254  0.00  0.00    +0.000 A 
ATOM      7  C   UNL     1       3.684   2.619  18.110  0.00  0.00    +0.000 A 
ATOM      8  C   UNL     1       3.382   3.998  18.291  0.00  0.00    +0.000 A 
ATOM      9  N   UNL     1       3.621   5.067  17.426  0.00  0.00    +0.000 N 
ATOM     10  C   UNL     1       3.635   6.356  17.987  0.00  0.00    +0.000 A 
ATOM     11  O   UNL     1       4.335   7.256  17.515  0.00  0.00    +0.000 OA
ENDROOT
BRANCH   1  12
ATOM     12  C   UNL     1       2.549   7.947  19.502  0.00  0.00    +0.000 C 
BRANCH  12  16
ATOM     13  C   UNL     1       0.894  11.362  19.670  0.00  0.00    +0.000 C 
ATOM     14  C   UNL     1       0.831  10.330  20.805  0.00  0.00    +0.000 C 
ATOM     15  C   UNL     1       0.338   8.956  20.353  0.00  0.00    +0.000 C 
ATOM     16  C   UNL     1       1.107   8.393  19.144  0.00  0.00    +0.000 C 
ATOM     17  C   UNL     1       1.114   9.424  18.005  0.00  0.00    +0.000 C 
ATOM     18  C   UNL     1       1.619  10.801  18.441  0.00  0.00    +0.000 C 
BRANCH  13  20
ATOM     19  N   UNL     1      -1.368  11.976  20.378  0.00  0.00    +0.000 N 
ATOM     20  C   UNL     1      -0.485  11.933  19.313  0.00  0.00    +0.000 C 
ATOM     21  O   UNL     1      -0.775  12.340  18.198  0.00  0.00    +0.000 OA
ATOM     22  H   UNL     1      -1.071  11.670  21.287  0.00  0.00    +0.000 HD
BRANCH  19  23
ATOM     23  C   UNL     1      -2.725  12.460  20.212  0.00  0.00    +0.000 C 
BRANCH  23  25
ATOM     24  C   UNL     1      -2.516  12.295  22.716  0.00  0.00    +0.000 C 
ATOM     25  C   UNL     1      -3.391  12.733  21.558  0.00  0.00    +0.000 C 
ENDBRANCH  23  25
ENDBRANCH  19  23
ENDBRANCH  13  20
ENDBRANCH  12  16
ENDBRANCH   1  12
BRANCH   9  26
ATOM     26  C   UNL     1       4.218   4.909  16.097  0.00  0.00    +0.000 C 
BRANCH  26  27
ATOM     27  C   UNL     1       5.758   4.867  15.950  0.00  0.00    +0.000 C 
ATOM     28  O   UNL     1       6.537   5.046  16.886  0.00  0.00    +0.000 OA
ATOM     29  N   UNL     1       6.216   4.700  14.646  0.00  0.00    +0.000 N 
ATOM     30  C   UNL     1       7.617   4.820  14.292  0.00  0.00    +0.000 C 
ATOM     31  C   UNL     1       7.579   4.851  12.772  0.00  0.00    +0.000 C 
ATOM     32  C   UNL     1       6.447   3.887  12.427  0.00  0.00    +0.000 C 
ATOM     33  C   UNL     1       5.520   3.919  13.639  0.00  0.00    +0.000 C 
ENDBRANCH  26  27
ENDBRANCH   9  26
TORSDOF 7
ENDMDL
