MODEL 1
REMARK VINA RESULT:      -7.7      0.000      0.000
REMARK  Name = 
REMARK  4 active torsions:
REMARK  status: ('A' for Active; 'I' for Inactive)
REMARK    1  A    between atoms: C_1  and  C_2
REMARK    2  A    between atoms: C_7  and  N_8
REMARK    3  A    between atoms: C_9  and  C_11
REMARK    4  A    between atoms: C_11  and  N_12
REMARK                            x       y       z     vdW  Elec       q    Type
REMARK                         _______ _______ _______ _____ _____    ______ ____
ROOT
ATOM      1  N   UNL     1       3.005   6.287  19.800  0.00  0.00    +0.000 N 
ATOM      2  C   UNL     1       2.620   4.969  19.621  0.00  0.00    +0.000 C 
ATOM      3  O   UNL     1       1.454   4.579  19.514  0.00  0.00    +0.000 OA
ATOM      4  H   UNL     1       4.004   6.489  19.748  0.00  0.00    +0.000 HD
ENDROOT
BRANCH   1  11
ATOM      5  C   UNL     1       2.803   8.167  17.546  0.00  0.00    +0.000 C 
ATOM      6  C   UNL     1       2.030   8.318  18.829  0.00  0.00    +0.000 A 
ATOM      7  C   UNL     1       1.152   9.416  18.939  0.00  0.00    +0.000 A 
ATOM      8  C   UNL     1       0.400   9.623  20.093  0.00  0.00    +0.000 A 
ATOM      9  C   UNL     1       0.534   8.751  21.163  0.00  0.00    +0.000 A 
ATOM     10  C   UNL     1       1.402   7.661  21.070  0.00  0.00    +0.000 A 
ATOM     11  C   UNL     1       2.143   7.412  19.906  0.00  0.00    +0.000 A 
ENDBRANCH   1  11
BRANCH   2  12
ATOM     12  C   UNL     1       3.716   3.920  19.619  0.00  0.00    +0.000 C 
BRANCH  12  13
ATOM     13  N   UNL     1       4.960   4.337  19.017  0.00  0.00    +0.000 N 
ATOM     14  N   UNL     1       5.979   4.725  19.812  0.00  0.00    +0.000 NA
ATOM     15  N   UNL     1       7.009   5.014  19.030  0.00  0.00    +0.000 NA
ATOM     16  C   UNL     1       6.638   4.781  17.734  0.00  0.00    +0.000 A 
ATOM     17  C   UNL     1       7.363   4.919  16.542  0.00  0.00    +0.000 A 
ATOM     18  C   UNL     1       6.729   4.604  15.334  0.00  0.00    +0.000 A 
ATOM     19  C   UNL     1       5.405   4.158  15.315  0.00  0.00    +0.000 A 
ATOM     20  C   UNL     1       4.667   4.012  16.497  0.00  0.00    +0.000 A 
ATOM     21  C   UNL     1       5.318   4.340  17.693  0.00  0.00    +0.000 A 
ENDBRANCH  12  13
ENDBRANCH   2  12
TORSDOF 3
ENDMDL
MODEL 2
REMARK VINA RESULT:      -7.2      1.234      1.893
REMARK  Name = 
REMARK  4 active torsions:
REMARK  status: ('A' for Active; 'I' for Inactive)
REMARK    1  A    between atoms: C_1  and  C_2
REMARK    2  A    between atoms: C_7  and  N_8
REMARK    3  A    between atoms: C_9  and  C_11
REMARK    4  A    between atoms: C_11  and  N_12
REMARK                            x       y       z     vdW  Elec       q    Type
REMARK                         _______ _______ _______ _____ _____    ______ ____
ROOT
ATOM      1  N   UNL     1       2.575   6.679  20.108  0.00  0.00    +0.000 N 
ATOM      2  C   UNL     1       2.140   5.379  20.302  0.00  0.00    +0.000 C 
ATOM      3  O   UNL     1       0.978   5.050  20.552  0.00  0.00    +0.000 OA
ATOM      4  H   UNL     1       3.535   6.803  19.785  0.00  0.00    +0.000 HD
ENDROOT
BRANCH   1  11
ATOM      5  C   UNL     1       2.343   8.401  17.734  0.00  0.00    +0.000 C 
ATOM      6  C   UNL     1       1.652   8.686  19.041  0.00  0.00    +0.000 A 
ATOM      7  C   UNL     1       0.840   9.837  19.115  0.00  0.00    +0.000 A 
ATOM      8  C   UNL     1       0.166  10.167  20.288  0.00  0.00    +0.000 A 
ATOM      9  C   UNL     1       0.316   9.368  21.411  0.00  0.00    +0.000 A 
ATOM     10  C   UNL     1       1.120   8.227  21.355  0.00  0.00    +0.000 A 
ATOM     11  C   UNL     1       1.780   7.855  20.176  0.00  0.00    +0.000 A 
ENDBRANCH   1  11
BRANCH   2  12
ATOM     12  C   UNL     1       3.189   4.283  20.263  0.00  0.00    +0.000 C 
BRANCH  12  13
ATOM     13  N   UNL     1       3.863   4.126  18.997  0.00  0.00    +0.000 N 
ATOM     14  N   UNL     1       3.211   3.541  17.972  0.00  0.00    +0.000 NA
ATOM     15  N   UNL     1       4.019   3.556  16.922  0.00  0.00    +0.000 NA
ATOM     16  C   UNL     1       5.182   4.177  17.288  0.00  0.00    +0.000 A 
ATOM     17  C   UNL     1       6.337   4.454  16.545  0.00  0.00    +0.000 A 
ATOM     18  C   UNL     1       7.397   5.116  17.179  0.00  0.00    +0.000 A 
ATOM     19  C   UNL     1       7.303   5.496  18.521  0.00  0.00    +0.000 A 
ATOM     20  C   UNL     1       6.154   5.230  19.276  0.00  0.00    +0.000 A 
ATOM     21  C   UNL     1       5.111   4.561  18.625  0.00  0.00    +0.000 A 
ENDBRANCH  12  13
ENDBRANCH   2  12
TORSDOF 3
ENDMDL
MODEL 3
REMARK VINA RESULT:      -7.1      3.385      5.689
REMARK  Name = 
REMARK  4 active torsions:
REMARK  status: ('A' for Active; 'I' for Inactive)
REMARK    1  A    between atoms: C_1  and  C_2
REMARK    2  A    between atoms: C_7  and  N_8
REMARK    3  A    between atoms: C_9  and  C_11
REMARK    4  A    between atoms: C_11  and  N_12
REMARK                            x       y       z     vdW  Elec       q    Type
REMARK                         _______ _______ _______ _____ _____    ______ ____
ROOT
ATOM      1  N   UNL     1       5.363   4.595  17.870  0.00  0.00    +0.000 N 
ATOM      2  C   UNL     1       5.286   3.647  16.865  0.00  0.00    +0.000 C 
ATOM      3  O   UNL     1       6.018   3.603  15.873  0.00  0.00    +0.000 OA
ATOM      4  H   UNL     1       4.782   4.445  18.695  0.00  0.00    +0.000 HD
ENDROOT
BRANCH   1  11
ATOM      5  C   UNL     1       4.918   6.952  16.167  0.00  0.00    +0.000 C 
ATOM      6  C   UNL     1       6.067   6.826  17.131  0.00  0.00    +0.000 A 
ATOM      7  C   UNL     1       6.966   7.909  17.225  0.00  0.00    +0.000 A 
ATOM      8  C   UNL     1       8.052   7.871  18.095  0.00  0.00    +0.000 A 
ATOM      9  C   UNL     1       8.272   6.737  18.864  0.00  0.00    +0.000 A 
ATOM     10  C   UNL     1       7.394   5.654  18.779  0.00  0.00    +0.000 A 
ATOM     11  C   UNL     1       6.274   5.684  17.936  0.00  0.00    +0.000 A 
ENDBRANCH   1  11
BRANCH   2  12
ATOM     12  C   UNL     1       4.174   2.620  16.964  0.00  0.00    +0.000 C 
BRANCH  12  13
ATOM     13  N   UNL     1       2.998   3.059  17.677  0.00  0.00    +0.000 N 
ATOM     14  N   UNL     1       1.959   3.569  16.984  0.00  0.00    +0.000 NA
ATOM     15  N   UNL     1       1.000   3.853  17.852  0.00  0.00    +0.000 NA
ATOM     16  C   UNL     1       1.434   3.495  19.100  0.00  0.00    +0.000 A 
ATOM     17  C   UNL     1       0.794   3.579  20.344  0.00  0.00    +0.000 A 
ATOM     18  C   UNL     1       1.480   3.132  21.480  0.00  0.00    +0.000 A 
ATOM     19  C   UNL     1       2.772   2.609  21.376  0.00  0.00    +0.000 A 
ATOM     20  C   UNL     1       3.425   2.516  20.140  0.00  0.00    +0.000 A 
ATOM     21  C   UNL     1       2.723   2.976  19.019  0.00  0.00    +0.000 A 
ENDBRANCH  12  13
ENDBRANCH   2  12
TORSDOF 3
ENDMDL
MODEL 4
REMARK VINA RESULT:      -7.1      0.763      1.695
REMARK  Name = 
REMARK  4 active torsions:
REMARK  status: ('A' for Active; 'I' for Inactive)
REMARK    1  A    between atoms: C_1  and  C_2
REMARK    2  A    between atoms: C_7  and  N_8
REMARK    3  A    between atoms: C_9  and  C_11
REMARK    4  A    between atoms: C_11  and  N_12
REMARK                            x       y       z     vdW  Elec       q    Type
REMARK                         _______ _______ _______ _____ _____    ______ ____
ROOT
ATOM      1  N   UNL     1       2.858   7.084  19.619  0.00  0.00    +0.000 N 
ATOM      2  C   UNL     1       2.779   5.781  19.159  0.00  0.00    +0.000 C 
ATOM      3  O   UNL     1       1.906   5.347  18.403  0.00  0.00    +0.000 OA
ATOM      4  H   UNL     1       3.698   7.343  20.137  0.00  0.00    +0.000 HD
ENDROOT
BRANCH   1  11
ATOM      5  C   UNL     1       1.211   8.219  21.776  0.00  0.00    +0.000 C 
ATOM      6  C   UNL     1       1.164   8.701  20.351  0.00  0.00    +0.000 A 
ATOM      7  C   UNL     1       0.290   9.766  20.047  0.00  0.00    +0.000 A 
ATOM      8  C   UNL     1       0.191  10.270  18.753  0.00  0.00    +0.000 A 
ATOM      9  C   UNL     1       0.945   9.699  17.737  0.00  0.00    +0.000 A 
ATOM     10  C   UNL     1       1.812   8.642  18.021  0.00  0.00    +0.000 A 
ATOM     11  C   UNL     1       1.954   8.141  19.323  0.00  0.00    +0.000 A 
ENDBRANCH   1  11
BRANCH   2  12
ATOM     12  C   UNL     1       3.814   4.799  19.676  0.00  0.00    +0.000 C 
BRANCH  12  13
ATOM     13  N   UNL     1       5.097   4.859  19.018  0.00  0.00    +0.000 N 
ATOM     14  N   UNL     1       6.206   5.076  19.754  0.00  0.00    +0.000 NA
ATOM     15  N   UNL     1       7.245   5.044  18.932  0.00  0.00    +0.000 NA
ATOM     16  C   UNL     1       6.783   4.780  17.671  0.00  0.00    +0.000 A 
ATOM     17  C   UNL     1       7.475   4.633  16.462  0.00  0.00    +0.000 A 
ATOM     18  C   UNL     1       6.741   4.360  15.301  0.00  0.00    +0.000 A 
ATOM     19  C   UNL     1       5.351   4.231  15.347  0.00  0.00    +0.000 A 
ATOM     20  C   UNL     1       4.644   4.372  16.548  0.00  0.00    +0.000 A 
ATOM     21  C   UNL     1       5.396   4.653  17.694  0.00  0.00    +0.000 A 
ENDBRANCH  12  13
ENDBRANCH   2  12
TORSDOF 3
ENDMDL
MODEL 5
REMARK VINA RESULT:      -7.0      1.432      1.856
REMARK  Name = 
REMARK  4 active torsions:
REMARK  status: ('A' for Active; 'I' for Inactive)
REMARK    1  A    between atoms: C_1  and  C_2
REMARK    2  A    between atoms: C_7  and  N_8
REMARK    3  A    between atoms: C_9  and  C_11
REMARK    4  A    between atoms: C_11  and  N_12
REMARK                            x       y       z     vdW  Elec       q    Type
REMARK                         _______ _______ _______ _____ _____    ______ ____
ROOT
ATOM      1  N   UNL     1       2.531   7.003  20.221  0.00  0.00    +0.000 N 
ATOM      2  C   UNL     1       2.238   5.650  20.200  0.00  0.00    +0.000 C 
ATOM      3  O   UNL     1       1.102   5.170  20.227  0.00  0.00    +0.000 OA
ATOM      4  H   UNL     1       3.504   7.270  20.068  0.00  0.00    +0.000 HD
ENDROOT
BRANCH   1  11
ATOM      5  C   UNL     1       2.062   8.674  17.846  0.00  0.00    +0.000 C 
ATOM      6  C   UNL     1       1.352   8.874  19.158  0.00  0.00    +0.000 A 
ATOM      7  C   UNL     1       0.402   9.913  19.237  0.00  0.00    +0.000 A 
ATOM      8  C   UNL     1      -0.299  10.160  20.415  0.00  0.00    +0.000 A 
ATOM      9  C   UNL     1      -0.040   9.389  21.539  0.00  0.00    +0.000 A 
ATOM     10  C   UNL     1       0.902   8.359  21.478  0.00  0.00    +0.000 A 
ATOM     11  C   UNL     1       1.594   8.070  20.294  0.00  0.00    +0.000 A 
ENDBRANCH   1  11
BRANCH   2  12
ATOM     12  C   UNL     1       3.410   4.687  20.205  0.00  0.00    +0.000 C 
BRANCH  12  13
ATOM     13  N   UNL     1       3.816   4.210  18.905  0.00  0.00    +0.000 N 
ATOM     14  N   UNL     1       3.550   2.934  18.558  0.00  0.00    +0.000 NA
ATOM     15  N   UNL     1       3.978   2.758  17.317  0.00  0.00    +0.000 NA
ATOM     16  C   UNL     1       4.497   3.945  16.873  0.00  0.00    +0.000 A 
ATOM     17  C   UNL     1       5.061   4.284  15.636  0.00  0.00    +0.000 A 
ATOM     18  C   UNL     1       5.520   5.594  15.447  0.00  0.00    +0.000 A 
ATOM     19  C   UNL     1       5.412   6.544  16.467  0.00  0.00    +0.000 A 
ATOM     20  C   UNL     1       4.848   6.222  17.708  0.00  0.00    +0.000 A 
ATOM     21  C   UNL     1       4.405   4.905  17.878  0.00  0.00    +0.000 A 
ENDBRANCH  12  13
ENDBRANCH   2  12
TORSDOF 3
ENDMDL
MODEL 6
REMARK VINA RESULT:      -7.0      2.654      4.303
REMARK  Name = 
REMARK  4 active torsions:
REMARK  status: ('A' for Active; 'I' for Inactive)
REMARK    1  A    between atoms: C_1  and  C_2
REMARK    2  A    between atoms: C_7  and  N_8
REMARK    3  A    between atoms: C_9  and  C_11
REMARK    4  A    between atoms: C_11  and  N_12
REMARK                            x       y       z     vdW  Elec       q    Type
REMARK                         _______ _______ _______ _____ _____    ______ ____
ROOT
ATOM      1  N   UNL     1       3.066   5.132  17.577  0.00  0.00    +0.000 N 
ATOM      2  C   UNL     1       4.438   5.090  17.396  0.00  0.00    +0.000 C 
ATOM      3  O   UNL     1       5.199   4.279  17.930  0.00  0.00    +0.000 OA
ATOM      4  H   UNL     1       2.539   5.772  16.981  0.00  0.00    +0.000 HD
ENDROOT
BRANCH   1  11
ATOM      5  C   UNL     1       2.198   6.085  20.222  0.00  0.00    +0.000 C 
ATOM      6  C   UNL     1       1.865   4.722  19.676  0.00  0.00    +0.000 A 
ATOM      7  C   UNL     1       1.081   3.869  20.480  0.00  0.00    +0.000 A 
ATOM      8  C   UNL     1       0.728   2.594  20.046  0.00  0.00    +0.000 A 
ATOM      9  C   UNL     1       1.176   2.143  18.813  0.00  0.00    +0.000 A 
ATOM     10  C   UNL     1       1.957   2.974  18.007  0.00  0.00    +0.000 A 
ATOM     11  C   UNL     1       2.296   4.274  18.408  0.00  0.00    +0.000 A 
ENDBRANCH   1  11
BRANCH   2  12
ATOM     12  C   UNL     1       5.056   6.165  16.522  0.00  0.00    +0.000 C 
BRANCH  12  13
ATOM     13  N   UNL     1       6.013   5.689  15.552  0.00  0.00    +0.000 N 
ATOM     14  N   UNL     1       7.319   5.979  15.718  0.00  0.00    +0.000 NA
ATOM     15  N   UNL     1       7.987   5.399  14.732  0.00  0.00    +0.000 NA
ATOM     16  C   UNL     1       7.091   4.719  13.953  0.00  0.00    +0.000 A 
ATOM     17  C   UNL     1       7.292   3.940  12.805  0.00  0.00    +0.000 A 
ATOM     18  C   UNL     1       6.179   3.346  12.197  0.00  0.00    +0.000 A 
ATOM     19  C   UNL     1       4.897   3.521  12.725  0.00  0.00    +0.000 A 
ATOM     20  C   UNL     1       4.679   4.295  13.872  0.00  0.00    +0.000 A 
ATOM     21  C   UNL     1       5.805   4.885  14.459  0.00  0.00    +0.000 A 
ENDBRANCH  12  13
ENDBRANCH   2  12
TORSDOF 3
ENDMDL
MODEL 7
REMARK VINA RESULT:      -7.0      2.248      3.171
REMARK  Name = 
REMARK  4 active torsions:
REMARK  status: ('A' for Active; 'I' for Inactive)
REMARK    1  A    between atoms: C_1  and  C_2
REMARK    2  A    between atoms: C_7  and  N_8
REMARK    3  A    between atoms: C_9  and  C_11
REMARK    4  A    between atoms: C_11  and  N_12
REMARK                            x       y       z     vdW  Elec       q    Type
REMARK                         _______ _______ _______ _____ _____    ______ ____
ROOT
ATOM      1  N   UNL     1       3.482   4.697  17.681  0.00  0.00    +0.000 N 
ATOM      2  C   UNL     1       4.646   3.956  17.800  0.00  0.00    +0.000 C 
ATOM      3  O   UNL     1       5.296   3.818  18.839  0.00  0.00    +0.000 OA
ATOM      4  H   UNL     1       2.976   4.627  16.798  0.00  0.00    +0.000 HD
ENDROOT
BRANCH   1  11
ATOM      5  C   UNL     1       3.455   7.636  17.547  0.00  0.00    +0.000 C 
ATOM      6  C   UNL     1       2.812   6.846  18.656  0.00  0.00    +0.000 A 
ATOM      7  C   UNL     1       2.151   7.564  19.674  0.00  0.00    +0.000 A 
ATOM      8  C   UNL     1       1.530   6.907  20.732  0.00  0.00    +0.000 A 
ATOM      9  C   UNL     1       1.584   5.523  20.804  0.00  0.00    +0.000 A 
ATOM     10  C   UNL     1       2.239   4.797  19.806  0.00  0.00    +0.000 A 
ATOM     11  C   UNL     1       2.841   5.435  18.712  0.00  0.00    +0.000 A 
ENDBRANCH   1  11
BRANCH   2  12
ATOM     12  C   UNL     1       5.193   3.317  16.537  0.00  0.00    +0.000 C 
BRANCH  12  13
ATOM     13  N   UNL     1       6.058   4.162  15.749  0.00  0.00    +0.000 N 
ATOM     14  N   UNL     1       6.775   5.125  16.364  0.00  0.00    +0.000 NA
ATOM     15  N   UNL     1       7.512   5.726  15.441  0.00  0.00    +0.000 NA
ATOM     16  C   UNL     1       7.271   5.116  14.240  0.00  0.00    +0.000 A 
ATOM     17  C   UNL     1       7.805   5.368  12.969  0.00  0.00    +0.000 A 
ATOM     18  C   UNL     1       7.376   4.578  11.895  0.00  0.00    +0.000 A 
ATOM     19  C   UNL     1       6.440   3.558  12.085  0.00  0.00    +0.000 A 
ATOM     20  C   UNL     1       5.898   3.292  13.349  0.00  0.00    +0.000 A 
ATOM     21  C   UNL     1       6.335   4.099  14.407  0.00  0.00    +0.000 A 
ENDBRANCH  12  13
ENDBRANCH   2  12
TORSDOF 3
ENDMDL
MODEL 8
REMARK VINA RESULT:      -6.9      2.064      3.072
REMARK  Name = 
REMARK  4 active torsions:
REMARK  status: ('A' for Active; 'I' for Inactive)
REMARK    1  A    between atoms: C_1  and  C_2
REMARK    2  A    between atoms: C_7  and  N_8
REMARK    3  A    between atoms: C_9  and  C_11
REMARK    4  A    between atoms: C_11  and  N_12
REMARK                            x       y       z     vdW  Elec       q    Type
REMARK                         _______ _______ _______ _____ _____    ______ ____
ROOT
ATOM      1  N   UNL     1       4.015   5.604  17.999  0.00  0.00    +0.000 N 
ATOM      2  C   UNL     1       3.666   4.512  17.222  0.00  0.00    +0.000 C 
ATOM      3  O   UNL     1       2.511   4.175  16.950  0.00  0.00    +0.000 OA
ATOM      4  H   UNL     1       5.006   5.844  18.043  0.00  0.00    +0.000 HD
ENDROOT
BRANCH   1  11
ATOM      5  C   UNL     1       2.716   4.830  20.523  0.00  0.00    +0.000 C 
ATOM      6  C   UNL     1       2.499   6.158  19.846  0.00  0.00    +0.000 A 
ATOM      7  C   UNL     1       1.634   7.079  20.473  0.00  0.00    +0.000 A 
ATOM      8  C   UNL     1       1.384   8.328  19.912  0.00  0.00    +0.000 A 
ATOM      9  C   UNL     1       1.973   8.665  18.701  0.00  0.00    +0.000 A 
ATOM     10  C   UNL     1       2.828   7.761  18.066  0.00  0.00    +0.000 A 
ATOM     11  C   UNL     1       3.122   6.512  18.629  0.00  0.00    +0.000 A 
ENDBRANCH   1  11
BRANCH   2  12
ATOM     12  C   UNL     1       4.794   3.630  16.719  0.00  0.00    +0.000 C 
BRANCH  12  13
ATOM     13  N   UNL     1       5.776   4.301  15.900  0.00  0.00    +0.000 N 
ATOM     14  N   UNL     1       6.617   5.186  16.472  0.00  0.00    +0.000 NA
ATOM     15  N   UNL     1       7.438   5.625  15.530  0.00  0.00    +0.000 NA
ATOM     16  C   UNL     1       7.123   4.989  14.360  0.00  0.00    +0.000 A 
ATOM     17  C   UNL     1       7.697   5.092  13.086  0.00  0.00    +0.000 A 
ATOM     18  C   UNL     1       7.170   4.311  12.049  0.00  0.00    +0.000 A 
ATOM     19  C   UNL     1       6.098   3.445  12.281  0.00  0.00    +0.000 A 
ATOM     20  C   UNL     1       5.514   3.328  13.549  0.00  0.00    +0.000 A 
ATOM     21  C   UNL     1       6.052   4.124  14.568  0.00  0.00    +0.000 A 
ENDBRANCH  12  13
ENDBRANCH   2  12
TORSDOF 3
ENDMDL
MODEL 9
REMARK VINA RESULT:      -6.9      3.076      4.539
REMARK  Name = 
REMARK  4 active torsions:
REMARK  status: ('A' for Active; 'I' for Inactive)
REMARK    1  A    between atoms: C_1  and  C_2
REMARK    2  A    between atoms: C_7  and  N_8
REMARK    3  A    between atoms: C_9  and  C_11
REMARK    4  A    between atoms: C_11  and  N_12
REMARK                            x       y       z     vdW  Elec       q    Type
REMARK                         _______ _______ _______ _____ _____    ______ ____
ROOT
ATOM      1  N   UNL     1       4.078   3.820  18.504  0.00  0.00    +0.000 N 
ATOM      2  C   UNL     1       3.915   3.566  17.153  0.00  0.00    +0.000 C 
ATOM      3  O   UNL     1       2.899   3.095  16.637  0.00  0.00    +0.000 OA
ATOM      4  H   UNL     1       4.919   4.326  18.783  0.00  0.00    +0.000 HD
ENDROOT
BRANCH   1  11
ATOM      5  C   UNL     1       4.669   1.805  20.565  0.00  0.00    +0.000 C 
ATOM      6  C   UNL     1       3.402   2.616  20.532  0.00  0.00    +0.000 A 
ATOM      7  C   UNL     1       2.459   2.400  21.558  0.00  0.00    +0.000 A 
ATOM      8  C   UNL     1       1.263   3.112  21.599  0.00  0.00    +0.000 A 
ATOM      9  C   UNL     1       0.980   4.031  20.599  0.00  0.00    +0.000 A 
ATOM     10  C   UNL     1       1.901   4.253  19.574  0.00  0.00    +0.000 A 
ATOM     11  C   UNL     1       3.127   3.574  19.531  0.00  0.00    +0.000 A 
ENDBRANCH   1  11
BRANCH   2  12
ATOM     12  C   UNL     1       5.104   3.832  16.249  0.00  0.00    +0.000 C 
BRANCH  12  13
ATOM     13  N   UNL     1       5.664   5.159  16.350  0.00  0.00    +0.000 N 
ATOM     14  N   UNL     1       5.234   6.121  15.509  0.00  0.00    +0.000 NA
ATOM     15  N   UNL     1       5.861   7.243  15.830  0.00  0.00    +0.000 NA
ATOM     16  C   UNL     1       6.676   6.985  16.898  0.00  0.00    +0.000 A 
ATOM     17  C   UNL     1       7.532   7.833  17.614  0.00  0.00    +0.000 A 
ATOM     18  C   UNL     1       8.262   7.298  18.683  0.00  0.00    +0.000 A 
ATOM     19  C   UNL     1       8.136   5.951  19.033  0.00  0.00    +0.000 A 
ATOM     20  C   UNL     1       7.283   5.091  18.330  0.00  0.00    +0.000 A 
ATOM     21  C   UNL     1       6.569   5.645  17.260  0.00  0.00    +0.000 A 
ENDBRANCH  12  13
ENDBRANCH   2  12
TORSDOF 3
ENDMDL
