MODEL 1
REMARK VINA RESULT:      -7.2      0.000      0.000
REMARK  Name = 
REMARK  6 active torsions:
REMARK  status: ('A' for Active; 'I' for Inactive)
REMARK    1  A    between atoms: C_1  and  C_2
REMARK    2  A    between atoms: C_6  and  C_7
REMARK    3  A    between atoms: N_8  and  N_9
REMARK    4  A    between atoms: C_10  and  C_11
REMARK    5  A    between atoms: C_16  and  O_17
REMARK    6  A    between atoms: O_17  and  C_18
REMARK                            x       y       z     vdW  Elec       q    Type
REMARK                         _______ _______ _______ _____ _____    ______ ____
ROOT
ATOM      1  N   UNL     1       3.803   4.290  18.583  0.00  0.00    +0.000 NA
ATOM      2  C   UNL     1       4.068   5.227  17.719  0.00  0.00    +0.000 C 
ENDROOT
BRANCH   1  10
ATOM      3  C   UNL     1       1.436   5.960  20.725  0.00  0.00    +0.000 C 
ATOM      4  C   UNL     1       2.565   4.928  20.634  0.00  0.00    +0.000 C 
ATOM      5  C   UNL     1       2.430   3.828  21.701  0.00  0.00    +0.000 C 
ATOM      6  C   UNL     1       1.300   2.854  21.406  0.00  0.00    +0.000 C 
ATOM      7  C   UNL     1       1.469   2.285  20.006  0.00  0.00    +0.000 C 
ATOM      8  C   UNL     1       1.569   3.401  18.956  0.00  0.00    +0.000 C 
ATOM      9  C   UNL     1       1.704   2.778  17.559  0.00  0.00    +0.000 C 
ATOM     10  N   UNL     1       2.626   4.405  19.253  0.00  0.00    +0.000 N 
ENDBRANCH   1  10
BRANCH   2  11
ATOM     11  C   UNL     1       5.193   5.056  16.770  0.00  0.00    +0.000 A 
ATOM     12  C   UNL     1       4.939   4.219  15.672  0.00  0.00    +0.000 A 
ATOM     13  C   UNL     1       5.868   4.082  14.642  0.00  0.00    +0.000 A 
ATOM     14  C   UNL     1       7.068   4.777  14.704  0.00  0.00    +0.000 A 
ATOM     15  C   UNL     1       7.331   5.613  15.792  0.00  0.00    +0.000 A 
ATOM     16  C   UNL     1       6.404   5.760  16.837  0.00  0.00    +0.000 A 
BRANCH  16  17
ATOM     17  O   UNL     1       6.796   6.654  17.789  0.00  0.00    +0.000 OA
BRANCH  17  18
ATOM     18  C   UNL     1       7.855   6.250  18.641  0.00  0.00    +0.000 C 
ATOM     19  F   UNL     1       8.598   7.353  18.908  0.00  0.00    +0.000 F 
ATOM     20  F   UNL     1       7.302   5.863  19.819  0.00  0.00    +0.000 F 
ENDBRANCH  17  18
ENDBRANCH  16  17
ENDBRANCH   2  11
TORSDOF 4
ENDMDL
MODEL 2
REMARK VINA RESULT:      -7.1      1.381      2.173
REMARK  Name = 
REMARK  6 active torsions:
REMARK  status: ('A' for Active; 'I' for Inactive)
REMARK    1  A    between atoms: C_1  and  C_2
REMARK    2  A    between atoms: C_6  and  C_7
REMARK    3  A    between atoms: N_8  and  N_9
REMARK    4  A    between atoms: C_10  and  C_11
REMARK    5  A    between atoms: C_16  and  O_17
REMARK    6  A    between atoms: O_17  and  C_18
REMARK                            x       y       z     vdW  Elec       q    Type
REMARK                         _______ _______ _______ _____ _____    ______ ____
ROOT
ATOM      1  N   UNL     1       3.958   2.718  17.969  0.00  0.00    +0.000 NA
ATOM      2  C   UNL     1       4.400   3.921  17.739  0.00  0.00    +0.000 C 
ENDROOT
BRANCH   1  10
ATOM      3  C   UNL     1       0.468   2.230  18.723  0.00  0.00    +0.000 C 
ATOM      4  C   UNL     1       1.588   3.246  18.472  0.00  0.00    +0.000 C 
ATOM      5  C   UNL     1       1.343   4.571  19.212  0.00  0.00    +0.000 C 
ATOM      6  C   UNL     1       1.563   4.460  20.713  0.00  0.00    +0.000 C 
ATOM      7  C   UNL     1       2.948   3.892  20.985  0.00  0.00    +0.000 C 
ATOM      8  C   UNL     1       3.157   2.555  20.260  0.00  0.00    +0.000 C 
ATOM      9  C   UNL     1       4.553   2.006  20.592  0.00  0.00    +0.000 C 
ATOM     10  N   UNL     1       2.886   2.620  18.799  0.00  0.00    +0.000 N 
ENDBRANCH   1  10
BRANCH   2  11
ATOM     11  C   UNL     1       5.393   4.147  16.662  0.00  0.00    +0.000 A 
ATOM     12  C   UNL     1       4.879   4.153  15.355  0.00  0.00    +0.000 A 
ATOM     13  C   UNL     1       5.685   4.485  14.267  0.00  0.00    +0.000 A 
ATOM     14  C   UNL     1       7.019   4.807  14.476  0.00  0.00    +0.000 A 
ATOM     15  C   UNL     1       7.539   4.807  15.772  0.00  0.00    +0.000 A 
ATOM     16  C   UNL     1       6.739   4.474  16.877  0.00  0.00    +0.000 A 
BRANCH  16  17
ATOM     17  O   UNL     1       7.391   4.576  18.071  0.00  0.00    +0.000 OA
BRANCH  17  18
ATOM     18  C   UNL     1       7.278   5.815  18.751  0.00  0.00    +0.000 C 
ATOM     19  F   UNL     1       6.462   5.615  19.817  0.00  0.00    +0.000 F 
ATOM     20  F   UNL     1       8.503   6.113  19.254  0.00  0.00    +0.000 F 
ENDBRANCH  17  18
ENDBRANCH  16  17
ENDBRANCH   2  11
TORSDOF 4
ENDMDL
MODEL 3
REMARK VINA RESULT:      -7.1      1.278      2.046
REMARK  Name = 
REMARK  6 active torsions:
REMARK  status: ('A' for Active; 'I' for Inactive)
REMARK    1  A    between atoms: C_1  and  C_2
REMARK    2  A    between atoms: C_6  and  C_7
REMARK    3  A    between atoms: N_8  and  N_9
REMARK    4  A    between atoms: C_10  and  C_11
REMARK    5  A    between atoms: C_16  and  O_17
REMARK    6  A    between atoms: O_17  and  C_18
REMARK                            x       y       z     vdW  Elec       q    Type
REMARK                         _______ _______ _______ _____ _____    ______ ____
ROOT
ATOM      1  N   UNL     1       4.144   4.525  18.620  0.00  0.00    +0.000 NA
ATOM      2  C   UNL     1       4.512   3.642  17.737  0.00  0.00    +0.000 C 
ENDROOT
BRANCH   1  10
ATOM      3  C   UNL     1       3.523   2.225  21.324  0.00  0.00    +0.000 C 
ATOM      4  C   UNL     1       3.195   2.610  19.877  0.00  0.00    +0.000 C 
ATOM      5  C   UNL     1       1.772   2.189  19.475  0.00  0.00    +0.000 C 
ATOM      6  C   UNL     1       0.696   3.052  20.116  0.00  0.00    +0.000 C 
ATOM      7  C   UNL     1       0.973   4.517  19.817  0.00  0.00    +0.000 C 
ATOM      8  C   UNL     1       2.388   4.921  20.256  0.00  0.00    +0.000 C 
ATOM      9  C   UNL     1       2.607   6.413  19.965  0.00  0.00    +0.000 C 
ATOM     10  N   UNL     1       3.457   4.053  19.693  0.00  0.00    +0.000 N 
ENDBRANCH   1  10
BRANCH   2  11
ATOM     11  C   UNL     1       5.473   4.019  16.674  0.00  0.00    +0.000 A 
ATOM     12  C   UNL     1       4.942   4.087  15.375  0.00  0.00    +0.000 A 
ATOM     13  C   UNL     1       5.709   4.557  14.310  0.00  0.00    +0.000 A 
ATOM     14  C   UNL     1       7.019   4.958  14.532  0.00  0.00    +0.000 A 
ATOM     15  C   UNL     1       7.555   4.896  15.821  0.00  0.00    +0.000 A 
ATOM     16  C   UNL     1       6.795   4.423  16.903  0.00  0.00    +0.000 A 
BRANCH  16  17
ATOM     17  O   UNL     1       7.454   4.481  18.096  0.00  0.00    +0.000 OA
BRANCH  17  18
ATOM     18  C   UNL     1       7.646   5.771  18.653  0.00  0.00    +0.000 C 
ATOM     19  F   UNL     1       6.605   6.542  18.247  0.00  0.00    +0.000 F 
ATOM     20  F   UNL     1       7.534   5.651  20.000  0.00  0.00    +0.000 F 
ENDBRANCH  17  18
ENDBRANCH  16  17
ENDBRANCH   2  11
TORSDOF 4
ENDMDL
MODEL 4
REMARK VINA RESULT:      -7.0      1.288      2.042
REMARK  Name = 
REMARK  6 active torsions:
REMARK  status: ('A' for Active; 'I' for Inactive)
REMARK    1  A    between atoms: C_1  and  C_2
REMARK    2  A    between atoms: C_6  and  C_7
REMARK    3  A    between atoms: N_8  and  N_9
REMARK    4  A    between atoms: C_10  and  C_11
REMARK    5  A    between atoms: C_16  and  O_17
REMARK    6  A    between atoms: O_17  and  C_18
REMARK                            x       y       z     vdW  Elec       q    Type
REMARK                         _______ _______ _______ _____ _____    ______ ____
ROOT
ATOM      1  N   UNL     1       4.187   3.037  18.173  0.00  0.00    +0.000 NA
ATOM      2  C   UNL     1       4.194   4.145  17.489  0.00  0.00    +0.000 C 
ENDROOT
BRANCH   1  10
ATOM      3  C   UNL     1       0.681   2.274  18.506  0.00  0.00    +0.000 C 
ATOM      4  C   UNL     1       1.753   3.370  18.507  0.00  0.00    +0.000 C 
ATOM      5  C   UNL     1       1.359   4.562  19.394  0.00  0.00    +0.000 C 
ATOM      6  C   UNL     1       1.449   4.250  20.880  0.00  0.00    +0.000 C 
ATOM      7  C   UNL     1       2.837   3.719  21.207  0.00  0.00    +0.000 C 
ATOM      8  C   UNL     1       3.194   2.510  20.330  0.00  0.00    +0.000 C 
ATOM      9  C   UNL     1       4.586   1.990  20.719  0.00  0.00    +0.000 C 
ATOM     10  N   UNL     1       3.053   2.769  18.872  0.00  0.00    +0.000 N 
ENDBRANCH   1  10
BRANCH   2  11
ATOM     11  C   UNL     1       5.274   4.397  16.506  0.00  0.00    +0.000 A 
ATOM     12  C   UNL     1       5.168   3.694  15.295  0.00  0.00    +0.000 A 
ATOM     13  C   UNL     1       6.046   3.943  14.241  0.00  0.00    +0.000 A 
ATOM     14  C   UNL     1       7.046   4.893  14.391  0.00  0.00    +0.000 A 
ATOM     15  C   UNL     1       7.160   5.598  15.592  0.00  0.00    +0.000 A 
ATOM     16  C   UNL     1       6.283   5.358  16.662  0.00  0.00    +0.000 A 
BRANCH  16  17
ATOM     17  O   UNL     1       6.500   6.170  17.736  0.00  0.00    +0.000 OA
BRANCH  17  18
ATOM     18  C   UNL     1       7.610   7.050  17.651  0.00  0.00    +0.000 C 
ATOM     19  F   UNL     1       7.115   8.310  17.563  0.00  0.00    +0.000 F 
ATOM     20  F   UNL     1       8.274   6.977  18.832  0.00  0.00    +0.000 F 
ENDBRANCH  17  18
ENDBRANCH  16  17
ENDBRANCH   2  11
TORSDOF 4
ENDMDL
MODEL 5
REMARK VINA RESULT:      -7.0      1.592      2.373
REMARK  Name = 
REMARK  6 active torsions:
REMARK  status: ('A' for Active; 'I' for Inactive)
REMARK    1  A    between atoms: C_1  and  C_2
REMARK    2  A    between atoms: C_6  and  C_7
REMARK    3  A    between atoms: N_8  and  N_9
REMARK    4  A    between atoms: C_10  and  C_11
REMARK    5  A    between atoms: C_16  and  O_17
REMARK    6  A    between atoms: O_17  and  C_18
REMARK                            x       y       z     vdW  Elec       q    Type
REMARK                         _______ _______ _______ _____ _____    ______ ____
ROOT
ATOM      1  N   UNL     1       4.613   4.570  17.551  0.00  0.00    +0.000 NA
ATOM      2  C   UNL     1       4.794   3.801  16.516  0.00  0.00    +0.000 C 
ENDROOT
BRANCH   1  10
ATOM      3  C   UNL     1       3.938   2.503  20.424  0.00  0.00    +0.000 C 
ATOM      4  C   UNL     1       3.848   2.635  18.900  0.00  0.00    +0.000 C 
ATOM      5  C   UNL     1       2.664   1.845  18.320  0.00  0.00    +0.000 C 
ATOM      6  C   UNL     1       1.319   2.493  18.615  0.00  0.00    +0.000 C 
ATOM      7  C   UNL     1       1.336   3.940  18.145  0.00  0.00    +0.000 C 
ATOM      8  C   UNL     1       2.509   4.715  18.762  0.00  0.00    +0.000 C 
ATOM      9  C   UNL     1       2.463   6.175  18.286  0.00  0.00    +0.000 C 
ATOM     10  N   UNL     1       3.831   4.070  18.543  0.00  0.00    +0.000 N 
ENDBRANCH   1  10
BRANCH   2  11
ATOM     11  C   UNL     1       5.822   4.151  15.508  0.00  0.00    +0.000 A 
ATOM     12  C   UNL     1       5.508   3.817  14.180  0.00  0.00    +0.000 A 
ATOM     13  C   UNL     1       6.331   4.210  13.127  0.00  0.00    +0.000 A 
ATOM     14  C   UNL     1       7.484   4.937  13.392  0.00  0.00    +0.000 A 
ATOM     15  C   UNL     1       7.804   5.276  14.708  0.00  0.00    +0.000 A 
ATOM     16  C   UNL     1       6.984   4.885  15.780  0.00  0.00    +0.000 A 
BRANCH  16  17
ATOM     17  O   UNL     1       7.415   5.345  16.990  0.00  0.00    +0.000 OA
BRANCH  17  18
ATOM     18  C   UNL     1       7.497   6.753  17.141  0.00  0.00    +0.000 C 
ATOM     19  F   UNL     1       6.225   7.225  17.188  0.00  0.00    +0.000 F 
ATOM     20  F   UNL     1       8.045   6.998  18.357  0.00  0.00    +0.000 F 
ENDBRANCH  17  18
ENDBRANCH  16  17
ENDBRANCH   2  11
TORSDOF 4
ENDMDL
MODEL 6
REMARK VINA RESULT:      -7.0      2.717      3.466
REMARK  Name = 
REMARK  6 active torsions:
REMARK  status: ('A' for Active; 'I' for Inactive)
REMARK    1  A    between atoms: C_1  and  C_2
REMARK    2  A    between atoms: C_6  and  C_7
REMARK    3  A    between atoms: N_8  and  N_9
REMARK    4  A    between atoms: C_10  and  C_11
REMARK    5  A    between atoms: C_16  and  O_17
REMARK    6  A    between atoms: O_17  and  C_18
REMARK                            x       y       z     vdW  Elec       q    Type
REMARK                         _______ _______ _______ _____ _____    ______ ____
ROOT
ATOM      1  N   UNL     1       4.309   3.575  18.835  0.00  0.00    +0.000 NA
ATOM      2  C   UNL     1       4.428   4.789  19.291  0.00  0.00    +0.000 C 
ENDROOT
BRANCH   1  10
ATOM      3  C   UNL     1       0.955   2.352  18.348  0.00  0.00    +0.000 C 
ATOM      4  C   UNL     1       1.836   3.452  18.953  0.00  0.00    +0.000 C 
ATOM      5  C   UNL     1       1.195   4.086  20.198  0.00  0.00    +0.000 C 
ATOM      6  C   UNL     1       1.228   3.170  21.412  0.00  0.00    +0.000 C 
ATOM      7  C   UNL     1       2.656   2.711  21.666  0.00  0.00    +0.000 C 
ATOM      8  C   UNL     1       3.263   2.053  20.418  0.00  0.00    +0.000 C 
ATOM      9  C   UNL     1       4.689   1.577  20.733  0.00  0.00    +0.000 C 
ATOM     10  N   UNL     1       3.186   2.903  19.199  0.00  0.00    +0.000 N 
ENDBRANCH   1  10
BRANCH   2  11
ATOM     11  C   UNL     1       5.482   5.679  18.751  0.00  0.00    +0.000 A 
ATOM     12  C   UNL     1       6.774   5.466  19.259  0.00  0.00    +0.000 A 
ATOM     13  C   UNL     1       7.873   6.147  18.736  0.00  0.00    +0.000 A 
ATOM     14  C   UNL     1       7.688   7.055  17.703  0.00  0.00    +0.000 A 
ATOM     15  C   UNL     1       6.407   7.273  17.189  0.00  0.00    +0.000 A 
ATOM     16  C   UNL     1       5.292   6.595  17.707  0.00  0.00    +0.000 A 
BRANCH  16  17
ATOM     17  O   UNL     1       4.129   6.885  17.055  0.00  0.00    +0.000 OA
BRANCH  17  18
ATOM     18  C   UNL     1       3.104   7.491  17.825  0.00  0.00    +0.000 C 
ATOM     19  F   UNL     1       2.563   8.477  17.067  0.00  0.00    +0.000 F 
ATOM     20  F   UNL     1       2.131   6.563  18.005  0.00  0.00    +0.000 F 
ENDBRANCH  17  18
ENDBRANCH  16  17
ENDBRANCH   2  11
TORSDOF 4
ENDMDL
MODEL 7
REMARK VINA RESULT:      -6.9      1.636      2.870
REMARK  Name = 
REMARK  6 active torsions:
REMARK  status: ('A' for Active; 'I' for Inactive)
REMARK    1  A    between atoms: C_1  and  C_2
REMARK    2  A    between atoms: C_6  and  C_7
REMARK    3  A    between atoms: N_8  and  N_9
REMARK    4  A    between atoms: C_10  and  C_11
REMARK    5  A    between atoms: C_16  and  O_17
REMARK    6  A    between atoms: O_17  and  C_18
REMARK                            x       y       z     vdW  Elec       q    Type
REMARK                         _______ _______ _______ _____ _____    ______ ____
ROOT
ATOM      1  N   UNL     1       4.603   4.316  16.844  0.00  0.00    +0.000 NA
ATOM      2  C   UNL     1       5.160   3.484  16.011  0.00  0.00    +0.000 C 
ENDROOT
BRANCH   1  10
ATOM      3  C   UNL     1       2.646   1.780  18.494  0.00  0.00    +0.000 C 
ATOM      4  C   UNL     1       2.631   3.128  17.763  0.00  0.00    +0.000 C 
ATOM      5  C   UNL     1       1.469   4.022  18.223  0.00  0.00    +0.000 C 
ATOM      6  C   UNL     1       1.682   4.599  19.615  0.00  0.00    +0.000 C 
ATOM      7  C   UNL     1       3.022   5.316  19.671  0.00  0.00    +0.000 C 
ATOM      8  C   UNL     1       4.169   4.393  19.236  0.00  0.00    +0.000 C 
ATOM      9  C   UNL     1       5.502   5.150  19.341  0.00  0.00    +0.000 C 
ATOM     10  N   UNL     1       3.957   3.765  17.904  0.00  0.00    +0.000 N 
ENDBRANCH   1  10
BRANCH   2  11
ATOM     11  C   UNL     1       6.090   3.991  14.975  0.00  0.00    +0.000 A 
ATOM     12  C   UNL     1       5.787   3.618  13.655  0.00  0.00    +0.000 A 
ATOM     13  C   UNL     1       6.506   4.137  12.579  0.00  0.00    +0.000 A 
ATOM     14  C   UNL     1       7.543   5.029  12.814  0.00  0.00    +0.000 A 
ATOM     15  C   UNL     1       7.851   5.407  14.123  0.00  0.00    +0.000 A 
ATOM     16  C   UNL     1       7.136   4.892  15.216  0.00  0.00    +0.000 A 
BRANCH  16  17
ATOM     17  O   UNL     1       7.531   5.407  16.415  0.00  0.00    +0.000 OA
BRANCH  17  18
ATOM     18  C   UNL     1       7.355   6.802  16.596  0.00  0.00    +0.000 C 
ATOM     19  F   UNL     1       6.020   7.033  16.656  0.00  0.00    +0.000 F 
ATOM     20  F   UNL     1       7.857   7.119  17.816  0.00  0.00    +0.000 F 
ENDBRANCH  17  18
ENDBRANCH  16  17
ENDBRANCH   2  11
TORSDOF 4
ENDMDL
MODEL 8
REMARK VINA RESULT:      -6.8      2.132      3.582
REMARK  Name = 
REMARK  6 active torsions:
REMARK  status: ('A' for Active; 'I' for Inactive)
REMARK    1  A    between atoms: C_1  and  C_2
REMARK    2  A    between atoms: C_6  and  C_7
REMARK    3  A    between atoms: N_8  and  N_9
REMARK    4  A    between atoms: C_10  and  C_11
REMARK    5  A    between atoms: C_16  and  O_17
REMARK    6  A    between atoms: O_17  and  C_18
REMARK                            x       y       z     vdW  Elec       q    Type
REMARK                         _______ _______ _______ _____ _____    ______ ____
ROOT
ATOM      1  N   UNL     1       4.219   4.470  19.271  0.00  0.00    +0.000 NA
ATOM      2  C   UNL     1       5.197   4.434  18.412  0.00  0.00    +0.000 C 
ENDROOT
BRANCH   1  10
ATOM      3  C   UNL     1       3.802   0.897  19.074  0.00  0.00    +0.000 C 
ATOM      4  C   UNL     1       3.479   2.255  18.440  0.00  0.00    +0.000 C 
ATOM      5  C   UNL     1       2.137   2.238  17.691  0.00  0.00    +0.000 C 
ATOM      6  C   UNL     1       0.937   2.210  18.626  0.00  0.00    +0.000 C 
ATOM      7  C   UNL     1       1.034   3.362  19.615  0.00  0.00    +0.000 C 
ATOM      8  C   UNL     1       2.370   3.338  20.373  0.00  0.00    +0.000 C 
ATOM      9  C   UNL     1       2.406   4.497  21.381  0.00  0.00    +0.000 C 
ATOM     10  N   UNL     1       3.560   3.301  19.482  0.00  0.00    +0.000 N 
ENDBRANCH   1  10
BRANCH   2  11
ATOM     11  C   UNL     1       6.125   5.584  18.305  0.00  0.00    +0.000 A 
ATOM     12  C   UNL     1       7.119   5.656  19.295  0.00  0.00    +0.000 A 
ATOM     13  C   UNL     1       8.131   6.612  19.229  0.00  0.00    +0.000 A 
ATOM     14  C   UNL     1       8.154   7.515  18.175  0.00  0.00    +0.000 A 
ATOM     15  C   UNL     1       7.171   7.451  17.184  0.00  0.00    +0.000 A 
ATOM     16  C   UNL     1       6.146   6.493  17.237  0.00  0.00    +0.000 A 
BRANCH  16  17
ATOM     17  O   UNL     1       5.305   6.537  16.165  0.00  0.00    +0.000 OA
BRANCH  17  18
ATOM     18  C   UNL     1       5.620   5.685  15.076  0.00  0.00    +0.000 C 
ATOM     19  F   UNL     1       6.900   5.270  15.250  0.00  0.00    +0.000 F 
ATOM     20  F   UNL     1       4.839   4.582  15.185  0.00  0.00    +0.000 F 
ENDBRANCH  17  18
ENDBRANCH  16  17
ENDBRANCH   2  11
TORSDOF 4
ENDMDL
MODEL 9
REMARK VINA RESULT:      -6.8      1.664      2.644
REMARK  Name = 
REMARK  6 active torsions:
REMARK  status: ('A' for Active; 'I' for Inactive)
REMARK    1  A    between atoms: C_1  and  C_2
REMARK    2  A    between atoms: C_6  and  C_7
REMARK    3  A    between atoms: N_8  and  N_9
REMARK    4  A    between atoms: C_10  and  C_11
REMARK    5  A    between atoms: C_16  and  O_17
REMARK    6  A    between atoms: O_17  and  C_18
REMARK                            x       y       z     vdW  Elec       q    Type
REMARK                         _______ _______ _______ _____ _____    ______ ____
ROOT
ATOM      1  N   UNL     1       4.312   4.296  16.689  0.00  0.00    +0.000 NA
ATOM      2  C   UNL     1       5.335   3.589  16.305  0.00  0.00    +0.000 C 
ENDROOT
BRANCH   1  10
ATOM      3  C   UNL     1       4.131   2.433  19.768  0.00  0.00    +0.000 C 
ATOM      4  C   UNL     1       3.603   2.584  18.336  0.00  0.00    +0.000 C 
ATOM      5  C   UNL     1       2.155   2.086  18.198  0.00  0.00    +0.000 C 
ATOM      6  C   UNL     1       1.143   3.022  18.841  0.00  0.00    +0.000 C 
ATOM      7  C   UNL     1       1.327   4.428  18.290  0.00  0.00    +0.000 C 
ATOM      8  C   UNL     1       2.772   4.915  18.468  0.00  0.00    +0.000 C 
ATOM      9  C   UNL     1       2.899   6.347  17.928  0.00  0.00    +0.000 C 
ATOM     10  N   UNL     1       3.788   3.986  17.904  0.00  0.00    +0.000 N 
ENDBRANCH   1  10
BRANCH   2  11
ATOM     11  C   UNL     1       6.122   4.014  15.124  0.00  0.00    +0.000 A 
ATOM     12  C   UNL     1       5.784   3.387  13.913  0.00  0.00    +0.000 A 
ATOM     13  C   UNL     1       6.359   3.792  12.709  0.00  0.00    +0.000 A 
ATOM     14  C   UNL     1       7.286   4.826  12.706  0.00  0.00    +0.000 A 
ATOM     15  C   UNL     1       7.627   5.457  13.904  0.00  0.00    +0.000 A 
ATOM     16  C   UNL     1       7.057   5.058  15.124  0.00  0.00    +0.000 A 
BRANCH  16  17
ATOM     17  O   UNL     1       7.461   5.814  16.185  0.00  0.00    +0.000 OA
BRANCH  17  18
ATOM     18  C   UNL     1       7.421   5.192  17.459  0.00  0.00    +0.000 C 
ATOM     19  F   UNL     1       8.323   4.178  17.438  0.00  0.00    +0.000 F 
ATOM     20  F   UNL     1       7.875   6.094  18.364  0.00  0.00    +0.000 F 
ENDBRANCH  17  18
ENDBRANCH  16  17
ENDBRANCH   2  11
TORSDOF 4
ENDMDL
