MODEL 1
REMARK VINA RESULT:      -8.1      0.000      0.000
REMARK  Name = 
REMARK  13 active torsions:
REMARK  status: ('A' for Active; 'I' for Inactive)
REMARK    1  A    between atoms: N_4  and  C_5
REMARK    2  A    between atoms: C_5  and  C_6
REMARK    3  A    between atoms: C_6  and  C_7
REMARK    4  A    between atoms: C_7  and  C_8
REMARK    5  A    between atoms: C_10  and  C_11
REMARK    6  A    between atoms: N_13  and  C_14
REMARK    7  A    between atoms: C_14  and  CA_15
REMARK    8  A    between atoms: CA_15  and  N_16
REMARK    9  A    between atoms: CA_15  and  C_27
REMARK   10  A    between atoms: C_17  and  O_19
REMARK   11  A    between atoms: O_19  and  C_20
REMARK   12  A    between atoms: C_20  and  C_21
REMARK   13  A    between atoms: C_27  and  OXT_29
REMARK                            x       y       z     vdW  Elec       q    Type
REMARK                         _______ _______ _______ _____ _____    ______ ____
ROOT
ATOM      1  C   UNL     1       5.734   4.250  18.803  0.00  0.00    +0.000 C 
ATOM      2  O   UNL     1       6.086   4.815  19.828  0.00  0.00    +0.000 OA
ATOM      3  N   UNL     1       4.847   3.197  18.735  0.00  0.00    +0.000 N 
ATOM      4  H   UNL     1       4.608   2.854  17.808  0.00  0.00    +0.000 HD
ENDROOT
BRANCH   1   7
ATOM      5  C   UNL     1       6.503   5.777  15.455  0.00  0.00    +0.000 C 
ATOM      6  C   UNL     1       5.488   5.537  16.556  0.00  0.00    +0.000 C 
ATOM      7  C   UNL     1       6.303   4.712  17.474  0.00  0.00    +0.000 C 
ATOM      8  N   UNL     1       7.505   4.430  17.093  0.00  0.00    +0.000 NA
ATOM      9  O   UNL     1       7.699   5.058  15.838  0.00  0.00    +0.000 OA
BRANCH   5  10
ATOM     10  C   UNL     1       6.112   5.294  14.052  0.00  0.00    +0.000 C 
BRANCH  10  11
ATOM     11  C   UNL     1       6.187   3.779  13.813  0.00  0.00    +0.000 C 
BRANCH  11  12
ATOM     12  C   UNL     1       6.028   3.469  12.317  0.00  0.00    +0.000 C 
BRANCH  12  16
ATOM     13  N   UNL     1       7.682   1.623  10.853  0.00  0.00    +0.000 NA
ATOM     14  C   UNL     1       6.589   1.245  11.407  0.00  0.00    +0.000 C 
ATOM     15  N   UNL     1       6.149  -0.027  11.363  0.00  0.00    +0.000 N 
ATOM     16  N   UNL     1       5.746   2.062  12.073  0.00  0.00    +0.000 N 
ATOM     17  H   UNL     1       8.144   0.822  10.422  0.00  0.00    +0.000 HD
ATOM     18  H   UNL     1       6.590  -0.602  10.656  0.00  0.00    +0.000 HD
ATOM     19  H   UNL     1       5.141  -0.113  11.317  0.00  0.00    +0.000 HD
ATOM     20  H   UNL     1       5.113   1.626  12.727  0.00  0.00    +0.000 HD
ENDBRANCH  12  16
ENDBRANCH  11  12
ENDBRANCH  10  11
ENDBRANCH   5  10
ENDBRANCH   1   7
BRANCH   3  21
ATOM     21  C   UNL     1       4.150   2.676  19.912  0.00  0.00    +0.000 C 
BRANCH  21  22
ATOM     22  CA  UNL     1       2.669   3.078  19.993  0.00  0.00    +0.000 C 
BRANCH  22  23
ATOM     23  N   UNL     1       2.397   4.363  19.354  0.00  0.00    +0.000 N 
ATOM     24  C   UNL     1       2.068   4.450  18.038  0.00  0.00    +0.000 C 
ATOM     25  O   UNL     1       1.930   3.481  17.305  0.00  0.00    +0.000 OA
ATOM     26  H   UNL     1       2.268   5.198  19.909  0.00  0.00    +0.000 HD
BRANCH  24  27
ATOM     27  O   UNL     1       1.961   5.749  17.691  0.00  0.00    +0.000 OA
BRANCH  27  28
ATOM     28  C   UNL     1       2.870   6.641  18.358  0.00  0.00    +0.000 C 
BRANCH  28  29
ATOM     29  C   UNL     1       2.100   7.852  18.831  0.00  0.00    +0.000 A 
ATOM     30  C   UNL     1       1.815   8.910  17.958  0.00  0.00    +0.000 A 
ATOM     31  C   UNL     1       1.138  10.044  18.416  0.00  0.00    +0.000 A 
ATOM     32  C   UNL     1       0.744  10.132  19.750  0.00  0.00    +0.000 A 
ATOM     33  C   UNL     1       1.018   9.086  20.626  0.00  0.00    +0.000 A 
ATOM     34  C   UNL     1       1.689   7.950  20.170  0.00  0.00    +0.000 A 
ENDBRANCH  28  29
ENDBRANCH  27  28
ENDBRANCH  24  27
ENDBRANCH  22  23
BRANCH  22  35
ATOM     35  C   UNL     1       2.248   3.176  21.459  0.00  0.00    +0.000 C 
ATOM     36  O   UNL     1       1.781   2.240  22.106  0.00  0.00    +0.000 OA
BRANCH  35  37
ATOM     37  OXT UNL     1       2.530   4.370  22.030  0.00  0.00    +0.000 OA
ATOM     38  HXT UNL     1       2.336   5.138  21.448  0.00  0.00    +0.000 HD
ENDBRANCH  35  37
ENDBRANCH  22  35
ENDBRANCH  21  22
ENDBRANCH   3  21
TORSDOF 13
ENDMDL
MODEL 2
REMARK VINA RESULT:      -8.0      3.943      7.436
REMARK  Name = 
REMARK  13 active torsions:
REMARK  status: ('A' for Active; 'I' for Inactive)
REMARK    1  A    between atoms: N_4  and  C_5
REMARK    2  A    between atoms: C_5  and  C_6
REMARK    3  A    between atoms: C_6  and  C_7
REMARK    4  A    between atoms: C_7  and  C_8
REMARK    5  A    between atoms: C_10  and  C_11
REMARK    6  A    between atoms: N_13  and  C_14
REMARK    7  A    between atoms: C_14  and  CA_15
REMARK    8  A    between atoms: CA_15  and  N_16
REMARK    9  A    between atoms: CA_15  and  C_27
REMARK   10  A    between atoms: C_17  and  O_19
REMARK   11  A    between atoms: O_19  and  C_20
REMARK   12  A    between atoms: C_20  and  C_21
REMARK   13  A    between atoms: C_27  and  OXT_29
REMARK                            x       y       z     vdW  Elec       q    Type
REMARK                         _______ _______ _______ _____ _____    ______ ____
ROOT
ATOM      1  C   UNL     1       3.698   6.849  17.766  0.00  0.00    +0.000 C 
ATOM      2  O   UNL     1       3.767   8.033  17.473  0.00  0.00    +0.000 OA
ATOM      3  N   UNL     1       4.280   5.816  17.061  0.00  0.00    +0.000 N 
ATOM      4  H   UNL     1       4.179   4.881  17.447  0.00  0.00    +0.000 HD
ENDROOT
BRANCH   1   7
ATOM      5  C   UNL     1       2.148   5.202  20.768  0.00  0.00    +0.000 C 
ATOM      6  C   UNL     1       3.052   5.077  19.557  0.00  0.00    +0.000 C 
ATOM      7  C   UNL     1       2.912   6.438  18.997  0.00  0.00    +0.000 C 
ATOM      8  N   UNL     1       2.110   7.243  19.614  0.00  0.00    +0.000 NA
ATOM      9  O   UNL     1       1.593   6.538  20.728  0.00  0.00    +0.000 OA
BRANCH   5  10
ATOM     10  C   UNL     1       0.969   4.223  20.842  0.00  0.00    +0.000 C 
BRANCH  10  11
ATOM     11  C   UNL     1       1.331   2.731  20.880  0.00  0.00    +0.000 C 
BRANCH  11  12
ATOM     12  C   UNL     1       1.130   2.100  19.494  0.00  0.00    +0.000 C 
BRANCH  12  16
ATOM     13  N   UNL     1       2.332   3.067  17.063  0.00  0.00    +0.000 NA
ATOM     14  C   UNL     1       2.905   2.172  17.781  0.00  0.00    +0.000 C 
ATOM     15  N   UNL     1       4.101   1.639  17.468  0.00  0.00    +0.000 N 
ATOM     16  N   UNL     1       2.381   1.644  18.909  0.00  0.00    +0.000 N 
ATOM     17  H   UNL     1       2.929   3.307  16.272  0.00  0.00    +0.000 HD
ATOM     18  H   UNL     1       4.394   1.792  16.511  0.00  0.00    +0.000 HD
ATOM     19  H   UNL     1       4.196   0.662  17.720  0.00  0.00    +0.000 HD
ATOM     20  H   UNL     1       3.029   1.211  19.551  0.00  0.00    +0.000 HD
ENDBRANCH  12  16
ENDBRANCH  11  12
ENDBRANCH  10  11
ENDBRANCH   5  10
ENDBRANCH   1   7
BRANCH   3  21
ATOM     21  C   UNL     1       5.133   6.041  15.893  0.00  0.00    +0.000 C 
BRANCH  21  22
ATOM     22  CA  UNL     1       6.584   5.572  16.077  0.00  0.00    +0.000 C 
BRANCH  22  23
ATOM     23  N   UNL     1       7.501   6.673  16.363  0.00  0.00    +0.000 N 
ATOM     24  C   UNL     1       7.651   7.168  17.621  0.00  0.00    +0.000 C 
ATOM     25  O   UNL     1       7.080   6.716  18.602  0.00  0.00    +0.000 OA
ATOM     26  H   UNL     1       8.178   6.972  15.675  0.00  0.00    +0.000 HD
BRANCH  24  27
ATOM     27  O   UNL     1       8.482   8.229  17.585  0.00  0.00    +0.000 OA
BRANCH  27  28
ATOM     28  C   UNL     1       7.942   9.453  18.111  0.00  0.00    +0.000 C 
BRANCH  28  29
ATOM     29  C   UNL     1       9.078  10.296  18.642  0.00  0.00    +0.000 A 
ATOM     30  C   UNL     1       9.225  10.522  20.016  0.00  0.00    +0.000 A 
ATOM     31  C   UNL     1      10.255  11.337  20.494  0.00  0.00    +0.000 A 
ATOM     32  C   UNL     1      11.144  11.935  19.603  0.00  0.00    +0.000 A 
ATOM     33  C   UNL     1      11.010  11.715  18.235  0.00  0.00    +0.000 A 
ATOM     34  C   UNL     1       9.986  10.898  17.756  0.00  0.00    +0.000 A 
ENDBRANCH  28  29
ENDBRANCH  27  28
ENDBRANCH  24  27
ENDBRANCH  22  23
BRANCH  22  35
ATOM     35  C   UNL     1       7.059   4.875  14.802  0.00  0.00    +0.000 C 
ATOM     36  O   UNL     1       7.907   5.334  14.041  0.00  0.00    +0.000 OA
BRANCH  35  37
ATOM     37  OXT UNL     1       6.536   3.638  14.629  0.00  0.00    +0.000 OA
ATOM     38  HXT UNL     1       5.590   3.572  14.890  0.00  0.00    +0.000 HD
ENDBRANCH  35  37
ENDBRANCH  22  35
ENDBRANCH  21  22
ENDBRANCH   3  21
TORSDOF 13
ENDMDL
MODEL 3
REMARK VINA RESULT:      -7.8      3.776      5.885
REMARK  Name = 
REMARK  13 active torsions:
REMARK  status: ('A' for Active; 'I' for Inactive)
REMARK    1  A    between atoms: N_4  and  C_5
REMARK    2  A    between atoms: C_5  and  C_6
REMARK    3  A    between atoms: C_6  and  C_7
REMARK    4  A    between atoms: C_7  and  C_8
REMARK    5  A    between atoms: C_10  and  C_11
REMARK    6  A    between atoms: N_13  and  C_14
REMARK    7  A    between atoms: C_14  and  CA_15
REMARK    8  A    between atoms: CA_15  and  N_16
REMARK    9  A    between atoms: CA_15  and  C_27
REMARK   10  A    between atoms: C_17  and  O_19
REMARK   11  A    between atoms: O_19  and  C_20
REMARK   12  A    between atoms: C_20  and  C_21
REMARK   13  A    between atoms: C_27  and  OXT_29
REMARK                            x       y       z     vdW  Elec       q    Type
REMARK                         _______ _______ _______ _____ _____    ______ ____
ROOT
ATOM      1  C   UNL     1       5.581   4.233  17.674  0.00  0.00    +0.000 C 
ATOM      2  O   UNL     1       5.000   3.698  16.742  0.00  0.00    +0.000 OA
ATOM      3  N   UNL     1       5.440   3.894  19.004  0.00  0.00    +0.000 N 
ATOM      4  H   UNL     1       6.022   4.393  19.671  0.00  0.00    +0.000 HD
ENDROOT
BRANCH   1   7
ATOM      5  C   UNL     1       7.992   7.116  17.709  0.00  0.00    +0.000 C 
ATOM      6  C   UNL     1       7.056   6.214  18.490  0.00  0.00    +0.000 C 
ATOM      7  C   UNL     1       6.542   5.371  17.388  0.00  0.00    +0.000 C 
ATOM      8  N   UNL     1       6.964   5.647  16.198  0.00  0.00    +0.000 NA
ATOM      9  O   UNL     1       7.869   6.729  16.320  0.00  0.00    +0.000 OA
BRANCH   5  10
ATOM     10  C   UNL     1       7.708   8.622  17.788  0.00  0.00    +0.000 C 
BRANCH  10  11
ATOM     11  C   UNL     1       8.698   9.455  18.615  0.00  0.00    +0.000 C 
BRANCH  11  12
ATOM     12  C   UNL     1       8.932  10.819  17.949  0.00  0.00    +0.000 C 
BRANCH  12  16
ATOM     13  N   UNL     1       9.490  13.583  17.369  0.00  0.00    +0.000 NA
ATOM     14  C   UNL     1       9.528  13.131  18.569  0.00  0.00    +0.000 C 
ATOM     15  N   UNL     1       9.809  13.908  19.633  0.00  0.00    +0.000 N 
ATOM     16  N   UNL     1       9.317  11.842  18.909  0.00  0.00    +0.000 N 
ATOM     17  H   UNL     1       9.673  14.587  17.374  0.00  0.00    +0.000 HD
ATOM     18  H   UNL     1      10.239  14.795  19.407  0.00  0.00    +0.000 HD
ATOM     19  H   UNL     1      10.327  13.434  20.363  0.00  0.00    +0.000 HD
ATOM     20  H   UNL     1       9.051  11.662  19.866  0.00  0.00    +0.000 HD
ENDBRANCH  12  16
ENDBRANCH  11  12
ENDBRANCH  10  11
ENDBRANCH   5  10
ENDBRANCH   1   7
BRANCH   3  21
ATOM     21  C   UNL     1       4.611   2.773  19.448  0.00  0.00    +0.000 C 
BRANCH  21  22
ATOM     22  CA  UNL     1       3.104   3.072  19.460  0.00  0.00    +0.000 C 
BRANCH  22  23
ATOM     23  N   UNL     1       2.793   4.422  18.998  0.00  0.00    +0.000 N 
ATOM     24  C   UNL     1       1.944   4.643  17.959  0.00  0.00    +0.000 C 
ATOM     25  O   UNL     1       1.348   3.755  17.367  0.00  0.00    +0.000 OA
ATOM     26  H   UNL     1       3.054   5.229  19.548  0.00  0.00    +0.000 HD
BRANCH  24  27
ATOM     27  O   UNL     1       1.909   5.963  17.686  0.00  0.00    +0.000 OA
BRANCH  27  28
ATOM     28  C   UNL     1       2.837   6.771  18.429  0.00  0.00    +0.000 C 
BRANCH  28  29
ATOM     29  C   UNL     1       2.107   7.979  18.966  0.00  0.00    +0.000 A 
ATOM     30  C   UNL     1       1.681   8.028  20.300  0.00  0.00    +0.000 A 
ATOM     31  C   UNL     1       0.969   9.133  20.776  0.00  0.00    +0.000 A 
ATOM     32  C   UNL     1       0.674  10.195  19.924  0.00  0.00    +0.000 A 
ATOM     33  C   UNL     1       1.095  10.159  18.597  0.00  0.00    +0.000 A 
ATOM     34  C   UNL     1       1.810   9.060  18.121  0.00  0.00    +0.000 A 
ENDBRANCH  28  29
ENDBRANCH  27  28
ENDBRANCH  24  27
ENDBRANCH  22  23
BRANCH  22  35
ATOM     35  C   UNL     1       2.566   2.919  20.883  0.00  0.00    +0.000 C 
ATOM     36  O   UNL     1       1.446   3.277  21.238  0.00  0.00    +0.000 OA
BRANCH  35  37
ATOM     37  OXT UNL     1       3.401   2.251  21.714  0.00  0.00    +0.000 OA
ATOM     38  HXT UNL     1       3.595   1.333  21.420  0.00  0.00    +0.000 HD
ENDBRANCH  35  37
ENDBRANCH  22  35
ENDBRANCH  21  22
ENDBRANCH   3  21
TORSDOF 13
ENDMDL
MODEL 4
REMARK VINA RESULT:      -7.6      4.027      6.032
REMARK  Name = 
REMARK  13 active torsions:
REMARK  status: ('A' for Active; 'I' for Inactive)
REMARK    1  A    between atoms: N_4  and  C_5
REMARK    2  A    between atoms: C_5  and  C_6
REMARK    3  A    between atoms: C_6  and  C_7
REMARK    4  A    between atoms: C_7  and  C_8
REMARK    5  A    between atoms: C_10  and  C_11
REMARK    6  A    between atoms: N_13  and  C_14
REMARK    7  A    between atoms: C_14  and  CA_15
REMARK    8  A    between atoms: CA_15  and  N_16
REMARK    9  A    between atoms: CA_15  and  C_27
REMARK   10  A    between atoms: C_17  and  O_19
REMARK   11  A    between atoms: O_19  and  C_20
REMARK   12  A    between atoms: C_20  and  C_21
REMARK   13  A    between atoms: C_27  and  OXT_29
REMARK                            x       y       z     vdW  Elec       q    Type
REMARK                         _______ _______ _______ _____ _____    ______ ____
ROOT
ATOM      1  C   UNL     1       5.893   5.165  19.169  0.00  0.00    +0.000 C 
ATOM      2  O   UNL     1       6.556   4.728  20.098  0.00  0.00    +0.000 OA
ATOM      3  N   UNL     1       4.621   4.753  18.832  0.00  0.00    +0.000 N 
ATOM      4  H   UNL     1       4.169   5.238  18.062  0.00  0.00    +0.000 HD
ENDROOT
BRANCH   1   7
ATOM      5  C   UNL     1       7.947   7.795  17.439  0.00  0.00    +0.000 C 
ATOM      6  C   UNL     1       7.784   6.866  18.626  0.00  0.00    +0.000 C 
ATOM      7  C   UNL     1       6.485   6.248  18.286  0.00  0.00    +0.000 C 
ATOM      8  N   UNL     1       5.905   6.666  17.209  0.00  0.00    +0.000 NA
ATOM      9  O   UNL     1       6.758   7.636  16.630  0.00  0.00    +0.000 OA
BRANCH   5  10
ATOM     10  C   UNL     1       8.083   9.290  17.757  0.00  0.00    +0.000 C 
BRANCH  10  11
ATOM     11  C   UNL     1       8.988   9.648  18.945  0.00  0.00    +0.000 C 
BRANCH  11  12
ATOM     12  C   UNL     1       9.808  10.907  18.627  0.00  0.00    +0.000 C 
BRANCH  12  16
ATOM     13  N   UNL     1      10.398  13.229  17.030  0.00  0.00    +0.000 NA
ATOM     14  C   UNL     1       9.296  13.126  17.677  0.00  0.00    +0.000 C 
ATOM     15  N   UNL     1       8.338  14.073  17.644  0.00  0.00    +0.000 N 
ATOM     16  N   UNL     1       8.971  12.087  18.476  0.00  0.00    +0.000 N 
ATOM     17  H   UNL     1      10.403  14.097  16.494  0.00  0.00    +0.000 HD
ATOM     18  H   UNL     1       8.645  14.972  17.296  0.00  0.00    +0.000 HD
ATOM     19  H   UNL     1       7.834  14.179  18.517  0.00  0.00    +0.000 HD
ATOM     20  H   UNL     1       7.988  11.950  18.666  0.00  0.00    +0.000 HD
ENDBRANCH  12  16
ENDBRANCH  11  12
ENDBRANCH  10  11
ENDBRANCH   5  10
ENDBRANCH   1   7
BRANCH   3  21
ATOM     21  C   UNL     1       3.876   3.771  19.621  0.00  0.00    +0.000 C 
BRANCH  21  22
ATOM     22  CA  UNL     1       2.431   4.188  19.938  0.00  0.00    +0.000 C 
BRANCH  22  23
ATOM     23  N   UNL     1       2.325   5.584  20.355  0.00  0.00    +0.000 N 
ATOM     24  C   UNL     1       2.245   6.595  19.450  0.00  0.00    +0.000 C 
ATOM     25  O   UNL     1       2.209   6.424  18.240  0.00  0.00    +0.000 OA
ATOM     26  H   UNL     1       2.126   5.822  21.317  0.00  0.00    +0.000 HD
BRANCH  24  27
ATOM     27  O   UNL     1       2.249   7.777  20.101  0.00  0.00    +0.000 OA
BRANCH  27  28
ATOM     28  C   UNL     1       1.383   8.785  19.552  0.00  0.00    +0.000 C 
BRANCH  28  29
ATOM     29  C   UNL     1       0.623   9.438  20.683  0.00  0.00    +0.000 A 
ATOM     30  C   UNL     1       0.440  10.826  20.720  0.00  0.00    +0.000 A 
ATOM     31  C   UNL     1      -0.229  11.424  21.791  0.00  0.00    +0.000 A 
ATOM     32  C   UNL     1      -0.717  10.642  22.836  0.00  0.00    +0.000 A 
ATOM     33  C   UNL     1      -0.545   9.260  22.808  0.00  0.00    +0.000 A 
ATOM     34  C   UNL     1       0.118   8.660  21.737  0.00  0.00    +0.000 A 
ENDBRANCH  28  29
ENDBRANCH  27  28
ENDBRANCH  24  27
ENDBRANCH  22  23
BRANCH  22  35
ATOM     35  C   UNL     1       1.884   3.311  21.064  0.00  0.00    +0.000 C 
ATOM     36  O   UNL     1       2.481   3.084  22.114  0.00  0.00    +0.000 OA
BRANCH  35  37
ATOM     37  OXT UNL     1       0.618   2.878  20.853  0.00  0.00    +0.000 OA
ATOM     38  HXT UNL     1      -0.057   3.589  20.926  0.00  0.00    +0.000 HD
ENDBRANCH  35  37
ENDBRANCH  22  35
ENDBRANCH  21  22
ENDBRANCH   3  21
TORSDOF 13
ENDMDL
MODEL 5
REMARK VINA RESULT:      -7.6      3.570      8.645
REMARK  Name = 
REMARK  13 active torsions:
REMARK  status: ('A' for Active; 'I' for Inactive)
REMARK    1  A    between atoms: N_4  and  C_5
REMARK    2  A    between atoms: C_5  and  C_6
REMARK    3  A    between atoms: C_6  and  C_7
REMARK    4  A    between atoms: C_7  and  C_8
REMARK    5  A    between atoms: C_10  and  C_11
REMARK    6  A    between atoms: N_13  and  C_14
REMARK    7  A    between atoms: C_14  and  CA_15
REMARK    8  A    between atoms: CA_15  and  N_16
REMARK    9  A    between atoms: CA_15  and  C_27
REMARK   10  A    between atoms: C_17  and  O_19
REMARK   11  A    between atoms: O_19  and  C_20
REMARK   12  A    between atoms: C_20  and  C_21
REMARK   13  A    between atoms: C_27  and  OXT_29
REMARK                            x       y       z     vdW  Elec       q    Type
REMARK                         _______ _______ _______ _____ _____    ______ ____
ROOT
ATOM      1  C   UNL     1       2.218   5.965  19.737  0.00  0.00    +0.000 C 
ATOM      2  O   UNL     1       2.187   5.375  20.807  0.00  0.00    +0.000 OA
ATOM      3  N   UNL     1       2.574   5.407  18.527  0.00  0.00    +0.000 N 
ATOM      4  H   UNL     1       2.508   6.004  17.707  0.00  0.00    +0.000 HD
ENDROOT
BRANCH   1   7
ATOM      5  C   UNL     1       1.068   9.493  20.334  0.00  0.00    +0.000 C 
ATOM      6  C   UNL     1       1.137   8.062  20.832  0.00  0.00    +0.000 C 
ATOM      7  C   UNL     1       1.843   7.435  19.694  0.00  0.00    +0.000 C 
ATOM      8  N   UNL     1       2.130   8.199  18.692  0.00  0.00    +0.000 NA
ATOM      9  O   UNL     1       1.671   9.499  19.019  0.00  0.00    +0.000 OA
BRANCH   5  10
ATOM     10  C   UNL     1      -0.336  10.097  20.192  0.00  0.00    +0.000 C 
BRANCH  10  11
ATOM     11  C   UNL     1      -0.551  11.034  18.995  0.00  0.00    +0.000 C 
BRANCH  11  12
ATOM     12  C   UNL     1      -1.557  10.418  18.011  0.00  0.00    +0.000 C 
BRANCH  12  16
ATOM     13  N   UNL     1      -3.067  11.243  15.704  0.00  0.00    +0.000 NA
ATOM     14  C   UNL     1      -3.505  11.438  16.893  0.00  0.00    +0.000 C 
ATOM     15  N   UNL     1      -4.693  12.018  17.148  0.00  0.00    +0.000 N 
ATOM     16  N   UNL     1      -2.833  11.115  18.019  0.00  0.00    +0.000 N 
ATOM     17  H   UNL     1      -3.759  11.562  15.026  0.00  0.00    +0.000 HD
ATOM     18  H   UNL     1      -5.095  12.520  16.366  0.00  0.00    +0.000 HD
ATOM     19  H   UNL     1      -4.701  12.592  17.984  0.00  0.00    +0.000 HD
ATOM     20  H   UNL     1      -3.381  11.009  18.860  0.00  0.00    +0.000 HD
ENDBRANCH  12  16
ENDBRANCH  11  12
ENDBRANCH  10  11
ENDBRANCH   5  10
ENDBRANCH   1   7
BRANCH   3  21
ATOM     21  C   UNL     1       2.891   3.986  18.377  0.00  0.00    +0.000 C 
BRANCH  21  22
ATOM     22  CA  UNL     1       4.296   3.601  18.867  0.00  0.00    +0.000 C 
BRANCH  22  23
ATOM     23  N   UNL     1       5.321   3.786  17.841  0.00  0.00    +0.000 N 
ATOM     24  C   UNL     1       6.475   4.456  18.099  0.00  0.00    +0.000 C 
ATOM     25  O   UNL     1       6.768   4.910  19.196  0.00  0.00    +0.000 OA
ATOM     26  H   UNL     1       5.282   3.269  16.974  0.00  0.00    +0.000 HD
BRANCH  24  27
ATOM     27  O   UNL     1       7.194   4.558  16.963  0.00  0.00    +0.000 OA
BRANCH  27  28
ATOM     28  C   UNL     1       6.728   5.542  16.025  0.00  0.00    +0.000 C 
BRANCH  28  29
ATOM     29  C   UNL     1       6.775   4.949  14.636  0.00  0.00    +0.000 A 
ATOM     30  C   UNL     1       7.727   5.376  13.703  0.00  0.00    +0.000 A 
ATOM     31  C   UNL     1       7.735   4.850  12.407  0.00  0.00    +0.000 A 
ATOM     32  C   UNL     1       6.789   3.898  12.033  0.00  0.00    +0.000 A 
ATOM     33  C   UNL     1       5.840   3.462  12.954  0.00  0.00    +0.000 A 
ATOM     34  C   UNL     1       5.833   3.982  14.249  0.00  0.00    +0.000 A 
ENDBRANCH  28  29
ENDBRANCH  27  28
ENDBRANCH  24  27
ENDBRANCH  22  23
BRANCH  22  35
ATOM     35  C   UNL     1       4.304   2.132  19.289  0.00  0.00    +0.000 C 
ATOM     36  O   UNL     1       3.627   1.258  18.754  0.00  0.00    +0.000 OA
BRANCH  35  37
ATOM     37  OXT UNL     1       5.211   1.847  20.253  0.00  0.00    +0.000 OA
ATOM     38  HXT UNL     1       6.048   1.470  19.903  0.00  0.00    +0.000 HD
ENDBRANCH  35  37
ENDBRANCH  22  35
ENDBRANCH  21  22
ENDBRANCH   3  21
TORSDOF 13
ENDMDL
MODEL 6
REMARK VINA RESULT:      -7.6      3.789      9.390
REMARK  Name = 
REMARK  13 active torsions:
REMARK  status: ('A' for Active; 'I' for Inactive)
REMARK    1  A    between atoms: N_4  and  C_5
REMARK    2  A    between atoms: C_5  and  C_6
REMARK    3  A    between atoms: C_6  and  C_7
REMARK    4  A    between atoms: C_7  and  C_8
REMARK    5  A    between atoms: C_10  and  C_11
REMARK    6  A    between atoms: N_13  and  C_14
REMARK    7  A    between atoms: C_14  and  CA_15
REMARK    8  A    between atoms: CA_15  and  N_16
REMARK    9  A    between atoms: CA_15  and  C_27
REMARK   10  A    between atoms: C_17  and  O_19
REMARK   11  A    between atoms: O_19  and  C_20
REMARK   12  A    between atoms: C_20  and  C_21
REMARK   13  A    between atoms: C_27  and  OXT_29
REMARK                            x       y       z     vdW  Elec       q    Type
REMARK                         _______ _______ _______ _____ _____    ______ ____
ROOT
ATOM      1  C   UNL     1       2.503   6.957  19.110  0.00  0.00    +0.000 C 
ATOM      2  O   UNL     1       2.357   6.228  20.080  0.00  0.00    +0.000 OA
ATOM      3  N   UNL     1       3.222   6.644  17.975  0.00  0.00    +0.000 N 
ATOM      4  H   UNL     1       3.219   7.329  17.225  0.00  0.00    +0.000 HD
ENDROOT
BRANCH   1   7
ATOM      5  C   UNL     1       0.787  10.217  19.852  0.00  0.00    +0.000 C 
ATOM      6  C   UNL     1       1.171   8.830  20.328  0.00  0.00    +0.000 C 
ATOM      7  C   UNL     1       1.860   8.332  19.118  0.00  0.00    +0.000 C 
ATOM      8  N   UNL     1       1.896   9.125  18.098  0.00  0.00    +0.000 NA
ATOM      9  O   UNL     1       1.240  10.320  18.482  0.00  0.00    +0.000 OA
BRANCH   5  10
ATOM     10  C   UNL     1      -0.712  10.549  19.861  0.00  0.00    +0.000 C 
BRANCH  10  11
ATOM     11  C   UNL     1      -1.435  10.444  18.510  0.00  0.00    +0.000 C 
BRANCH  11  12
ATOM     12  C   UNL     1      -2.011  11.810  18.109  0.00  0.00    +0.000 C 
BRANCH  12  16
ATOM     13  N   UNL     1      -3.395  11.354  15.626  0.00  0.00    +0.000 NA
ATOM     14  C   UNL     1      -4.033  11.510  16.728  0.00  0.00    +0.000 C 
ATOM     15  N   UNL     1      -5.376  11.454  16.808  0.00  0.00    +0.000 N 
ATOM     16  N   UNL     1      -3.452  11.767  17.919  0.00  0.00    +0.000 N 
ATOM     17  H   UNL     1      -4.054  11.162  14.871  0.00  0.00    +0.000 HD
ATOM     18  H   UNL     1      -5.857  11.542  15.922  0.00  0.00    +0.000 HD
ATOM     19  H   UNL     1      -5.774  12.082  17.496  0.00  0.00    +0.000 HD
ATOM     20  H   UNL     1      -3.993  11.550  18.744  0.00  0.00    +0.000 HD
ENDBRANCH  12  16
ENDBRANCH  11  12
ENDBRANCH  10  11
ENDBRANCH   5  10
ENDBRANCH   1   7
BRANCH   3  21
ATOM     21  C   UNL     1       3.842   5.334  17.772  0.00  0.00    +0.000 C 
BRANCH  21  22
ATOM     22  CA  UNL     1       5.378   5.367  17.723  0.00  0.00    +0.000 C 
BRANCH  22  23
ATOM     23  N   UNL     1       5.922   4.622  16.591  0.00  0.00    +0.000 N 
ATOM     24  C   UNL     1       6.926   5.123  15.823  0.00  0.00    +0.000 C 
ATOM     25  O   UNL     1       7.477   6.193  16.036  0.00  0.00    +0.000 OA
ATOM     26  H   UNL     1       5.696   3.646  16.459  0.00  0.00    +0.000 HD
BRANCH  24  27
ATOM     27  O   UNL     1       7.170   4.276  14.802  0.00  0.00    +0.000 OA
BRANCH  27  28
ATOM     28  C   UNL     1       7.024   4.838  13.487  0.00  0.00    +0.000 C 
BRANCH  28  29
ATOM     29  C   UNL     1       6.464   3.779  12.567  0.00  0.00    +0.000 A 
ATOM     30  C   UNL     1       5.086   3.682  12.335  0.00  0.00    +0.000 A 
ATOM     31  C   UNL     1       4.575   2.672  11.514  0.00  0.00    +0.000 A 
ATOM     32  C   UNL     1       5.435   1.749  10.923  0.00  0.00    +0.000 A 
ATOM     33  C   UNL     1       6.807   1.837  11.142  0.00  0.00    +0.000 A 
ATOM     34  C   UNL     1       7.320   2.848  11.957  0.00  0.00    +0.000 A 
ENDBRANCH  28  29
ENDBRANCH  27  28
ENDBRANCH  24  27
ENDBRANCH  22  23
BRANCH  22  35
ATOM     35  C   UNL     1       5.942   4.763  19.008  0.00  0.00    +0.000 C 
ATOM     36  O   UNL     1       6.664   5.369  19.796  0.00  0.00    +0.000 OA
BRANCH  35  37
ATOM     37  OXT UNL     1       5.491   3.513  19.267  0.00  0.00    +0.000 OA
ATOM     38  HXT UNL     1       6.191   2.902  19.588  0.00  0.00    +0.000 HD
ENDBRANCH  35  37
ENDBRANCH  22  35
ENDBRANCH  21  22
ENDBRANCH   3  21
TORSDOF 13
ENDMDL
MODEL 7
REMARK VINA RESULT:      -7.4      3.598      8.254
REMARK  Name = 
REMARK  13 active torsions:
REMARK  status: ('A' for Active; 'I' for Inactive)
REMARK    1  A    between atoms: N_4  and  C_5
REMARK    2  A    between atoms: C_5  and  C_6
REMARK    3  A    between atoms: C_6  and  C_7
REMARK    4  A    between atoms: C_7  and  C_8
REMARK    5  A    between atoms: C_10  and  C_11
REMARK    6  A    between atoms: N_13  and  C_14
REMARK    7  A    between atoms: C_14  and  CA_15
REMARK    8  A    between atoms: CA_15  and  N_16
REMARK    9  A    between atoms: CA_15  and  C_27
REMARK   10  A    between atoms: C_17  and  O_19
REMARK   11  A    between atoms: O_19  and  C_20
REMARK   12  A    between atoms: C_20  and  C_21
REMARK   13  A    between atoms: C_27  and  OXT_29
REMARK                            x       y       z     vdW  Elec       q    Type
REMARK                         _______ _______ _______ _____ _____    ______ ____
ROOT
ATOM      1  C   UNL     1       2.573   6.498  19.173  0.00  0.00    +0.000 C 
ATOM      2  O   UNL     1       3.279   6.386  20.164  0.00  0.00    +0.000 OA
ATOM      3  N   UNL     1       2.113   5.454  18.398  0.00  0.00    +0.000 N 
ATOM      4  H   UNL     1       1.492   5.691  17.628  0.00  0.00    +0.000 HD
ENDROOT
BRANCH   1   7
ATOM      5  C   UNL     1       1.312  10.016  18.770  0.00  0.00    +0.000 C 
ATOM      6  C   UNL     1       1.436   8.788  19.651  0.00  0.00    +0.000 C 
ATOM      7  C   UNL     1       2.148   7.884  18.723  0.00  0.00    +0.000 C 
ATOM      8  N   UNL     1       2.396   8.339  17.539  0.00  0.00    +0.000 NA
ATOM      9  O   UNL     1       1.898   9.664  17.495  0.00  0.00    +0.000 OA
BRANCH   5  10
ATOM     10  C   UNL     1      -0.113  10.514  18.493  0.00  0.00    +0.000 C 
BRANCH  10  11
ATOM     11  C   UNL     1      -0.929   9.699  17.479  0.00  0.00    +0.000 C 
BRANCH  11  12
ATOM     12  C   UNL     1      -2.430   9.962  17.671  0.00  0.00    +0.000 C 
BRANCH  12  16
ATOM     13  N   UNL     1      -3.228  11.709  15.526  0.00  0.00    +0.000 NA
ATOM     14  C   UNL     1      -3.515  10.459  15.511  0.00  0.00    +0.000 C 
ATOM     15  N   UNL     1      -4.184   9.874  14.499  0.00  0.00    +0.000 N 
ATOM     16  N   UNL     1      -3.209   9.591  16.500  0.00  0.00    +0.000 N 
ATOM     17  H   UNL     1      -3.556  12.147  14.665  0.00  0.00    +0.000 HD
ATOM     18  H   UNL     1      -4.668  10.518  13.886  0.00  0.00    +0.000 HD
ATOM     19  H   UNL     1      -4.800   9.125  14.791  0.00  0.00    +0.000 HD
ATOM     20  H   UNL     1      -3.183   8.612  16.253  0.00  0.00    +0.000 HD
ENDBRANCH  12  16
ENDBRANCH  11  12
ENDBRANCH  10  11
ENDBRANCH   5  10
ENDBRANCH   1   7
BRANCH   3  21
ATOM     21  C   UNL     1       2.366   4.053  18.733  0.00  0.00    +0.000 C 
BRANCH  21  22
ATOM     22  CA  UNL     1       3.853   3.709  18.912  0.00  0.00    +0.000 C 
BRANCH  22  23
ATOM     23  N   UNL     1       4.647   3.998  17.719  0.00  0.00    +0.000 N 
ATOM     24  C   UNL     1       5.941   4.406  17.805  0.00  0.00    +0.000 C 
ATOM     25  O   UNL     1       6.550   4.518  18.858  0.00  0.00    +0.000 OA
ATOM     26  H   UNL     1       4.316   3.731  16.802  0.00  0.00    +0.000 HD
BRANCH  24  27
ATOM     27  O   UNL     1       6.401   4.688  16.569  0.00  0.00    +0.000 OA
BRANCH  27  28
ATOM     28  C   UNL     1       5.413   4.670  15.525  0.00  0.00    +0.000 C 
BRANCH  28  29
ATOM     29  C   UNL     1       6.113   4.482  14.199  0.00  0.00    +0.000 A 
ATOM     30  C   UNL     1       7.212   5.275  13.846  0.00  0.00    +0.000 A 
ATOM     31  C   UNL     1       7.825   5.121  12.600  0.00  0.00    +0.000 A 
ATOM     32  C   UNL     1       7.344   4.177  11.695  0.00  0.00    +0.000 A 
ATOM     33  C   UNL     1       6.255   3.379  12.036  0.00  0.00    +0.000 A 
ATOM     34  C   UNL     1       5.644   3.528  13.281  0.00  0.00    +0.000 A 
ENDBRANCH  28  29
ENDBRANCH  27  28
ENDBRANCH  24  27
ENDBRANCH  22  23
BRANCH  22  35
ATOM     35  C   UNL     1       3.997   2.221  19.231  0.00  0.00    +0.000 C 
ATOM     36  O   UNL     1       3.372   1.330  18.660  0.00  0.00    +0.000 OA
BRANCH  35  37
ATOM     37  OXT UNL     1       4.962   1.949  20.141  0.00  0.00    +0.000 OA
ATOM     38  HXT UNL     1       4.620   1.849  21.057  0.00  0.00    +0.000 HD
ENDBRANCH  35  37
ENDBRANCH  22  35
ENDBRANCH  21  22
ENDBRANCH   3  21
TORSDOF 13
ENDMDL
MODEL 8
REMARK VINA RESULT:      -7.4      1.839      2.473
REMARK  Name = 
REMARK  13 active torsions:
REMARK  status: ('A' for Active; 'I' for Inactive)
REMARK    1  A    between atoms: N_4  and  C_5
REMARK    2  A    between atoms: C_5  and  C_6
REMARK    3  A    between atoms: C_6  and  C_7
REMARK    4  A    between atoms: C_7  and  C_8
REMARK    5  A    between atoms: C_10  and  C_11
REMARK    6  A    between atoms: N_13  and  C_14
REMARK    7  A    between atoms: C_14  and  CA_15
REMARK    8  A    between atoms: CA_15  and  N_16
REMARK    9  A    between atoms: CA_15  and  C_27
REMARK   10  A    between atoms: C_17  and  O_19
REMARK   11  A    between atoms: O_19  and  C_20
REMARK   12  A    between atoms: C_20  and  C_21
REMARK   13  A    between atoms: C_27  and  OXT_29
REMARK                            x       y       z     vdW  Elec       q    Type
REMARK                         _______ _______ _______ _____ _____    ______ ____
ROOT
ATOM      1  C   UNL     1       5.947   4.471  18.481  0.00  0.00    +0.000 C 
ATOM      2  O   UNL     1       6.535   5.165  19.297  0.00  0.00    +0.000 OA
ATOM      3  N   UNL     1       4.905   3.613  18.765  0.00  0.00    +0.000 N 
ATOM      4  H   UNL     1       4.477   3.133  17.979  0.00  0.00    +0.000 HD
ENDROOT
BRANCH   1   7
ATOM      5  C   UNL     1       6.260   4.601  14.738  0.00  0.00    +0.000 C 
ATOM      6  C   UNL     1       5.362   4.426  15.947  0.00  0.00    +0.000 C 
ATOM      7  C   UNL     1       6.370   4.527  17.025  0.00  0.00    +0.000 C 
ATOM      8  N   UNL     1       7.601   4.677  16.661  0.00  0.00    +0.000 NA
ATOM      9  O   UNL     1       7.610   4.728  15.246  0.00  0.00    +0.000 OA
BRANCH   5  10
ATOM     10  C   UNL     1       6.264   3.452  13.721  0.00  0.00    +0.000 C 
BRANCH  10  11
ATOM     11  C   UNL     1       6.105   3.854  12.247  0.00  0.00    +0.000 C 
BRANCH  11  12
ATOM     12  C   UNL     1       4.854   3.194  11.648  0.00  0.00    +0.000 C 
BRANCH  12  16
ATOM     13  N   UNL     1       2.530   2.528  10.085  0.00  0.00    +0.000 NA
ATOM     14  C   UNL     1       3.060   3.695  10.030  0.00  0.00    +0.000 C 
ATOM     15  N   UNL     1       2.566   4.687   9.264  0.00  0.00    +0.000 N 
ATOM     16  N   UNL     1       4.171   4.063  10.703  0.00  0.00    +0.000 N 
ATOM     17  H   UNL     1       1.697   2.501   9.497  0.00  0.00    +0.000 HD
ATOM     18  H   UNL     1       1.920   4.384   8.546  0.00  0.00    +0.000 HD
ATOM     19  H   UNL     1       3.275   5.297   8.875  0.00  0.00    +0.000 HD
ATOM     20  H   UNL     1       4.308   5.054  10.846  0.00  0.00    +0.000 HD
ENDBRANCH  12  16
ENDBRANCH  11  12
ENDBRANCH  10  11
ENDBRANCH   5  10
ENDBRANCH   1   7
BRANCH   3  21
ATOM     21  C   UNL     1       4.325   3.494  20.103  0.00  0.00    +0.000 C 
BRANCH  21  22
ATOM     22  CA  UNL     1       2.817   3.785  20.162  0.00  0.00    +0.000 C 
BRANCH  22  23
ATOM     23  N   UNL     1       2.524   5.193  20.423  0.00  0.00    +0.000 N 
ATOM     24  C   UNL     1       2.461   6.107  19.419  0.00  0.00    +0.000 C 
ATOM     25  O   UNL     1       2.596   5.829  18.236  0.00  0.00    +0.000 OA
ATOM     26  H   UNL     1       2.183   5.489  21.327  0.00  0.00    +0.000 HD
BRANCH  24  27
ATOM     27  O   UNL     1       2.268   7.334  19.946  0.00  0.00    +0.000 OA
BRANCH  27  28
ATOM     28  C   UNL     1       1.465   7.372  21.137  0.00  0.00    +0.000 C 
BRANCH  28  29
ATOM     29  C   UNL     1       0.794   8.723  21.226  0.00  0.00    +0.000 A 
ATOM     30  C   UNL     1       0.770   9.588  20.125  0.00  0.00    +0.000 A 
ATOM     31  C   UNL     1       0.183  10.853  20.230  0.00  0.00    +0.000 A 
ATOM     32  C   UNL     1      -0.381  11.264  21.436  0.00  0.00    +0.000 A 
ATOM     33  C   UNL     1      -0.367  10.411  22.537  0.00  0.00    +0.000 A 
ATOM     34  C   UNL     1       0.214   9.147  22.433  0.00  0.00    +0.000 A 
ENDBRANCH  28  29
ENDBRANCH  27  28
ENDBRANCH  24  27
ENDBRANCH  22  23
BRANCH  22  35
ATOM     35  C   UNL     1       2.180   2.951  21.272  0.00  0.00    +0.000 C 
ATOM     36  O   UNL     1       0.970   2.894  21.483  0.00  0.00    +0.000 OA
BRANCH  35  37
ATOM     37  OXT UNL     1       3.062   2.183  21.953  0.00  0.00    +0.000 OA
ATOM     38  HXT UNL     1       3.500   1.501  21.397  0.00  0.00    +0.000 HD
ENDBRANCH  35  37
ENDBRANCH  22  35
ENDBRANCH  21  22
ENDBRANCH   3  21
TORSDOF 13
ENDMDL
MODEL 9
REMARK VINA RESULT:      -7.4      3.837      7.671
REMARK  Name = 
REMARK  13 active torsions:
REMARK  status: ('A' for Active; 'I' for Inactive)
REMARK    1  A    between atoms: N_4  and  C_5
REMARK    2  A    between atoms: C_5  and  C_6
REMARK    3  A    between atoms: C_6  and  C_7
REMARK    4  A    between atoms: C_7  and  C_8
REMARK    5  A    between atoms: C_10  and  C_11
REMARK    6  A    between atoms: N_13  and  C_14
REMARK    7  A    between atoms: C_14  and  CA_15
REMARK    8  A    between atoms: CA_15  and  N_16
REMARK    9  A    between atoms: CA_15  and  C_27
REMARK   10  A    between atoms: C_17  and  O_19
REMARK   11  A    between atoms: O_19  and  C_20
REMARK   12  A    between atoms: C_20  and  C_21
REMARK   13  A    between atoms: C_27  and  OXT_29
REMARK                            x       y       z     vdW  Elec       q    Type
REMARK                         _______ _______ _______ _____ _____    ______ ____
ROOT
ATOM      1  C   UNL     1       4.644   3.403  17.336  0.00  0.00    +0.000 C 
ATOM      2  O   UNL     1       5.166   2.561  16.621  0.00  0.00    +0.000 OA
ATOM      3  N   UNL     1       4.629   4.760  17.092  0.00  0.00    +0.000 N 
ATOM      4  H   UNL     1       4.115   5.340  17.749  0.00  0.00    +0.000 HD
ENDROOT
BRANCH   1   7
ATOM      5  C   UNL     1       2.298   2.328  20.068  0.00  0.00    +0.000 C 
ATOM      6  C   UNL     1       2.471   2.858  18.659  0.00  0.00    +0.000 C 
ATOM      7  C   UNL     1       3.946   2.960  18.608  0.00  0.00    +0.000 C 
ATOM      8  N   UNL     1       4.590   2.640  19.682  0.00  0.00    +0.000 NA
ATOM      9  O   UNL     1       3.625   2.241  20.639  0.00  0.00    +0.000 OA
BRANCH   5  10
ATOM     10  C   UNL     1       1.451   3.186  21.019  0.00  0.00    +0.000 C 
BRANCH  10  11
ATOM     11  C   UNL     1       1.015   4.558  20.483  0.00  0.00    +0.000 C 
BRANCH  11  12
ATOM     12  C   UNL     1       2.075   5.619  20.812  0.00  0.00    +0.000 C 
BRANCH  12  16
ATOM     13  N   UNL     1       3.438   6.908  18.629  0.00  0.00    +0.000 NA
ATOM     14  C   UNL     1       2.415   7.444  19.187  0.00  0.00    +0.000 C 
ATOM     15  N   UNL     1       1.898   8.621  18.788  0.00  0.00    +0.000 N 
ATOM     16  N   UNL     1       1.753   6.916  20.239  0.00  0.00    +0.000 N 
ATOM     17  H   UNL     1       3.751   7.492  17.853  0.00  0.00    +0.000 HD
ATOM     18  H   UNL     1       2.512   9.176  18.204  0.00  0.00    +0.000 HD
ATOM     19  H   UNL     1       1.518   9.181  19.542  0.00  0.00    +0.000 HD
ATOM     20  H   UNL     1       0.805   7.232  20.384  0.00  0.00    +0.000 HD
ENDBRANCH  12  16
ENDBRANCH  11  12
ENDBRANCH  10  11
ENDBRANCH   5  10
ENDBRANCH   1   7
BRANCH   3  21
ATOM     21  C   UNL     1       5.190   5.348  15.875  0.00  0.00    +0.000 C 
BRANCH  21  22
ATOM     22  CA  UNL     1       6.725   5.323  15.815  0.00  0.00    +0.000 C 
BRANCH  22  23
ATOM     23  N   UNL     1       7.326   6.595  16.210  0.00  0.00    +0.000 N 
ATOM     24  C   UNL     1       7.331   7.011  17.505  0.00  0.00    +0.000 C 
ATOM     25  O   UNL     1       6.886   6.352  18.433  0.00  0.00    +0.000 OA
ATOM     26  H   UNL     1       7.911   7.111  15.567  0.00  0.00    +0.000 HD
BRANCH  24  27
ATOM     27  O   UNL     1       7.863   8.249  17.572  0.00  0.00    +0.000 OA
BRANCH  27  28
ATOM     28  C   UNL     1       8.661   8.513  18.738  0.00  0.00    +0.000 C 
BRANCH  28  29
ATOM     29  C   UNL     1       8.927   9.998  18.817  0.00  0.00    +0.000 A 
ATOM     30  C   UNL     1       8.551  10.853  17.773  0.00  0.00    +0.000 A 
ATOM     31  C   UNL     1       8.839  12.219  17.837  0.00  0.00    +0.000 A 
ATOM     32  C   UNL     1       9.507  12.742  18.943  0.00  0.00    +0.000 A 
ATOM     33  C   UNL     1       9.882  11.903  19.989  0.00  0.00    +0.000 A 
ATOM     34  C   UNL     1       9.591  10.540  19.929  0.00  0.00    +0.000 A 
ENDBRANCH  28  29
ENDBRANCH  27  28
ENDBRANCH  24  27
ENDBRANCH  22  23
BRANCH  22  35
ATOM     35  C   UNL     1       7.175   5.005  14.389  0.00  0.00    +0.000 C 
ATOM     36  O   UNL     1       8.136   5.535  13.836  0.00  0.00    +0.000 OA
BRANCH  35  37
ATOM     37  OXT UNL     1       6.479   3.999  13.809  0.00  0.00    +0.000 OA
ATOM     38  HXT UNL     1       5.608   3.830  14.233  0.00  0.00    +0.000 HD
ENDBRANCH  35  37
ENDBRANCH  22  35
ENDBRANCH  21  22
ENDBRANCH   3  21
TORSDOF 13
ENDMDL
