MODEL 1
REMARK VINA RESULT:      -7.5      0.000      0.000
REMARK  Name = 
REMARK  4 active torsions:
REMARK  status: ('A' for Active; 'I' for Inactive)
REMARK    1  A    between atoms: C_5  and  C_6
REMARK    2  A    between atoms: C_6  and  N_7
REMARK    3  A    between atoms: C_13  and  C_14
REMARK    4  A    between atoms: C_19  and  O_20
REMARK                            x       y       z     vdW  Elec       q    Type
REMARK                         _______ _______ _______ _____ _____    ______ ____
ROOT
ATOM      1  N   UNL     1       7.624   6.689  16.447  0.00  0.00    +0.000 N 
ATOM      2  C   UNL     1       6.457   6.026  16.776  0.00  0.00    +0.000 A 
ATOM      3  N   UNL     1       6.357   4.750  16.424  0.00  0.00    +0.000 NA
ATOM      4  C   UNL     1       5.178   4.167  16.694  0.00  0.00    +0.000 A 
ATOM      5  C   UNL     1       4.079   4.807  17.259  0.00  0.00    +0.000 A 
ATOM      6  C   UNL     1       4.275   6.152  17.564  0.00  0.00    +0.000 A 
ATOM      7  N   UNL     1       5.486   6.733  17.343  0.00  0.00    +0.000 NA
ATOM      8  H   UNL     1       8.038   6.233  15.647  0.00  0.00    +0.000 HD
ATOM      9  H   UNL     1       7.393   7.672  16.341  0.00  0.00    +0.000 HD
ENDROOT
BRANCH   6  10
ATOM     10  C   UNL     1       3.277   7.106  18.151  0.00  0.00    +0.000 A 
ATOM     11  C   UNL     1       2.720   8.159  17.398  0.00  0.00    +0.000 A 
ATOM     12  C   UNL     1       1.766   9.041  17.926  0.00  0.00    +0.000 A 
ATOM     13  C   UNL     1       1.294   8.871  19.220  0.00  0.00    +0.000 A 
ATOM     14  C   UNL     1       1.790   7.829  19.992  0.00  0.00    +0.000 A 
ATOM     15  C   UNL     1       2.774   6.974  19.472  0.00  0.00    +0.000 A 
BRANCH  15  16
ATOM     16  O   UNL     1       3.256   6.002  20.315  0.00  0.00    +0.000 OA
ATOM     17  H   UNL     1       4.015   6.363  20.802  0.00  0.00    +0.000 HD
ENDBRANCH  15  16
ENDBRANCH   6  10
BRANCH   5  18
ATOM     18  C   UNL     1       2.845   3.969  17.472  0.00  0.00    +0.000 C 
BRANCH  18  19
ATOM     19  N   UNL     1       2.538   3.710  18.875  0.00  0.00    +0.000 NA
ATOM     20  C   UNL     1       1.116   3.388  19.115  0.00  0.00    +0.000 C 
ATOM     21  C   UNL     1       0.870   3.242  20.626  0.00  0.00    +0.000 C 
ATOM     22  O   UNL     1       1.708   2.224  21.199  0.00  0.00    +0.000 OA
ATOM     23  C   UNL     1       3.090   2.511  20.940  0.00  0.00    +0.000 C 
ATOM     24  C   UNL     1       3.352   2.611  19.430  0.00  0.00    +0.000 C 
ENDBRANCH  18  19
ENDBRANCH   5  18
TORSDOF 4
ENDMDL
MODEL 2
REMARK VINA RESULT:      -7.4      2.081      4.742
REMARK  Name = 
REMARK  4 active torsions:
REMARK  status: ('A' for Active; 'I' for Inactive)
REMARK    1  A    between atoms: C_5  and  C_6
REMARK    2  A    between atoms: C_6  and  N_7
REMARK    3  A    between atoms: C_13  and  C_14
REMARK    4  A    between atoms: C_19  and  O_20
REMARK                            x       y       z     vdW  Elec       q    Type
REMARK                         _______ _______ _______ _____ _____    ______ ____
ROOT
ATOM      1  N   UNL     1       0.782   2.899  20.952  0.00  0.00    +0.000 N 
ATOM      2  C   UNL     1       1.833   3.592  20.384  0.00  0.00    +0.000 A 
ATOM      3  N   UNL     1       3.007   2.976  20.312  0.00  0.00    +0.000 NA
ATOM      4  C   UNL     1       4.018   3.712  19.825  0.00  0.00    +0.000 A 
ATOM      5  C   UNL     1       3.926   5.048  19.445  0.00  0.00    +0.000 A 
ATOM      6  C   UNL     1       2.660   5.612  19.587  0.00  0.00    +0.000 A 
ATOM      7  N   UNL     1       1.620   4.855  20.029  0.00  0.00    +0.000 NA
ATOM      8  H   UNL     1       1.158   2.207  21.584  0.00  0.00    +0.000 HD
ATOM      9  H   UNL     1       0.150   3.585  21.352  0.00  0.00    +0.000 HD
ENDROOT
BRANCH   6  10
ATOM     10  C   UNL     1       2.257   7.027  19.289  0.00  0.00    +0.000 A 
ATOM     11  C   UNL     1       2.308   7.557  17.984  0.00  0.00    +0.000 A 
ATOM     12  C   UNL     1       1.908   8.868  17.687  0.00  0.00    +0.000 A 
ATOM     13  C   UNL     1       1.393   9.686  18.682  0.00  0.00    +0.000 A 
ATOM     14  C   UNL     1       1.293   9.199  19.979  0.00  0.00    +0.000 A 
ATOM     15  C   UNL     1       1.733   7.900  20.277  0.00  0.00    +0.000 A 
BRANCH  15  16
ATOM     16  O   UNL     1       1.655   7.509  21.592  0.00  0.00    +0.000 OA
ATOM     17  H   UNL     1       1.804   8.285  22.155  0.00  0.00    +0.000 HD
ENDBRANCH  15  16
ENDBRANCH   6  10
BRANCH   5  18
ATOM     18  C   UNL     1       5.187   5.692  18.930  0.00  0.00    +0.000 C 
BRANCH  18  19
ATOM     19  N   UNL     1       5.538   5.303  17.567  0.00  0.00    +0.000 NA
ATOM     20  C   UNL     1       5.225   6.339  16.561  0.00  0.00    +0.000 C 
ATOM     21  C   UNL     1       5.527   5.796  15.154  0.00  0.00    +0.000 C 
ATOM     22  O   UNL     1       6.900   5.388  15.031  0.00  0.00    +0.000 OA
ATOM     23  C   UNL     1       7.221   4.408  16.027  0.00  0.00    +0.000 C 
ATOM     24  C   UNL     1       6.968   4.960  17.438  0.00  0.00    +0.000 C 
ENDBRANCH  18  19
ENDBRANCH   5  18
TORSDOF 4
ENDMDL
MODEL 3
REMARK VINA RESULT:      -7.4      1.949      4.768
REMARK  Name = 
REMARK  4 active torsions:
REMARK  status: ('A' for Active; 'I' for Inactive)
REMARK    1  A    between atoms: C_5  and  C_6
REMARK    2  A    between atoms: C_6  and  N_7
REMARK    3  A    between atoms: C_13  and  C_14
REMARK    4  A    between atoms: C_19  and  O_20
REMARK                            x       y       z     vdW  Elec       q    Type
REMARK                         _______ _______ _______ _____ _____    ______ ____
ROOT
ATOM      1  N   UNL     1       0.691   1.757  18.631  0.00  0.00    +0.000 N 
ATOM      2  C   UNL     1       1.862   2.486  18.718  0.00  0.00    +0.000 A 
ATOM      3  N   UNL     1       2.992   1.812  18.896  0.00  0.00    +0.000 NA
ATOM      4  C   UNL     1       4.093   2.563  19.053  0.00  0.00    +0.000 A 
ATOM      5  C   UNL     1       4.117   3.954  19.085  0.00  0.00    +0.000 A 
ATOM      6  C   UNL     1       2.877   4.566  18.920  0.00  0.00    +0.000 A 
ATOM      7  N   UNL     1       1.765   3.811  18.705  0.00  0.00    +0.000 NA
ATOM      8  H   UNL     1       0.821   0.882  19.117  0.00  0.00    +0.000 HD
ATOM      9  H   UNL     1      -0.061   2.354  18.960  0.00  0.00    +0.000 HD
ENDROOT
BRANCH   6  10
ATOM     10  C   UNL     1       2.580   6.037  18.934  0.00  0.00    +0.000 A 
ATOM     11  C   UNL     1       2.750   6.843  17.791  0.00  0.00    +0.000 A 
ATOM     12  C   UNL     1       2.450   8.213  17.782  0.00  0.00    +0.000 A 
ATOM     13  C   UNL     1       1.919   8.821  18.910  0.00  0.00    +0.000 A 
ATOM     14  C   UNL     1       1.703   8.062  20.053  0.00  0.00    +0.000 A 
ATOM     15  C   UNL     1       2.043   6.701  20.068  0.00  0.00    +0.000 A 
BRANCH  15  16
ATOM     16  O   UNL     1       1.853   6.030  21.252  0.00  0.00    +0.000 OA
ATOM     17  H   UNL     1       2.658   5.526  21.454  0.00  0.00    +0.000 HD
ENDBRANCH  15  16
ENDBRANCH   6  10
BRANCH   5  18
ATOM     18  C   UNL     1       5.463   4.603  19.280  0.00  0.00    +0.000 C 
BRANCH  18  19
ATOM     19  N   UNL     1       5.916   5.386  18.134  0.00  0.00    +0.000 NA
ATOM     20  C   UNL     1       7.134   6.177  18.408  0.00  0.00    +0.000 C 
ATOM     21  C   UNL     1       7.467   7.047  17.185  0.00  0.00    +0.000 C 
ATOM     22  O   UNL     1       7.655   6.248  16.006  0.00  0.00    +0.000 OA
ATOM     23  C   UNL     1       6.490   5.450  15.753  0.00  0.00    +0.000 C 
ATOM     24  C   UNL     1       6.179   4.543  16.952  0.00  0.00    +0.000 C 
ENDBRANCH  18  19
ENDBRANCH   5  18
TORSDOF 4
ENDMDL
MODEL 4
REMARK VINA RESULT:      -7.2      1.394      2.104
REMARK  Name = 
REMARK  4 active torsions:
REMARK  status: ('A' for Active; 'I' for Inactive)
REMARK    1  A    between atoms: C_5  and  C_6
REMARK    2  A    between atoms: C_6  and  N_7
REMARK    3  A    between atoms: C_13  and  C_14
REMARK    4  A    between atoms: C_19  and  O_20
REMARK                            x       y       z     vdW  Elec       q    Type
REMARK                         _______ _______ _______ _____ _____    ______ ____
ROOT
ATOM      1  N   UNL     1       6.306   6.843  16.369  0.00  0.00    +0.000 N 
ATOM      2  C   UNL     1       5.201   6.204  16.898  0.00  0.00    +0.000 A 
ATOM      3  N   UNL     1       4.979   4.951  16.520  0.00  0.00    +0.000 NA
ATOM      4  C   UNL     1       3.855   4.394  16.996  0.00  0.00    +0.000 A 
ATOM      5  C   UNL     1       2.917   5.040  17.796  0.00  0.00    +0.000 A 
ATOM      6  C   UNL     1       3.226   6.362  18.112  0.00  0.00    +0.000 A 
ATOM      7  N   UNL     1       4.392   6.913  17.677  0.00  0.00    +0.000 NA
ATOM      8  H   UNL     1       6.533   6.414  15.485  0.00  0.00    +0.000 HD
ATOM      9  H   UNL     1       6.099   7.837  16.353  0.00  0.00    +0.000 HD
ENDROOT
BRANCH   6  10
ATOM     10  C   UNL     1       2.405   7.317  18.927  0.00  0.00    +0.000 A 
ATOM     11  C   UNL     1       2.080   7.060  20.274  0.00  0.00    +0.000 A 
ATOM     12  C   UNL     1       1.338   7.956  21.055  0.00  0.00    +0.000 A 
ATOM     13  C   UNL     1       0.932   9.174  20.530  0.00  0.00    +0.000 A 
ATOM     14  C   UNL     1       1.255   9.489  19.216  0.00  0.00    +0.000 A 
ATOM     15  C   UNL     1       1.963   8.570  18.426  0.00  0.00    +0.000 A 
BRANCH  15  16
ATOM     16  O   UNL     1       2.196   8.927  17.120  0.00  0.00    +0.000 OA
ATOM     17  H   UNL     1       1.924   9.852  17.000  0.00  0.00    +0.000 HD
ENDBRANCH  15  16
ENDBRANCH   6  10
BRANCH   5  18
ATOM     18  C   UNL     1       1.716   4.233  18.217  0.00  0.00    +0.000 C 
BRANCH  18  19
ATOM     19  N   UNL     1       1.961   3.354  19.357  0.00  0.00    +0.000 NA
ATOM     20  C   UNL     1       3.364   3.372  19.820  0.00  0.00    +0.000 C 
ATOM     21  C   UNL     1       3.546   2.340  20.946  0.00  0.00    +0.000 C 
ATOM     22  O   UNL     1       2.661   2.601  22.047  0.00  0.00    +0.000 OA
ATOM     23  C   UNL     1       1.299   2.620  21.599  0.00  0.00    +0.000 C 
ATOM     24  C   UNL     1       1.098   3.683  20.508  0.00  0.00    +0.000 C 
ENDBRANCH  18  19
ENDBRANCH   5  18
TORSDOF 4
ENDMDL
MODEL 5
REMARK VINA RESULT:      -7.1      3.230      5.740
REMARK  Name = 
REMARK  4 active torsions:
REMARK  status: ('A' for Active; 'I' for Inactive)
REMARK    1  A    between atoms: C_5  and  C_6
REMARK    2  A    between atoms: C_6  and  N_7
REMARK    3  A    between atoms: C_13  and  C_14
REMARK    4  A    between atoms: C_19  and  O_20
REMARK                            x       y       z     vdW  Elec       q    Type
REMARK                         _______ _______ _______ _____ _____    ______ ____
ROOT
ATOM      1  N   UNL     1       7.938   5.509  20.099  0.00  0.00    +0.000 N 
ATOM      2  C   UNL     1       7.278   5.100  18.956  0.00  0.00    +0.000 A 
ATOM      3  N   UNL     1       7.870   5.331  17.791  0.00  0.00    +0.000 NA
ATOM      4  C   UNL     1       7.160   4.988  16.704  0.00  0.00    +0.000 A 
ATOM      5  C   UNL     1       5.870   4.467  16.721  0.00  0.00    +0.000 A 
ATOM      6  C   UNL     1       5.325   4.291  17.992  0.00  0.00    +0.000 A 
ATOM      7  N   UNL     1       6.061   4.585  19.098  0.00  0.00    +0.000 NA
ATOM      8  H   UNL     1       8.556   6.269  19.859  0.00  0.00    +0.000 HD
ATOM      9  H   UNL     1       7.231   5.701  20.803  0.00  0.00    +0.000 HD
ENDROOT
BRANCH   6  10
ATOM     10  C   UNL     1       3.956   3.778  18.330  0.00  0.00    +0.000 A 
ATOM     11  C   UNL     1       2.787   4.389  17.833  0.00  0.00    +0.000 A 
ATOM     12  C   UNL     1       1.503   3.904  18.119  0.00  0.00    +0.000 A 
ATOM     13  C   UNL     1       1.341   2.753  18.877  0.00  0.00    +0.000 A 
ATOM     14  C   UNL     1       2.464   2.096  19.363  0.00  0.00    +0.000 A 
ATOM     15  C   UNL     1       3.745   2.610  19.108  0.00  0.00    +0.000 A 
BRANCH  15  16
ATOM     16  O   UNL     1       4.803   1.937  19.670  0.00  0.00    +0.000 OA
ATOM     17  H   UNL     1       5.025   1.181  19.103  0.00  0.00    +0.000 HD
ENDBRANCH  15  16
ENDBRANCH   6  10
BRANCH   5  18
ATOM     18  C   UNL     1       5.248   4.157  15.384  0.00  0.00    +0.000 C 
BRANCH  18  19
ATOM     19  N   UNL     1       6.213   4.034  14.295  0.00  0.00    +0.000 NA
ATOM     20  C   UNL     1       5.631   3.482  13.054  0.00  0.00    +0.000 C 
ATOM     21  C   UNL     1       6.741   3.290  12.008  0.00  0.00    +0.000 C 
ATOM     22  O   UNL     1       7.418   4.525  11.726  0.00  0.00    +0.000 OA
ATOM     23  C   UNL     1       7.957   5.086  12.932  0.00  0.00    +0.000 C 
ATOM     24  C   UNL     1       6.846   5.326  13.965  0.00  0.00    +0.000 C 
ENDBRANCH  18  19
ENDBRANCH   5  18
TORSDOF 4
ENDMDL
MODEL 6
REMARK VINA RESULT:      -7.1      1.832      4.482
REMARK  Name = 
REMARK  4 active torsions:
REMARK  status: ('A' for Active; 'I' for Inactive)
REMARK    1  A    between atoms: C_5  and  C_6
REMARK    2  A    between atoms: C_6  and  N_7
REMARK    3  A    between atoms: C_13  and  C_14
REMARK    4  A    between atoms: C_19  and  O_20
REMARK                            x       y       z     vdW  Elec       q    Type
REMARK                         _______ _______ _______ _____ _____    ______ ____
ROOT
ATOM      1  N   UNL     1       1.346   1.703  18.947  0.00  0.00    +0.000 N 
ATOM      2  C   UNL     1       2.170   2.635  18.344  0.00  0.00    +0.000 A 
ATOM      3  N   UNL     1       3.178   2.178  17.612  0.00  0.00    +0.000 NA
ATOM      4  C   UNL     1       3.998   3.115  17.109  0.00  0.00    +0.000 A 
ATOM      5  C   UNL     1       3.886   4.483  17.337  0.00  0.00    +0.000 A 
ATOM      6  C   UNL     1       2.813   4.858  18.143  0.00  0.00    +0.000 A 
ATOM      7  N   UNL     1       1.948   3.918  18.609  0.00  0.00    +0.000 NA
ATOM      8  H   UNL     1       1.868   0.849  19.076  0.00  0.00    +0.000 HD
ATOM      9  H   UNL     1       0.965   2.135  19.783  0.00  0.00    +0.000 HD
ENDROOT
BRANCH   6  10
ATOM     10  C   UNL     1       2.450   6.245  18.585  0.00  0.00    +0.000 A 
ATOM     11  C   UNL     1       2.283   7.301  17.665  0.00  0.00    +0.000 A 
ATOM     12  C   UNL     1       1.916   8.595  18.061  0.00  0.00    +0.000 A 
ATOM     13  C   UNL     1       1.654   8.871  19.395  0.00  0.00    +0.000 A 
ATOM     14  C   UNL     1       1.774   7.857  20.336  0.00  0.00    +0.000 A 
ATOM     15  C   UNL     1       2.180   6.574  19.939  0.00  0.00    +0.000 A 
BRANCH  15  16
ATOM     16  O   UNL     1       2.331   5.638  20.933  0.00  0.00    +0.000 OA
ATOM     17  H   UNL     1       2.319   4.754  20.531  0.00  0.00    +0.000 HD
ENDBRANCH  15  16
ENDBRANCH   6  10
BRANCH   5  18
ATOM     18  C   UNL     1       4.919   5.364  16.682  0.00  0.00    +0.000 C 
BRANCH  18  19
ATOM     19  N   UNL     1       5.854   5.979  17.619  0.00  0.00    +0.000 NA
ATOM     20  C   UNL     1       6.509   5.006  18.518  0.00  0.00    +0.000 C 
ATOM     21  C   UNL     1       7.386   5.756  19.534  0.00  0.00    +0.000 C 
ATOM     22  O   UNL     1       8.377   6.565  18.878  0.00  0.00    +0.000 OA
ATOM     23  C   UNL     1       7.751   7.488  17.977  0.00  0.00    +0.000 C 
ATOM     24  C   UNL     1       6.911   6.743  16.928  0.00  0.00    +0.000 C 
ENDBRANCH  18  19
ENDBRANCH   5  18
TORSDOF 4
ENDMDL
MODEL 7
REMARK VINA RESULT:      -7.0      0.583      1.171
REMARK  Name = 
REMARK  4 active torsions:
REMARK  status: ('A' for Active; 'I' for Inactive)
REMARK    1  A    between atoms: C_5  and  C_6
REMARK    2  A    between atoms: C_6  and  N_7
REMARK    3  A    between atoms: C_13  and  C_14
REMARK    4  A    between atoms: C_19  and  O_20
REMARK                            x       y       z     vdW  Elec       q    Type
REMARK                         _______ _______ _______ _____ _____    ______ ____
ROOT
ATOM      1  N   UNL     1       7.220   6.222  16.432  0.00  0.00    +0.000 N 
ATOM      2  C   UNL     1       6.006   5.699  16.835  0.00  0.00    +0.000 A 
ATOM      3  N   UNL     1       5.769   4.421  16.563  0.00  0.00    +0.000 NA
ATOM      4  C   UNL     1       4.550   3.975  16.902  0.00  0.00    +0.000 A 
ATOM      5  C   UNL     1       3.538   4.752  17.459  0.00  0.00    +0.000 A 
ATOM      6  C   UNL     1       3.876   6.086  17.676  0.00  0.00    +0.000 A 
ATOM      7  N   UNL     1       5.129   6.530  17.386  0.00  0.00    +0.000 NA
ATOM      8  H   UNL     1       7.559   5.682  15.650  0.00  0.00    +0.000 HD
ATOM      9  H   UNL     1       7.082   7.215  16.274  0.00  0.00    +0.000 HD
ENDROOT
BRANCH   6  10
ATOM     10  C   UNL     1       2.997   7.167  18.234  0.00  0.00    +0.000 A 
ATOM     11  C   UNL     1       2.520   8.226  17.435  0.00  0.00    +0.000 A 
ATOM     12  C   UNL     1       1.676   9.227  17.936  0.00  0.00    +0.000 A 
ATOM     13  C   UNL     1       1.234   9.179  19.250  0.00  0.00    +0.000 A 
ATOM     14  C   UNL     1       1.650   8.137  20.069  0.00  0.00    +0.000 A 
ATOM     15  C   UNL     1       2.528   7.161  19.573  0.00  0.00    +0.000 A 
BRANCH  15  16
ATOM     16  O   UNL     1       2.940   6.194  20.459  0.00  0.00    +0.000 OA
ATOM     17  H   UNL     1       3.909   6.137  20.425  0.00  0.00    +0.000 HD
ENDBRANCH  15  16
ENDBRANCH   6  10
BRANCH   5  18
ATOM     18  C   UNL     1       2.236   4.054  17.758  0.00  0.00    +0.000 C 
BRANCH  18  19
ATOM     19  N   UNL     1       2.247   3.285  18.998  0.00  0.00    +0.000 NA
ATOM     20  C   UNL     1       3.545   3.324  19.703  0.00  0.00    +0.000 C 
ATOM     21  C   UNL     1       3.491   2.401  20.932  0.00  0.00    +0.000 C 
ATOM     22  O   UNL     1       2.434   2.780  21.828  0.00  0.00    +0.000 OA
ATOM     23  C   UNL     1       1.174   2.779  21.143  0.00  0.00    +0.000 C 
ATOM     24  C   UNL     1       1.205   3.736  19.941  0.00  0.00    +0.000 C 
ENDBRANCH  18  19
ENDBRANCH   5  18
TORSDOF 4
ENDMDL
MODEL 8
REMARK VINA RESULT:      -7.0      2.615      5.560
REMARK  Name = 
REMARK  4 active torsions:
REMARK  status: ('A' for Active; 'I' for Inactive)
REMARK    1  A    between atoms: C_5  and  C_6
REMARK    2  A    between atoms: C_6  and  N_7
REMARK    3  A    between atoms: C_13  and  C_14
REMARK    4  A    between atoms: C_19  and  O_20
REMARK                            x       y       z     vdW  Elec       q    Type
REMARK                         _______ _______ _______ _____ _____    ______ ____
ROOT
ATOM      1  N   UNL     1       1.120   1.665  18.682  0.00  0.00    +0.000 N 
ATOM      2  C   UNL     1       1.557   2.918  19.066  0.00  0.00    +0.000 A 
ATOM      3  N   UNL     1       0.789   3.605  19.903  0.00  0.00    +0.000 NA
ATOM      4  C   UNL     1       1.212   4.846  20.189  0.00  0.00    +0.000 A 
ATOM      5  C   UNL     1       2.341   5.452  19.648  0.00  0.00    +0.000 A 
ATOM      6  C   UNL     1       3.063   4.660  18.757  0.00  0.00    +0.000 A 
ATOM      7  N   UNL     1       2.669   3.382  18.506  0.00  0.00    +0.000 NA
ATOM      8  H   UNL     1       0.115   1.636  18.765  0.00  0.00    +0.000 HD
ATOM      9  H   UNL     1       1.507   1.480  17.761  0.00  0.00    +0.000 HD
ENDROOT
BRANCH   6  10
ATOM     10  C   UNL     1       4.300   5.041  17.999  0.00  0.00    +0.000 A 
ATOM     11  C   UNL     1       4.292   6.059  17.024  0.00  0.00    +0.000 A 
ATOM     12  C   UNL     1       5.447   6.444  16.327  0.00  0.00    +0.000 A 
ATOM     13  C   UNL     1       6.669   5.855  16.616  0.00  0.00    +0.000 A 
ATOM     14  C   UNL     1       6.735   4.869  17.592  0.00  0.00    +0.000 A 
ATOM     15  C   UNL     1       5.569   4.459  18.257  0.00  0.00    +0.000 A 
BRANCH  15  16
ATOM     16  O   UNL     1       5.703   3.440  19.168  0.00  0.00    +0.000 OA
ATOM     17  H   UNL     1       5.150   3.640  19.940  0.00  0.00    +0.000 HD
ENDBRANCH  15  16
ENDBRANCH   6  10
BRANCH   5  18
ATOM     18  C   UNL     1       2.635   6.860  20.099  0.00  0.00    +0.000 C 
BRANCH  18  19
ATOM     19  N   UNL     1       1.635   7.838  19.680  0.00  0.00    +0.000 NA
ATOM     20  C   UNL     1       1.223   8.756  20.762  0.00  0.00    +0.000 C 
ATOM     21  C   UNL     1       0.095   9.671  20.256  0.00  0.00    +0.000 C 
ATOM     22  O   UNL     1       0.504  10.423  19.102  0.00  0.00    +0.000 OA
ATOM     23  C   UNL     1       0.940   9.539  18.059  0.00  0.00    +0.000 C 
ATOM     24  C   UNL     1       2.099   8.655  18.542  0.00  0.00    +0.000 C 
ENDBRANCH  18  19
ENDBRANCH   5  18
TORSDOF 4
ENDMDL
MODEL 9
REMARK VINA RESULT:      -7.0      2.581      5.628
REMARK  Name = 
REMARK  4 active torsions:
REMARK  status: ('A' for Active; 'I' for Inactive)
REMARK    1  A    between atoms: C_5  and  C_6
REMARK    2  A    between atoms: C_6  and  N_7
REMARK    3  A    between atoms: C_13  and  C_14
REMARK    4  A    between atoms: C_19  and  O_20
REMARK                            x       y       z     vdW  Elec       q    Type
REMARK                         _______ _______ _______ _____ _____    ______ ____
ROOT
ATOM      1  N   UNL     1       1.676   1.478  18.694  0.00  0.00    +0.000 N 
ATOM      2  C   UNL     1       2.116   2.787  18.669  0.00  0.00    +0.000 A 
ATOM      3  N   UNL     1       1.354   3.702  19.256  0.00  0.00    +0.000 NA
ATOM      4  C   UNL     1       1.779   4.970  19.140  0.00  0.00    +0.000 A 
ATOM      5  C   UNL     1       2.906   5.375  18.431  0.00  0.00    +0.000 A 
ATOM      6  C   UNL     1       3.621   4.344  17.826  0.00  0.00    +0.000 A 
ATOM      7  N   UNL     1       3.225   3.052  17.986  0.00  0.00    +0.000 NA
ATOM      8  H   UNL     1       0.672   1.479  18.788  0.00  0.00    +0.000 HD
ATOM      9  H   UNL     1       2.057   1.016  17.874  0.00  0.00    +0.000 HD
ENDROOT
BRANCH   6  10
ATOM     10  C   UNL     1       4.854   4.468  16.979  0.00  0.00    +0.000 A 
ATOM     11  C   UNL     1       4.787   4.796  15.610  0.00  0.00    +0.000 A 
ATOM     12  C   UNL     1       5.932   4.942  14.813  0.00  0.00    +0.000 A 
ATOM     13  C   UNL     1       7.195   4.813  15.371  0.00  0.00    +0.000 A 
ATOM     14  C   UNL     1       7.314   4.521  16.724  0.00  0.00    +0.000 A 
ATOM     15  C   UNL     1       6.164   4.336  17.507  0.00  0.00    +0.000 A 
BRANCH  15  16
ATOM     16  O   UNL     1       6.362   3.994  18.823  0.00  0.00    +0.000 OA
ATOM     17  H   UNL     1       6.923   3.203  18.856  0.00  0.00    +0.000 HD
ENDBRANCH  15  16
ENDBRANCH   6  10
BRANCH   5  18
ATOM     18  C   UNL     1       3.203   6.853  18.421  0.00  0.00    +0.000 C 
BRANCH  18  19
ATOM     19  N   UNL     1       2.045   7.693  18.716  0.00  0.00    +0.000 NA
ATOM     20  C   UNL     1       2.003   8.164  20.116  0.00  0.00    +0.000 C 
ATOM     21  C   UNL     1       0.700   8.944  20.356  0.00  0.00    +0.000 C 
ATOM     22  O   UNL     1       0.582  10.060  19.458  0.00  0.00    +0.000 OA
ATOM     23  C   UNL     1       0.657   9.614  18.096  0.00  0.00    +0.000 C 
ATOM     24  C   UNL     1       1.978   8.876  17.836  0.00  0.00    +0.000 C 
ENDBRANCH  18  19
ENDBRANCH   5  18
TORSDOF 4
ENDMDL
