MODEL 1
REMARK VINA RESULT:      -5.5      0.000      0.000
REMARK  Name = 
REMARK  26 active torsions:
REMARK  status: ('A' for Active; 'I' for Inactive)
REMARK    1  A    between atoms: C_1  and  C_2
REMARK    2  A    between atoms: C_2  and  C_3
REMARK    3  A    between atoms: C_3  and  C_4
REMARK    4  A    between atoms: C_4  and  C_5
REMARK    5  A    between atoms: C_5  and  C_6
REMARK    6  A    between atoms: C_6  and  C_7
REMARK    7  A    between atoms: C_7  and  C_8
REMARK    8  A    between atoms: C_8  and  C_9
REMARK    9  A    between atoms: C_11  and  C_12
REMARK   10  A    between atoms: C_12  and  C_13
REMARK   11  A    between atoms: C_13  and  C_14
REMARK   12  A    between atoms: C_14  and  C_15
REMARK   13  A    between atoms: C_15  and  C_16
REMARK   14  A    between atoms: C_16  and  C_17
REMARK   15  A    between atoms: C_17  and  C_18
REMARK   16  A    between atoms: C_18  and  C_19
REMARK   17  A    between atoms: C_19  and  C_20
REMARK   18  A    between atoms: C_20  and  C_21
REMARK   19  A    between atoms: C_21  and  C_22
REMARK   20  A    between atoms: C_22  and  C_23
REMARK   21  A    between atoms: C_23  and  O_24
REMARK   22  A    between atoms: O_24  and  C_25
REMARK   23  A    between atoms: C_25  and  C_26
REMARK   24  A    between atoms: C_25  and  C_28
REMARK   25  A    between atoms: C_26  and  O_27
REMARK   26  A    between atoms: C_28  and  O_29
REMARK                            x       y       z     vdW  Elec       q    Type
REMARK                         _______ _______ _______ _____ _____    ______ ____
ROOT
ATOM      1  C   UNL     1       1.592   6.149  20.494  0.00  0.00    +0.000 C 
ENDROOT
BRANCH   1   2
ATOM      2  C   UNL     1       2.020   4.705  20.729  0.00  0.00    +0.000 C 
BRANCH   2   3
ATOM      3  C   UNL     1       0.957   3.747  20.205  0.00  0.00    +0.000 C 
BRANCH   3   4
ATOM      4  C   UNL     1       1.206   3.413  18.742  0.00  0.00    +0.000 C 
BRANCH   4   5
ATOM      5  C   UNL     1       1.915   2.068  18.612  0.00  0.00    +0.000 C 
BRANCH   5   6
ATOM      6  C   UNL     1       3.232   2.246  17.876  0.00  0.00    +0.000 C 
BRANCH   6   7
ATOM      7  C   UNL     1       3.427   3.676  17.384  0.00  0.00    +0.000 C 
BRANCH   7   8
ATOM      8  C   UNL     1       4.913   3.918  17.163  0.00  0.00    +0.000 C 
BRANCH   8   9
ATOM      9  O   UNL     1       5.432   4.768  18.185  0.00  0.00    +0.000 OA
BRANCH   9  10
ATOM     10  C   UNL     1       6.807   5.151  17.926  0.00  0.00    +0.000 C 
BRANCH  10  11
ATOM     11  C   UNL     1       7.393   5.659  19.251  0.00  0.00    +0.000 C 
BRANCH  11  12
ATOM     12  O   UNL     1       8.270   6.759  19.008  0.00  0.00    +0.000 OA
ATOM     13  H   UNL     1       8.977   6.406  18.436  0.00  0.00    +0.000 HD
ENDBRANCH  11  12
ENDBRANCH  10  11
BRANCH  10  14
ATOM     14  C   UNL     1       6.884   6.242  16.856  0.00  0.00    +0.000 C 
BRANCH  14  15
ATOM     15  O   UNL     1       7.528   5.758  15.677  0.00  0.00    +0.000 OA
ATOM     16  H   UNL     1       7.019   4.978  15.387  0.00  0.00    +0.000 HD
ENDBRANCH  14  15
ENDBRANCH  10  14
ENDBRANCH   9  10
ENDBRANCH   8   9
ENDBRANCH   7   8
ENDBRANCH   6   7
ENDBRANCH   5   6
ENDBRANCH   4   5
ENDBRANCH   3   4
ENDBRANCH   2   3
ENDBRANCH   1   2
BRANCH   1  17
ATOM     17  C   UNL     1       2.660   6.908  19.714  0.00  0.00    +0.000 C 
BRANCH  17  18
ATOM     18  C   UNL     1       2.313   6.973  18.229  0.00  0.00    +0.000 C 
BRANCH  18  19
ATOM     19  C   UNL     1       2.155   8.422  17.784  0.00  0.00    +0.000 C 
BRANCH  19  20
ATOM     20  C   UNL     1       1.464   9.272  18.850  0.00  0.00    +0.000 C 
BRANCH  20  23
ATOM     21  C   UNL     1      -0.184  11.383  18.614  0.00  0.00    +0.000 C 
ATOM     22  C   UNL     1      -0.925  10.201  19.181  0.00  0.00    +0.000 C 
ATOM     23  C   UNL     1       0.262   9.967  18.284  0.00  0.00    +0.000 C 
BRANCH  21  24
ATOM     24  C   UNL     1       0.497  12.329  19.566  0.00  0.00    +0.000 C 
BRANCH  24  25
ATOM     25  C   UNL     1      -0.213  13.686  19.580  0.00  0.00    +0.000 C 
BRANCH  25  26
ATOM     26  C   UNL     1      -1.691  13.586  19.970  0.00  0.00    +0.000 C 
BRANCH  26  27
ATOM     27  C   UNL     1      -1.820  13.566  21.500  0.00  0.00    +0.000 C 
BRANCH  27  28
ATOM     28  C   UNL     1      -2.537  12.317  22.011  0.00  0.00    +0.000 C 
BRANCH  28  29
ATOM     29  C   UNL     1      -1.734  11.656  23.139  0.00  0.00    +0.000 C 
BRANCH  29  31
ATOM     30  C   UNL     1      -0.415   9.509  23.047  0.00  0.00    +0.000 C 
ATOM     31  C   UNL     1      -0.484  10.960  22.601  0.00  0.00    +0.000 C 
ENDBRANCH  29  31
ENDBRANCH  28  29
ENDBRANCH  27  28
ENDBRANCH  26  27
ENDBRANCH  25  26
ENDBRANCH  24  25
ENDBRANCH  21  24
ENDBRANCH  20  23
ENDBRANCH  19  20
ENDBRANCH  18  19
ENDBRANCH  17  18
ENDBRANCH   1  17
TORSDOF 25
ENDMDL
MODEL 2
REMARK VINA RESULT:      -5.2      2.473      3.283
REMARK  Name = 
REMARK  26 active torsions:
REMARK  status: ('A' for Active; 'I' for Inactive)
REMARK    1  A    between atoms: C_1  and  C_2
REMARK    2  A    between atoms: C_2  and  C_3
REMARK    3  A    between atoms: C_3  and  C_4
REMARK    4  A    between atoms: C_4  and  C_5
REMARK    5  A    between atoms: C_5  and  C_6
REMARK    6  A    between atoms: C_6  and  C_7
REMARK    7  A    between atoms: C_7  and  C_8
REMARK    8  A    between atoms: C_8  and  C_9
REMARK    9  A    between atoms: C_11  and  C_12
REMARK   10  A    between atoms: C_12  and  C_13
REMARK   11  A    between atoms: C_13  and  C_14
REMARK   12  A    between atoms: C_14  and  C_15
REMARK   13  A    between atoms: C_15  and  C_16
REMARK   14  A    between atoms: C_16  and  C_17
REMARK   15  A    between atoms: C_17  and  C_18
REMARK   16  A    between atoms: C_18  and  C_19
REMARK   17  A    between atoms: C_19  and  C_20
REMARK   18  A    between atoms: C_20  and  C_21
REMARK   19  A    between atoms: C_21  and  C_22
REMARK   20  A    between atoms: C_22  and  C_23
REMARK   21  A    between atoms: C_23  and  O_24
REMARK   22  A    between atoms: O_24  and  C_25
REMARK   23  A    between atoms: C_25  and  C_26
REMARK   24  A    between atoms: C_25  and  C_28
REMARK   25  A    between atoms: C_26  and  O_27
REMARK   26  A    between atoms: C_28  and  O_29
REMARK                            x       y       z     vdW  Elec       q    Type
REMARK                         _______ _______ _______ _____ _____    ______ ____
ROOT
ATOM      1  C   UNL     1       1.454   5.856  20.499  0.00  0.00    +0.000 C 
ENDROOT
BRANCH   1   2
ATOM      2  C   UNL     1       1.101   4.382  20.338  0.00  0.00    +0.000 C 
BRANCH   2   3
ATOM      3  C   UNL     1       2.293   3.509  20.712  0.00  0.00    +0.000 C 
BRANCH   3   4
ATOM      4  C   UNL     1       2.246   2.183  19.966  0.00  0.00    +0.000 C 
BRANCH   4   5
ATOM      5  C   UNL     1       1.961   2.412  18.485  0.00  0.00    +0.000 C 
BRANCH   5   6
ATOM      6  C   UNL     1       3.251   2.313  17.688  0.00  0.00    +0.000 C 
BRANCH   6   7
ATOM      7  C   UNL     1       3.799   3.684  17.310  0.00  0.00    +0.000 C 
BRANCH   7   8
ATOM      8  C   UNL     1       5.043   3.959  18.141  0.00  0.00    +0.000 C 
BRANCH   8   9
ATOM      9  O   UNL     1       6.123   4.358  17.296  0.00  0.00    +0.000 OA
BRANCH   9  10
ATOM     10  C   UNL     1       6.725   5.602  17.735  0.00  0.00    +0.000 C 
BRANCH  10  11
ATOM     11  C   UNL     1       6.768   5.568  19.269  0.00  0.00    +0.000 C 
BRANCH  11  12
ATOM     12  O   UNL     1       8.122   5.489  19.718  0.00  0.00    +0.000 OA
ATOM     13  H   UNL     1       8.154   4.714  20.308  0.00  0.00    +0.000 HD
ENDBRANCH  11  12
ENDBRANCH  10  11
BRANCH  10  14
ATOM     14  C   UNL     1       5.916   6.808  17.250  0.00  0.00    +0.000 C 
BRANCH  14  15
ATOM     15  O   UNL     1       5.814   6.815  15.826  0.00  0.00    +0.000 OA
ATOM     16  H   UNL     1       6.084   5.927  15.527  0.00  0.00    +0.000 HD
ENDBRANCH  14  15
ENDBRANCH  10  14
ENDBRANCH   9  10
ENDBRANCH   8   9
ENDBRANCH   7   8
ENDBRANCH   6   7
ENDBRANCH   5   6
ENDBRANCH   4   5
ENDBRANCH   3   4
ENDBRANCH   2   3
ENDBRANCH   1   2
BRANCH   1  17
ATOM     17  C   UNL     1       2.633   6.229  19.608  0.00  0.00    +0.000 C 
BRANCH  17  18
ATOM     18  C   UNL     1       2.285   7.407  18.703  0.00  0.00    +0.000 C 
BRANCH  18  19
ATOM     19  C   UNL     1       1.726   8.563  19.525  0.00  0.00    +0.000 C 
BRANCH  19  20
ATOM     20  C   UNL     1       1.330   9.748  18.644  0.00  0.00    +0.000 C 
BRANCH  20  23
ATOM     21  C   UNL     1      -1.068  10.854  19.147  0.00  0.00    +0.000 C 
ATOM     22  C   UNL     1      -0.100  11.900  18.664  0.00  0.00    +0.000 C 
ATOM     23  C   UNL     1       0.425  10.686  19.384  0.00  0.00    +0.000 C 
BRANCH  21  24
ATOM     24  C   UNL     1      -1.894  10.114  18.131  0.00  0.00    +0.000 C 
BRANCH  24  25
ATOM     25  C   UNL     1      -2.118  10.976  16.885  0.00  0.00    +0.000 C 
BRANCH  25  26
ATOM     26  C   UNL     1      -3.532  10.846  16.312  0.00  0.00    +0.000 C 
BRANCH  26  27
ATOM     27  C   UNL     1      -4.561  10.948  17.449  0.00  0.00    +0.000 C 
BRANCH  27  28
ATOM     28  C   UNL     1      -5.429  12.200  17.342  0.00  0.00    +0.000 C 
BRANCH  28  29
ATOM     29  C   UNL     1      -6.835  11.932  17.894  0.00  0.00    +0.000 C 
BRANCH  29  31
ATOM     30  C   UNL     1      -7.223  10.858  20.142  0.00  0.00    +0.000 C 
ATOM     31  C   UNL     1      -6.887  10.622  18.679  0.00  0.00    +0.000 C 
ENDBRANCH  29  31
ENDBRANCH  28  29
ENDBRANCH  27  28
ENDBRANCH  26  27
ENDBRANCH  25  26
ENDBRANCH  24  25
ENDBRANCH  21  24
ENDBRANCH  20  23
ENDBRANCH  19  20
ENDBRANCH  18  19
ENDBRANCH  17  18
ENDBRANCH   1  17
TORSDOF 25
ENDMDL
MODEL 3
REMARK VINA RESULT:      -5.1      2.024      2.959
REMARK  Name = 
REMARK  26 active torsions:
REMARK  status: ('A' for Active; 'I' for Inactive)
REMARK    1  A    between atoms: C_1  and  C_2
REMARK    2  A    between atoms: C_2  and  C_3
REMARK    3  A    between atoms: C_3  and  C_4
REMARK    4  A    between atoms: C_4  and  C_5
REMARK    5  A    between atoms: C_5  and  C_6
REMARK    6  A    between atoms: C_6  and  C_7
REMARK    7  A    between atoms: C_7  and  C_8
REMARK    8  A    between atoms: C_8  and  C_9
REMARK    9  A    between atoms: C_11  and  C_12
REMARK   10  A    between atoms: C_12  and  C_13
REMARK   11  A    between atoms: C_13  and  C_14
REMARK   12  A    between atoms: C_14  and  C_15
REMARK   13  A    between atoms: C_15  and  C_16
REMARK   14  A    between atoms: C_16  and  C_17
REMARK   15  A    between atoms: C_17  and  C_18
REMARK   16  A    between atoms: C_18  and  C_19
REMARK   17  A    between atoms: C_19  and  C_20
REMARK   18  A    between atoms: C_20  and  C_21
REMARK   19  A    between atoms: C_21  and  C_22
REMARK   20  A    between atoms: C_22  and  C_23
REMARK   21  A    between atoms: C_23  and  O_24
REMARK   22  A    between atoms: O_24  and  C_25
REMARK   23  A    between atoms: C_25  and  C_26
REMARK   24  A    between atoms: C_25  and  C_28
REMARK   25  A    between atoms: C_26  and  O_27
REMARK   26  A    between atoms: C_28  and  O_29
REMARK                            x       y       z     vdW  Elec       q    Type
REMARK                         _______ _______ _______ _____ _____    ______ ____
ROOT
ATOM      1  C   UNL     1       1.651   5.474  20.318  0.00  0.00    +0.000 C 
ENDROOT
BRANCH   1   2
ATOM      2  C   UNL     1       2.599   4.519  21.034  0.00  0.00    +0.000 C 
BRANCH   2   3
ATOM      3  C   UNL     1       2.289   3.078  20.647  0.00  0.00    +0.000 C 
BRANCH   3   4
ATOM      4  C   UNL     1       0.899   2.969  20.038  0.00  0.00    +0.000 C 
BRANCH   4   5
ATOM      5  C   UNL     1       0.987   2.852  18.519  0.00  0.00    +0.000 C 
BRANCH   5   6
ATOM      6  C   UNL     1       2.404   2.484  18.109  0.00  0.00    +0.000 C 
BRANCH   6   7
ATOM      7  C   UNL     1       2.997   3.490  17.130  0.00  0.00    +0.000 C 
BRANCH   7   8
ATOM      8  C   UNL     1       4.503   3.548  17.343  0.00  0.00    +0.000 C 
BRANCH   8   9
ATOM      9  O   UNL     1       4.857   4.740  18.045  0.00  0.00    +0.000 OA
BRANCH   9  10
ATOM     10  C   UNL     1       5.975   5.424  17.424  0.00  0.00    +0.000 C 
BRANCH  10  11
ATOM     11  C   UNL     1       5.450   6.079  16.139  0.00  0.00    +0.000 C 
BRANCH  11  12
ATOM     12  O   UNL     1       4.543   7.133  16.462  0.00  0.00    +0.000 OA
ATOM     13  H   UNL     1       4.664   7.802  15.763  0.00  0.00    +0.000 HD
ENDBRANCH  11  12
ENDBRANCH  10  11
BRANCH  10  14
ATOM     14  C   UNL     1       7.109   4.448  17.102  0.00  0.00    +0.000 C 
BRANCH  14  15
ATOM     15  O   UNL     1       7.674   4.726  15.820  0.00  0.00    +0.000 OA
ATOM     16  H   UNL     1       7.266   4.096  15.198  0.00  0.00    +0.000 HD
ENDBRANCH  14  15
ENDBRANCH  10  14
ENDBRANCH   9  10
ENDBRANCH   8   9
ENDBRANCH   7   8
ENDBRANCH   6   7
ENDBRANCH   5   6
ENDBRANCH   4   5
ENDBRANCH   3   4
ENDBRANCH   2   3
ENDBRANCH   1   2
BRANCH   1  17
ATOM     17  C   UNL     1       2.428   6.443  19.434  0.00  0.00    +0.000 C 
BRANCH  17  18
ATOM     18  C   UNL     1       1.993   7.884  19.685  0.00  0.00    +0.000 C 
BRANCH  18  19
ATOM     19  C   UNL     1       1.938   8.659  18.373  0.00  0.00    +0.000 C 
BRANCH  19  20
ATOM     20  C   UNL     1       1.276  10.026  18.549  0.00  0.00    +0.000 C 
BRANCH  20  23
ATOM     21  C   UNL     1      -1.373  10.309  18.915  0.00  0.00    +0.000 C 
ATOM     22  C   UNL     1      -0.615  11.174  19.886  0.00  0.00    +0.000 C 
ATOM     23  C   UNL     1       0.024   9.913  19.367  0.00  0.00    +0.000 C 
BRANCH  21  24
ATOM     24  C   UNL     1      -1.742  10.884  17.575  0.00  0.00    +0.000 C 
BRANCH  24  25
ATOM     25  C   UNL     1      -2.790  10.009  16.881  0.00  0.00    +0.000 C 
BRANCH  25  26
ATOM     26  C   UNL     1      -4.076  10.768  16.541  0.00  0.00    +0.000 C 
BRANCH  26  27
ATOM     27  C   UNL     1      -4.931  10.926  17.807  0.00  0.00    +0.000 C 
BRANCH  27  28
ATOM     28  C   UNL     1      -5.469  12.346  17.976  0.00  0.00    +0.000 C 
BRANCH  28  29
ATOM     29  C   UNL     1      -5.418  12.772  19.449  0.00  0.00    +0.000 C 
BRANCH  29  31
ATOM     30  C   UNL     1      -3.981  12.870  21.519  0.00  0.00    +0.000 C 
ATOM     31  C   UNL     1      -4.002  12.657  20.015  0.00  0.00    +0.000 C 
ENDBRANCH  29  31
ENDBRANCH  28  29
ENDBRANCH  27  28
ENDBRANCH  26  27
ENDBRANCH  25  26
ENDBRANCH  24  25
ENDBRANCH  21  24
ENDBRANCH  20  23
ENDBRANCH  19  20
ENDBRANCH  18  19
ENDBRANCH  17  18
ENDBRANCH   1  17
TORSDOF 25
ENDMDL
MODEL 4
REMARK VINA RESULT:      -5.1      3.536      9.276
REMARK  Name = 
REMARK  26 active torsions:
REMARK  status: ('A' for Active; 'I' for Inactive)
REMARK    1  A    between atoms: C_1  and  C_2
REMARK    2  A    between atoms: C_2  and  C_3
REMARK    3  A    between atoms: C_3  and  C_4
REMARK    4  A    between atoms: C_4  and  C_5
REMARK    5  A    between atoms: C_5  and  C_6
REMARK    6  A    between atoms: C_6  and  C_7
REMARK    7  A    between atoms: C_7  and  C_8
REMARK    8  A    between atoms: C_8  and  C_9
REMARK    9  A    between atoms: C_11  and  C_12
REMARK   10  A    between atoms: C_12  and  C_13
REMARK   11  A    between atoms: C_13  and  C_14
REMARK   12  A    between atoms: C_14  and  C_15
REMARK   13  A    between atoms: C_15  and  C_16
REMARK   14  A    between atoms: C_16  and  C_17
REMARK   15  A    between atoms: C_17  and  C_18
REMARK   16  A    between atoms: C_18  and  C_19
REMARK   17  A    between atoms: C_19  and  C_20
REMARK   18  A    between atoms: C_20  and  C_21
REMARK   19  A    between atoms: C_21  and  C_22
REMARK   20  A    between atoms: C_22  and  C_23
REMARK   21  A    between atoms: C_23  and  O_24
REMARK   22  A    between atoms: O_24  and  C_25
REMARK   23  A    between atoms: C_25  and  C_26
REMARK   24  A    between atoms: C_25  and  C_28
REMARK   25  A    between atoms: C_26  and  O_27
REMARK   26  A    between atoms: C_28  and  O_29
REMARK                            x       y       z     vdW  Elec       q    Type
REMARK                         _______ _______ _______ _____ _____    ______ ____
ROOT
ATOM      1  C   UNL     1       1.101   4.775  20.556  0.00  0.00    +0.000 C 
ENDROOT
BRANCH   1   2
ATOM      2  C   UNL     1       2.427   5.511  20.405  0.00  0.00    +0.000 C 
BRANCH   2   3
ATOM      3  C   UNL     1       2.192   6.920  19.875  0.00  0.00    +0.000 C 
BRANCH   3   4
ATOM      4  C   UNL     1       2.648   7.037  18.429  0.00  0.00    +0.000 C 
BRANCH   4   5
ATOM      5  C   UNL     1       2.249   8.390  17.848  0.00  0.00    +0.000 C 
BRANCH   5   6
ATOM      6  C   UNL     1       1.437   9.171  18.868  0.00  0.00    +0.000 C 
BRANCH   6   7
ATOM      7  C   UNL     1       0.158   9.744  18.266  0.00  0.00    +0.000 C 
BRANCH   7   8
ATOM      8  C   UNL     1       0.092  11.230  18.586  0.00  0.00    +0.000 C 
BRANCH   8   9
ATOM      9  O   UNL     1       0.657  11.484  19.871  0.00  0.00    +0.000 OA
BRANCH   9  10
ATOM     10  C   UNL     1      -0.327  11.991  20.808  0.00  0.00    +0.000 C 
BRANCH  10  11
ATOM     11  C   UNL     1       0.353  13.098  21.625  0.00  0.00    +0.000 C 
BRANCH  11  12
ATOM     12  O   UNL     1       0.956  14.052  20.750  0.00  0.00    +0.000 OA
ATOM     13  H   UNL     1       0.288  14.230  20.062  0.00  0.00    +0.000 HD
ENDBRANCH  11  12
ENDBRANCH  10  11
BRANCH  10  14
ATOM     14  C   UNL     1      -0.833  10.880  21.731  0.00  0.00    +0.000 C 
BRANCH  14  15
ATOM     15  O   UNL     1      -0.178  10.931  22.999  0.00  0.00    +0.000 OA
ATOM     16  H   UNL     1       0.386  10.136  23.049  0.00  0.00    +0.000 HD
ENDBRANCH  14  15
ENDBRANCH  10  14
ENDBRANCH   9  10
ENDBRANCH   8   9
ENDBRANCH   7   8
ENDBRANCH   6   7
ENDBRANCH   5   6
ENDBRANCH   4   5
ENDBRANCH   3   4
ENDBRANCH   2   3
ENDBRANCH   1   2
BRANCH   1  17
ATOM     17  C   UNL     1       1.331   3.335  21.001  0.00  0.00    +0.000 C 
BRANCH  17  18
ATOM     18  C   UNL     1       2.817   3.054  21.203  0.00  0.00    +0.000 C 
BRANCH  18  19
ATOM     19  C   UNL     1       3.328   2.097  20.132  0.00  0.00    +0.000 C 
BRANCH  19  20
ATOM     20  C   UNL     1       2.322   1.932  18.993  0.00  0.00    +0.000 C 
BRANCH  20  23
ATOM     21  C   UNL     1       4.100   3.228  17.447  0.00  0.00    +0.000 C 
ATOM     22  C   UNL     1       2.696   3.606  17.059  0.00  0.00    +0.000 C 
ATOM     23  C   UNL     1       2.954   2.255  17.671  0.00  0.00    +0.000 C 
BRANCH  21  24
ATOM     24  C   UNL     1       4.797   4.038  18.506  0.00  0.00    +0.000 C 
BRANCH  24  25
ATOM     25  C   UNL     1       6.135   4.571  17.986  0.00  0.00    +0.000 C 
BRANCH  25  26
ATOM     26  C   UNL     1       6.045   6.007  17.461  0.00  0.00    +0.000 C 
BRANCH  26  27
ATOM     27  C   UNL     1       5.672   5.988  15.971  0.00  0.00    +0.000 C 
BRANCH  27  28
ATOM     28  C   UNL     1       6.521   5.003  15.168  0.00  0.00    +0.000 C 
BRANCH  28  29
ATOM     29  C   UNL     1       5.646   4.206  14.191  0.00  0.00    +0.000 C 
BRANCH  29  31
ATOM     30  C   UNL     1       5.635   2.920  12.022  0.00  0.00    +0.000 C 
ATOM     31  C   UNL     1       6.387   3.920  12.884  0.00  0.00    +0.000 C 
ENDBRANCH  29  31
ENDBRANCH  28  29
ENDBRANCH  27  28
ENDBRANCH  26  27
ENDBRANCH  25  26
ENDBRANCH  24  25
ENDBRANCH  21  24
ENDBRANCH  20  23
ENDBRANCH  19  20
ENDBRANCH  18  19
ENDBRANCH  17  18
ENDBRANCH   1  17
TORSDOF 25
ENDMDL
MODEL 5
REMARK VINA RESULT:      -5.1      3.235      8.802
REMARK  Name = 
REMARK  26 active torsions:
REMARK  status: ('A' for Active; 'I' for Inactive)
REMARK    1  A    between atoms: C_1  and  C_2
REMARK    2  A    between atoms: C_2  and  C_3
REMARK    3  A    between atoms: C_3  and  C_4
REMARK    4  A    between atoms: C_4  and  C_5
REMARK    5  A    between atoms: C_5  and  C_6
REMARK    6  A    between atoms: C_6  and  C_7
REMARK    7  A    between atoms: C_7  and  C_8
REMARK    8  A    between atoms: C_8  and  C_9
REMARK    9  A    between atoms: C_11  and  C_12
REMARK   10  A    between atoms: C_12  and  C_13
REMARK   11  A    between atoms: C_13  and  C_14
REMARK   12  A    between atoms: C_14  and  C_15
REMARK   13  A    between atoms: C_15  and  C_16
REMARK   14  A    between atoms: C_16  and  C_17
REMARK   15  A    between atoms: C_17  and  C_18
REMARK   16  A    between atoms: C_18  and  C_19
REMARK   17  A    between atoms: C_19  and  C_20
REMARK   18  A    between atoms: C_20  and  C_21
REMARK   19  A    between atoms: C_21  and  C_22
REMARK   20  A    between atoms: C_22  and  C_23
REMARK   21  A    between atoms: C_23  and  O_24
REMARK   22  A    between atoms: O_24  and  C_25
REMARK   23  A    between atoms: C_25  and  C_26
REMARK   24  A    between atoms: C_25  and  C_28
REMARK   25  A    between atoms: C_26  and  O_27
REMARK   26  A    between atoms: C_28  and  O_29
REMARK                            x       y       z     vdW  Elec       q    Type
REMARK                         _______ _______ _______ _____ _____    ______ ____
ROOT
ATOM      1  C   UNL     1       2.086   1.865  18.592  0.00  0.00    +0.000 C 
ENDROOT
BRANCH   1   2
ATOM      2  C   UNL     1       0.647   2.297  18.848  0.00  0.00    +0.000 C 
BRANCH   2   3
ATOM      3  C   UNL     1       0.585   3.258  20.029  0.00  0.00    +0.000 C 
BRANCH   3   4
ATOM      4  C   UNL     1       1.377   2.715  21.209  0.00  0.00    +0.000 C 
BRANCH   4   5
ATOM      5  C   UNL     1       2.238   3.813  21.827  0.00  0.00    +0.000 C 
BRANCH   5   6
ATOM      6  C   UNL     1       2.444   4.935  20.824  0.00  0.00    +0.000 C 
BRANCH   6   7
ATOM      7  C   UNL     1       1.413   6.047  20.987  0.00  0.00    +0.000 C 
BRANCH   7   8
ATOM      8  C   UNL     1       2.031   7.357  20.519  0.00  0.00    +0.000 C 
BRANCH   8   9
ATOM      9  O   UNL     1       1.282   7.894  19.429  0.00  0.00    +0.000 OA
BRANCH   9  10
ATOM     10  C   UNL     1       1.586   9.293  19.197  0.00  0.00    +0.000 C 
BRANCH  10  11
ATOM     11  C   UNL     1       0.813  10.105  20.245  0.00  0.00    +0.000 C 
BRANCH  11  12
ATOM     12  O   UNL     1      -0.542   9.658  20.308  0.00  0.00    +0.000 OA
ATOM     13  H   UNL     1      -1.027  10.366  20.771  0.00  0.00    +0.000 HD
ENDBRANCH  11  12
ENDBRANCH  10  11
BRANCH  10  14
ATOM     14  C   UNL     1       1.179   9.719  17.784  0.00  0.00    +0.000 C 
BRANCH  14  15
ATOM     15  O   UNL     1       0.015  10.545  17.815  0.00  0.00    +0.000 OA
ATOM     16  H   UNL     1      -0.510  10.250  18.582  0.00  0.00    +0.000 HD
ENDBRANCH  14  15
ENDBRANCH  10  14
ENDBRANCH   9  10
ENDBRANCH   8   9
ENDBRANCH   7   8
ENDBRANCH   6   7
ENDBRANCH   5   6
ENDBRANCH   4   5
ENDBRANCH   3   4
ENDBRANCH   2   3
ENDBRANCH   1   2
BRANCH   1  17
ATOM     17  C   UNL     1       2.551   2.327  17.216  0.00  0.00    +0.000 C 
BRANCH  17  18
ATOM     18  C   UNL     1       3.988   2.837  17.264  0.00  0.00    +0.000 C 
BRANCH  18  19
ATOM     19  C   UNL     1       4.167   3.814  18.421  0.00  0.00    +0.000 C 
BRANCH  19  20
ATOM     20  C   UNL     1       4.175   5.265  17.942  0.00  0.00    +0.000 C 
BRANCH  20  23
ATOM     21  C   UNL     1       6.589   6.443  18.064  0.00  0.00    +0.000 C 
ATOM     22  C   UNL     1       6.490   5.346  19.090  0.00  0.00    +0.000 C 
ATOM     23  C   UNL     1       5.239   6.055  18.645  0.00  0.00    +0.000 C 
BRANCH  21  24
ATOM     24  C   UNL     1       7.096   6.100  16.691  0.00  0.00    +0.000 C 
BRANCH  24  25
ATOM     25  C   UNL     1       7.501   4.625  16.616  0.00  0.00    +0.000 C 
BRANCH  25  26
ATOM     26  C   UNL     1       6.818   3.873  15.471  0.00  0.00    +0.000 C 
BRANCH  26  27
ATOM     27  C   UNL     1       5.910   4.835  14.690  0.00  0.00    +0.000 C 
BRANCH  27  28
ATOM     28  C   UNL     1       5.186   4.149  13.533  0.00  0.00    +0.000 C 
BRANCH  28  29
ATOM     29  C   UNL     1       6.190   3.463  12.597  0.00  0.00    +0.000 C 
BRANCH  29  31
ATOM     30  C   UNL     1       4.117   3.079  11.215  0.00  0.00    +0.000 C 
ATOM     31  C   UNL     1       5.485   2.542  11.601  0.00  0.00    +0.000 C 
ENDBRANCH  29  31
ENDBRANCH  28  29
ENDBRANCH  27  28
ENDBRANCH  26  27
ENDBRANCH  25  26
ENDBRANCH  24  25
ENDBRANCH  21  24
ENDBRANCH  20  23
ENDBRANCH  19  20
ENDBRANCH  18  19
ENDBRANCH  17  18
ENDBRANCH   1  17
TORSDOF 25
ENDMDL
MODEL 6
REMARK VINA RESULT:      -5.1      3.746      9.289
REMARK  Name = 
REMARK  26 active torsions:
REMARK  status: ('A' for Active; 'I' for Inactive)
REMARK    1  A    between atoms: C_1  and  C_2
REMARK    2  A    between atoms: C_2  and  C_3
REMARK    3  A    between atoms: C_3  and  C_4
REMARK    4  A    between atoms: C_4  and  C_5
REMARK    5  A    between atoms: C_5  and  C_6
REMARK    6  A    between atoms: C_6  and  C_7
REMARK    7  A    between atoms: C_7  and  C_8
REMARK    8  A    between atoms: C_8  and  C_9
REMARK    9  A    between atoms: C_11  and  C_12
REMARK   10  A    between atoms: C_12  and  C_13
REMARK   11  A    between atoms: C_13  and  C_14
REMARK   12  A    between atoms: C_14  and  C_15
REMARK   13  A    between atoms: C_15  and  C_16
REMARK   14  A    between atoms: C_16  and  C_17
REMARK   15  A    between atoms: C_17  and  C_18
REMARK   16  A    between atoms: C_18  and  C_19
REMARK   17  A    between atoms: C_19  and  C_20
REMARK   18  A    between atoms: C_20  and  C_21
REMARK   19  A    between atoms: C_21  and  C_22
REMARK   20  A    between atoms: C_22  and  C_23
REMARK   21  A    between atoms: C_23  and  O_24
REMARK   22  A    between atoms: O_24  and  C_25
REMARK   23  A    between atoms: C_25  and  C_26
REMARK   24  A    between atoms: C_25  and  C_28
REMARK   25  A    between atoms: C_26  and  O_27
REMARK   26  A    between atoms: C_28  and  O_29
REMARK                            x       y       z     vdW  Elec       q    Type
REMARK                         _______ _______ _______ _____ _____    ______ ____
ROOT
ATOM      1  C   UNL     1       1.016   1.949  19.348  0.00  0.00    +0.000 C 
ENDROOT
BRANCH   1   2
ATOM      2  C   UNL     1       0.715   3.236  20.108  0.00  0.00    +0.000 C 
BRANCH   2   3
ATOM      3  C   UNL     1       1.662   3.383  21.294  0.00  0.00    +0.000 C 
BRANCH   3   4
ATOM      4  C   UNL     1       2.421   4.699  21.219  0.00  0.00    +0.000 C 
BRANCH   4   5
ATOM      5  C   UNL     1       1.627   5.731  20.423  0.00  0.00    +0.000 C 
BRANCH   5   6
ATOM      6  C   UNL     1       2.142   7.128  20.728  0.00  0.00    +0.000 C 
BRANCH   6   7
ATOM      7  C   UNL     1       1.361   8.203  19.980  0.00  0.00    +0.000 C 
BRANCH   7   8
ATOM      8  C   UNL     1       0.594   9.042  20.992  0.00  0.00    +0.000 C 
BRANCH   8   9
ATOM      9  O   UNL     1       0.886  10.427  20.808  0.00  0.00    +0.000 OA
BRANCH   9  10
ATOM     10  C   UNL     1      -0.233  11.146  20.230  0.00  0.00    +0.000 C 
BRANCH  10  11
ATOM     11  C   UNL     1       0.258  11.766  18.914  0.00  0.00    +0.000 C 
BRANCH  11  12
ATOM     12  O   UNL     1      -0.692  11.524  17.875  0.00  0.00    +0.000 OA
ATOM     13  H   UNL     1      -0.308  11.927  17.074  0.00  0.00    +0.000 HD
ENDBRANCH  11  12
ENDBRANCH  10  11
BRANCH  10  14
ATOM     14  C   UNL     1      -0.738  12.236  21.178  0.00  0.00    +0.000 C 
BRANCH  14  15
ATOM     15  O   UNL     1      -1.597  11.686  22.178  0.00  0.00    +0.000 OA
ATOM     16  H   UNL     1      -1.433  12.198  22.992  0.00  0.00    +0.000 HD
ENDBRANCH  14  15
ENDBRANCH  10  14
ENDBRANCH   9  10
ENDBRANCH   8   9
ENDBRANCH   7   8
ENDBRANCH   6   7
ENDBRANCH   5   6
ENDBRANCH   4   5
ENDBRANCH   3   4
ENDBRANCH   2   3
ENDBRANCH   1   2
BRANCH   1  17
ATOM     17  C   UNL     1       2.139   2.168  18.341  0.00  0.00    +0.000 C 
BRANCH  17  18
ATOM     18  C   UNL     1       1.912   3.443  17.533  0.00  0.00    +0.000 C 
BRANCH  18  19
ATOM     19  C   UNL     1       3.225   3.934  16.936  0.00  0.00    +0.000 C 
BRANCH  19  20
ATOM     20  C   UNL     1       4.397   3.731  17.897  0.00  0.00    +0.000 C 
BRANCH  20  23
ATOM     21  C   UNL     1       5.350   6.236  18.113  0.00  0.00    +0.000 C 
ATOM     22  C   UNL     1       6.111   5.306  19.020  0.00  0.00    +0.000 C 
ATOM     23  C   UNL     1       4.683   4.987  18.666  0.00  0.00    +0.000 C 
BRANCH  21  24
ATOM     24  C   UNL     1       5.843   6.429  16.705  0.00  0.00    +0.000 C 
BRANCH  24  25
ATOM     25  C   UNL     1       7.150   5.663  16.479  0.00  0.00    +0.000 C 
BRANCH  25  26
ATOM     26  C   UNL     1       7.040   4.600  15.382  0.00  0.00    +0.000 C 
BRANCH  26  27
ATOM     27  C   UNL     1       5.677   4.720  14.683  0.00  0.00    +0.000 C 
BRANCH  27  28
ATOM     28  C   UNL     1       5.771   4.498  13.174  0.00  0.00    +0.000 C 
BRANCH  28  29
ATOM     29  C   UNL     1       6.176   3.051  12.865  0.00  0.00    +0.000 C 
BRANCH  29  31
ATOM     30  C   UNL     1       4.187   3.247  11.328  0.00  0.00    +0.000 C 
ATOM     31  C   UNL     1       5.510   2.546  11.584  0.00  0.00    +0.000 C 
ENDBRANCH  29  31
ENDBRANCH  28  29
ENDBRANCH  27  28
ENDBRANCH  26  27
ENDBRANCH  25  26
ENDBRANCH  24  25
ENDBRANCH  21  24
ENDBRANCH  20  23
ENDBRANCH  19  20
ENDBRANCH  18  19
ENDBRANCH  17  18
ENDBRANCH   1  17
TORSDOF 25
ENDMDL
MODEL 7
REMARK VINA RESULT:      -5.1      4.949     10.783
REMARK  Name = 
REMARK  26 active torsions:
REMARK  status: ('A' for Active; 'I' for Inactive)
REMARK    1  A    between atoms: C_1  and  C_2
REMARK    2  A    between atoms: C_2  and  C_3
REMARK    3  A    between atoms: C_3  and  C_4
REMARK    4  A    between atoms: C_4  and  C_5
REMARK    5  A    between atoms: C_5  and  C_6
REMARK    6  A    between atoms: C_6  and  C_7
REMARK    7  A    between atoms: C_7  and  C_8
REMARK    8  A    between atoms: C_8  and  C_9
REMARK    9  A    between atoms: C_11  and  C_12
REMARK   10  A    between atoms: C_12  and  C_13
REMARK   11  A    between atoms: C_13  and  C_14
REMARK   12  A    between atoms: C_14  and  C_15
REMARK   13  A    between atoms: C_15  and  C_16
REMARK   14  A    between atoms: C_16  and  C_17
REMARK   15  A    between atoms: C_17  and  C_18
REMARK   16  A    between atoms: C_18  and  C_19
REMARK   17  A    between atoms: C_19  and  C_20
REMARK   18  A    between atoms: C_20  and  C_21
REMARK   19  A    between atoms: C_21  and  C_22
REMARK   20  A    between atoms: C_22  and  C_23
REMARK   21  A    between atoms: C_23  and  O_24
REMARK   22  A    between atoms: O_24  and  C_25
REMARK   23  A    between atoms: C_25  and  C_26
REMARK   24  A    between atoms: C_25  and  C_28
REMARK   25  A    between atoms: C_26  and  O_27
REMARK   26  A    between atoms: C_28  and  O_29
REMARK                            x       y       z     vdW  Elec       q    Type
REMARK                         _______ _______ _______ _____ _____    ______ ____
ROOT
ATOM      1  C   UNL     1       2.237   6.871  19.630  0.00  0.00    +0.000 C 
ENDROOT
BRANCH   1   2
ATOM      2  C   UNL     1       1.660   8.222  20.040  0.00  0.00    +0.000 C 
BRANCH   2   3
ATOM      3  C   UNL     1       1.178   8.174  21.485  0.00  0.00    +0.000 C 
BRANCH   3   4
ATOM      4  C   UNL     1      -0.265   8.646  21.588  0.00  0.00    +0.000 C 
BRANCH   4   5
ATOM      5  C   UNL     1      -0.329  10.170  21.627  0.00  0.00    +0.000 C 
BRANCH   5   6
ATOM      6  C   UNL     1      -0.907  10.631  22.955  0.00  0.00    +0.000 C 
BRANCH   6   7
ATOM      7  C   UNL     1      -1.226  12.122  22.956  0.00  0.00    +0.000 C 
BRANCH   7   8
ATOM      8  C   UNL     1      -2.737  12.297  22.925  0.00  0.00    +0.000 C 
BRANCH   8   9
ATOM      9  O   UNL     1      -3.180  12.968  24.105  0.00  0.00    +0.000 OA
BRANCH   9  10
ATOM     10  C   UNL     1      -4.339  13.803  23.852  0.00  0.00    +0.000 C 
BRANCH  10  11
ATOM     11  C   UNL     1      -5.566  12.881  23.827  0.00  0.00    +0.000 C 
BRANCH  11  12
ATOM     12  O   UNL     1      -5.523  11.980  24.934  0.00  0.00    +0.000 OA
ATOM     13  H   UNL     1      -5.770  11.110  24.569  0.00  0.00    +0.000 HD
ENDBRANCH  11  12
ENDBRANCH  10  11
BRANCH  10  14
ATOM     14  C   UNL     1      -4.203  14.547  22.522  0.00  0.00    +0.000 C 
BRANCH  14  15
ATOM     15  O   UNL     1      -5.201  15.561  22.398  0.00  0.00    +0.000 OA
ATOM     16  H   UNL     1      -5.633  15.628  23.271  0.00  0.00    +0.000 HD
ENDBRANCH  14  15
ENDBRANCH  10  14
ENDBRANCH   9  10
ENDBRANCH   8   9
ENDBRANCH   7   8
ENDBRANCH   6   7
ENDBRANCH   5   6
ENDBRANCH   4   5
ENDBRANCH   3   4
ENDBRANCH   2   3
ENDBRANCH   1   2
BRANCH   1  17
ATOM     17  C   UNL     1       1.952   5.818  20.694  0.00  0.00    +0.000 C 
BRANCH  17  18
ATOM     18  C   UNL     1       0.975   4.765  20.177  0.00  0.00    +0.000 C 
BRANCH  18  19
ATOM     19  C   UNL     1       1.236   3.423  20.850  0.00  0.00    +0.000 C 
BRANCH  19  20
ATOM     20  C   UNL     1       2.710   3.246  21.213  0.00  0.00    +0.000 C 
BRANCH  20  23
ATOM     21  C   UNL     1       3.994   2.609  18.938  0.00  0.00    +0.000 C 
ATOM     22  C   UNL     1       2.672   1.892  19.012  0.00  0.00    +0.000 C 
ATOM     23  C   UNL     1       3.377   2.273  20.286  0.00  0.00    +0.000 C 
BRANCH  21  24
ATOM     24  C   UNL     1       4.039   3.969  18.296  0.00  0.00    +0.000 C 
BRANCH  24  25
ATOM     25  C   UNL     1       3.616   3.888  16.827  0.00  0.00    +0.000 C 
BRANCH  25  26
ATOM     26  C   UNL     1       4.692   4.399  15.864  0.00  0.00    +0.000 C 
BRANCH  26  27
ATOM     27  C   UNL     1       5.731   5.221  16.641  0.00  0.00    +0.000 C 
BRANCH  27  28
ATOM     28  C   UNL     1       7.138   4.635  16.536  0.00  0.00    +0.000 C 
BRANCH  28  29
ATOM     29  C   UNL     1       7.811   4.592  17.914  0.00  0.00    +0.000 C 
BRANCH  29  31
ATOM     30  C   UNL     1       8.014   7.055  18.416  0.00  0.00    +0.000 C 
ATOM     31  C   UNL     1       7.343   5.747  18.800  0.00  0.00    +0.000 C 
ENDBRANCH  29  31
ENDBRANCH  28  29
ENDBRANCH  27  28
ENDBRANCH  26  27
ENDBRANCH  25  26
ENDBRANCH  24  25
ENDBRANCH  21  24
ENDBRANCH  20  23
ENDBRANCH  19  20
ENDBRANCH  18  19
ENDBRANCH  17  18
ENDBRANCH   1  17
TORSDOF 25
ENDMDL
MODEL 8
REMARK VINA RESULT:      -5.1      1.670      3.154
REMARK  Name = 
REMARK  26 active torsions:
REMARK  status: ('A' for Active; 'I' for Inactive)
REMARK    1  A    between atoms: C_1  and  C_2
REMARK    2  A    between atoms: C_2  and  C_3
REMARK    3  A    between atoms: C_3  and  C_4
REMARK    4  A    between atoms: C_4  and  C_5
REMARK    5  A    between atoms: C_5  and  C_6
REMARK    6  A    between atoms: C_6  and  C_7
REMARK    7  A    between atoms: C_7  and  C_8
REMARK    8  A    between atoms: C_8  and  C_9
REMARK    9  A    between atoms: C_11  and  C_12
REMARK   10  A    between atoms: C_12  and  C_13
REMARK   11  A    between atoms: C_13  and  C_14
REMARK   12  A    between atoms: C_14  and  C_15
REMARK   13  A    between atoms: C_15  and  C_16
REMARK   14  A    between atoms: C_16  and  C_17
REMARK   15  A    between atoms: C_17  and  C_18
REMARK   16  A    between atoms: C_18  and  C_19
REMARK   17  A    between atoms: C_19  and  C_20
REMARK   18  A    between atoms: C_20  and  C_21
REMARK   19  A    between atoms: C_21  and  C_22
REMARK   20  A    between atoms: C_22  and  C_23
REMARK   21  A    between atoms: C_23  and  O_24
REMARK   22  A    between atoms: O_24  and  C_25
REMARK   23  A    between atoms: C_25  and  C_26
REMARK   24  A    between atoms: C_25  and  C_28
REMARK   25  A    between atoms: C_26  and  O_27
REMARK   26  A    between atoms: C_28  and  O_29
REMARK                            x       y       z     vdW  Elec       q    Type
REMARK                         _______ _______ _______ _____ _____    ______ ____
ROOT
ATOM      1  C   UNL     1       2.461   8.044  17.844  0.00  0.00    +0.000 C 
ENDROOT
BRANCH   1   2
ATOM      2  C   UNL     1       3.240   6.831  18.338  0.00  0.00    +0.000 C 
BRANCH   2   3
ATOM      3  C   UNL     1       2.509   6.169  19.500  0.00  0.00    +0.000 C 
BRANCH   3   4
ATOM      4  C   UNL     1       2.396   4.668  19.281  0.00  0.00    +0.000 C 
BRANCH   4   5
ATOM      5  C   UNL     1       1.701   4.370  17.956  0.00  0.00    +0.000 C 
BRANCH   5   6
ATOM      6  C   UNL     1       2.507   3.353  17.166  0.00  0.00    +0.000 C 
BRANCH   6   7
ATOM      7  C   UNL     1       3.872   3.090  17.793  0.00  0.00    +0.000 C 
BRANCH   7   8
ATOM      8  C   UNL     1       4.943   3.710  16.907  0.00  0.00    +0.000 C 
BRANCH   8   9
ATOM      9  O   UNL     1       5.897   4.411  17.703  0.00  0.00    +0.000 OA
BRANCH   9  10
ATOM     10  C   UNL     1       6.873   5.112  16.891  0.00  0.00    +0.000 C 
BRANCH  10  11
ATOM     11  C   UNL     1       6.758   6.604  17.229  0.00  0.00    +0.000 C 
BRANCH  11  12
ATOM     12  O   UNL     1       7.865   7.318  16.676  0.00  0.00    +0.000 OA
ATOM     13  H   UNL     1       8.446   7.520  17.433  0.00  0.00    +0.000 HD
ENDBRANCH  11  12
ENDBRANCH  10  11
BRANCH  10  14
ATOM     14  C   UNL     1       6.617   4.881  15.399  0.00  0.00    +0.000 C 
BRANCH  14  15
ATOM     15  O   UNL     1       7.705   5.366  14.612  0.00  0.00    +0.000 OA
ATOM     16  H   UNL     1       7.483   6.285  14.372  0.00  0.00    +0.000 HD
ENDBRANCH  14  15
ENDBRANCH  10  14
ENDBRANCH   9  10
ENDBRANCH   8   9
ENDBRANCH   7   8
ENDBRANCH   6   7
ENDBRANCH   5   6
ENDBRANCH   4   5
ENDBRANCH   3   4
ENDBRANCH   2   3
ENDBRANCH   1   2
BRANCH   1  17
ATOM     17  C   UNL     1       1.672   8.679  18.983  0.00  0.00    +0.000 C 
BRANCH  17  18
ATOM     18  C   UNL     1       1.256  10.105  18.635  0.00  0.00    +0.000 C 
BRANCH  18  19
ATOM     19  C   UNL     1      -0.246  10.175  18.386  0.00  0.00    +0.000 C 
BRANCH  19  20
ATOM     20  C   UNL     1      -0.982  10.859  19.539  0.00  0.00    +0.000 C 
BRANCH  20  23
ATOM     21  C   UNL     1      -0.305  11.632  22.023  0.00  0.00    +0.000 C 
ATOM     22  C   UNL     1      -0.208  12.793  21.070  0.00  0.00    +0.000 C 
ATOM     23  C   UNL     1      -0.012  11.393  20.551  0.00  0.00    +0.000 C 
BRANCH  21  24
ATOM     24  C   UNL     1      -1.614  11.381  22.720  0.00  0.00    +0.000 C 
BRANCH  24  25
ATOM     25  C   UNL     1      -2.177  12.682  23.299  0.00  0.00    +0.000 C 
BRANCH  25  26
ATOM     26  C   UNL     1      -3.572  12.513  23.908  0.00  0.00    +0.000 C 
BRANCH  26  27
ATOM     27  C   UNL     1      -4.413  13.767  23.626  0.00  0.00    +0.000 C 
BRANCH  27  28
ATOM     28  C   UNL     1      -5.817  13.431  23.126  0.00  0.00    +0.000 C 
BRANCH  28  29
ATOM     29  C   UNL     1      -5.747  12.588  21.846  0.00  0.00    +0.000 C 
BRANCH  29  31
ATOM     30  C   UNL     1      -4.013  12.781  20.026  0.00  0.00    +0.000 C 
ATOM     31  C   UNL     1      -5.241  13.411  20.662  0.00  0.00    +0.000 C 
ENDBRANCH  29  31
ENDBRANCH  28  29
ENDBRANCH  27  28
ENDBRANCH  26  27
ENDBRANCH  25  26
ENDBRANCH  24  25
ENDBRANCH  21  24
ENDBRANCH  20  23
ENDBRANCH  19  20
ENDBRANCH  18  19
ENDBRANCH  17  18
ENDBRANCH   1  17
TORSDOF 25
ENDMDL
MODEL 9
REMARK VINA RESULT:      -5.0      4.668     10.508
REMARK  Name = 
REMARK  26 active torsions:
REMARK  status: ('A' for Active; 'I' for Inactive)
REMARK    1  A    between atoms: C_1  and  C_2
REMARK    2  A    between atoms: C_2  and  C_3
REMARK    3  A    between atoms: C_3  and  C_4
REMARK    4  A    between atoms: C_4  and  C_5
REMARK    5  A    between atoms: C_5  and  C_6
REMARK    6  A    between atoms: C_6  and  C_7
REMARK    7  A    between atoms: C_7  and  C_8
REMARK    8  A    between atoms: C_8  and  C_9
REMARK    9  A    between atoms: C_11  and  C_12
REMARK   10  A    between atoms: C_12  and  C_13
REMARK   11  A    between atoms: C_13  and  C_14
REMARK   12  A    between atoms: C_14  and  C_15
REMARK   13  A    between atoms: C_15  and  C_16
REMARK   14  A    between atoms: C_16  and  C_17
REMARK   15  A    between atoms: C_17  and  C_18
REMARK   16  A    between atoms: C_18  and  C_19
REMARK   17  A    between atoms: C_19  and  C_20
REMARK   18  A    between atoms: C_20  and  C_21
REMARK   19  A    between atoms: C_21  and  C_22
REMARK   20  A    between atoms: C_22  and  C_23
REMARK   21  A    between atoms: C_23  and  O_24
REMARK   22  A    between atoms: O_24  and  C_25
REMARK   23  A    between atoms: C_25  and  C_26
REMARK   24  A    between atoms: C_25  and  C_28
REMARK   25  A    between atoms: C_26  and  O_27
REMARK   26  A    between atoms: C_28  and  O_29
REMARK                            x       y       z     vdW  Elec       q    Type
REMARK                         _______ _______ _______ _____ _____    ______ ____
ROOT
ATOM      1  C   UNL     1       2.552   8.511  17.881  0.00  0.00    +0.000 C 
ENDROOT
BRANCH   1   2
ATOM      2  C   UNL     1       1.162   9.133  17.955  0.00  0.00    +0.000 C 
BRANCH   2   3
ATOM      3  C   UNL     1       1.097  10.147  19.091  0.00  0.00    +0.000 C 
BRANCH   3   4
ATOM      4  C   UNL     1      -0.264  10.110  19.770  0.00  0.00    +0.000 C 
BRANCH   4   5
ATOM      5  C   UNL     1      -0.589  11.465  20.392  0.00  0.00    +0.000 C 
BRANCH   5   6
ATOM      6  C   UNL     1      -0.227  11.458  21.868  0.00  0.00    +0.000 C 
BRANCH   6   7
ATOM      7  C   UNL     1      -1.458  11.347  22.761  0.00  0.00    +0.000 C 
BRANCH   7   8
ATOM      8  C   UNL     1      -2.530  12.287  22.232  0.00  0.00    +0.000 C 
BRANCH   8   9
ATOM      9  O   UNL     1      -2.991  13.147  23.275  0.00  0.00    +0.000 OA
BRANCH   9  10
ATOM     10  C   UNL     1      -4.402  13.453  23.143  0.00  0.00    +0.000 C 
BRANCH  10  11
ATOM     11  C   UNL     1      -5.068  13.108  24.482  0.00  0.00    +0.000 C 
BRANCH  11  12
ATOM     12  O   UNL     1      -4.857  11.731  24.793  0.00  0.00    +0.000 OA
ATOM     13  H   UNL     1      -4.166  11.429  24.175  0.00  0.00    +0.000 HD
ENDBRANCH  11  12
ENDBRANCH  10  11
BRANCH  10  14
ATOM     14  C   UNL     1      -5.038  12.647  22.007  0.00  0.00    +0.000 C 
BRANCH  14  15
ATOM     15  O   UNL     1      -6.215  13.293  21.518  0.00  0.00    +0.000 OA
ATOM     16  H   UNL     1      -6.154  13.273  20.545  0.00  0.00    +0.000 HD
ENDBRANCH  14  15
ENDBRANCH  10  14
ENDBRANCH   9  10
ENDBRANCH   8   9
ENDBRANCH   7   8
ENDBRANCH   6   7
ENDBRANCH   5   6
ENDBRANCH   4   5
ENDBRANCH   3   4
ENDBRANCH   2   3
ENDBRANCH   1   2
BRANCH   1  17
ATOM     17  C   UNL     1       2.511   7.048  18.308  0.00  0.00    +0.000 C 
BRANCH  17  18
ATOM     18  C   UNL     1       2.313   6.922  19.815  0.00  0.00    +0.000 C 
BRANCH  18  19
ATOM     19  C   UNL     1       2.457   5.468  20.250  0.00  0.00    +0.000 C 
BRANCH  19  20
ATOM     20  C   UNL     1       1.302   4.606  19.741  0.00  0.00    +0.000 C 
BRANCH  20  23
ATOM     21  C   UNL     1       2.414   2.540  18.428  0.00  0.00    +0.000 C 
ATOM     22  C   UNL     1       0.955   2.272  18.685  0.00  0.00    +0.000 C 
ATOM     23  C   UNL     1       1.717   3.169  19.624  0.00  0.00    +0.000 C 
BRANCH  21  24
ATOM     24  C   UNL     1       2.802   3.242  17.156  0.00  0.00    +0.000 C 
BRANCH  24  25
ATOM     25  C   UNL     1       4.166   3.921  17.308  0.00  0.00    +0.000 C 
BRANCH  25  26
ATOM     26  C   UNL     1       4.810   4.282  15.966  0.00  0.00    +0.000 C 
BRANCH  26  27
ATOM     27  C   UNL     1       5.242   5.756  15.981  0.00  0.00    +0.000 C 
BRANCH  27  28
ATOM     28  C   UNL     1       6.733   5.925  16.268  0.00  0.00    +0.000 C 
BRANCH  28  29
ATOM     29  C   UNL     1       6.956   6.955  17.384  0.00  0.00    +0.000 C 
BRANCH  29  31
ATOM     30  C   UNL     1       7.870   4.841  18.410  0.00  0.00    +0.000 C 
ATOM     31  C   UNL     1       7.711   6.344  18.565  0.00  0.00    +0.000 C 
ENDBRANCH  29  31
ENDBRANCH  28  29
ENDBRANCH  27  28
ENDBRANCH  26  27
ENDBRANCH  25  26
ENDBRANCH  24  25
ENDBRANCH  21  24
ENDBRANCH  20  23
ENDBRANCH  19  20
ENDBRANCH  18  19
ENDBRANCH  17  18
ENDBRANCH   1  17
TORSDOF 25
ENDMDL
