MODEL 1
REMARK VINA RESULT:      -9.0      0.000      0.000
REMARK  Name = 
REMARK  4 active torsions:
REMARK  status: ('A' for Active; 'I' for Inactive)
REMARK    1  A    between atoms: C_1  and  C_2
REMARK    2  A    between atoms: C_2  and  C_3
REMARK    3  A    between atoms: C_6  and  C_7
REMARK    4  A    between atoms: C_16  and  C_17
REMARK                            x       y       z     vdW  Elec       q    Type
REMARK                         _______ _______ _______ _____ _____    ______ ____
ROOT
ATOM      1  C   UNL     1       6.868   6.236  18.181  0.00  0.00    +0.000 C 
ATOM      2  C   UNL     1       5.819   5.628  17.244  0.00  0.00    +0.000 C 
ATOM      3  C   UNL     1       5.146   4.411  17.850  0.00  0.00    +0.000 C 
ATOM      4  C   UNL     1       3.966   5.082  18.467  0.00  0.00    +0.000 C 
ATOM      5  N   UNL     1       3.734   6.276  18.021  0.00  0.00    +0.000 NA
ATOM      6  O   UNL     1       4.743   6.565  17.059  0.00  0.00    +0.000 OA
ENDROOT
BRANCH   4   7
ATOM      7  C   UNL     1       3.134   4.394  19.482  0.00  0.00    +0.000 A 
ATOM      8  C   UNL     1       1.830   4.833  19.760  0.00  0.00    +0.000 A 
ATOM      9  C   UNL     1       1.045   4.157  20.696  0.00  0.00    +0.000 A 
ATOM     10  C   UNL     1       1.563   3.053  21.358  0.00  0.00    +0.000 A 
ATOM     11  F   UNL     1       0.805   2.406  22.251  0.00  0.00    +0.000 F 
ATOM     12  C   UNL     1       2.861   2.616  21.110  0.00  0.00    +0.000 A 
ATOM     13  C   UNL     1       3.649   3.287  20.170  0.00  0.00    +0.000 A 
ENDBRANCH   4   7
BRANCH   2  14
ATOM     14  C   UNL     1       6.427   5.298  15.923  0.00  0.00    +0.000 A 
ATOM     15  N   UNL     1       7.529   5.792  15.393  0.00  0.00    +0.000 NA
ATOM     16  N   UNL     1       7.658   5.220  14.152  0.00  0.00    +0.000 NA
ATOM     17  C   UNL     1       6.621   4.421  13.992  0.00  0.00    +0.000 A 
ATOM     18  O   UNL     1       5.783   4.424  15.080  0.00  0.00    +0.000 OA
BRANCH  17  19
ATOM     19  C   UNL     1       6.264   3.597  12.844  0.00  0.00    +0.000 A 
ATOM     20  C   UNL     1       7.179   2.732  12.225  0.00  0.00    +0.000 A 
ATOM     21  C   UNL     1       6.791   1.940  11.139  0.00  0.00    +0.000 A 
ATOM     22  C   UNL     1       5.485   2.008  10.654  0.00  0.00    +0.000 A 
ATOM     23  C   UNL     1       4.572   2.870  11.257  0.00  0.00    +0.000 A 
ATOM     24 CL   UNL     1       2.960   2.957  10.662  0.00  0.00    +0.000 Cl
ATOM     25  C   UNL     1       4.953   3.659  12.341  0.00  0.00    +0.000 A 
ENDBRANCH  17  19
ENDBRANCH   2  14
TORSDOF 3
ENDMDL
MODEL 2
REMARK VINA RESULT:      -9.0      0.471      1.073
REMARK  Name = 
REMARK  4 active torsions:
REMARK  status: ('A' for Active; 'I' for Inactive)
REMARK    1  A    between atoms: C_1  and  C_2
REMARK    2  A    between atoms: C_2  and  C_3
REMARK    3  A    between atoms: C_6  and  C_7
REMARK    4  A    between atoms: C_16  and  C_17
REMARK                            x       y       z     vdW  Elec       q    Type
REMARK                         _______ _______ _______ _____ _____    ______ ____
ROOT
ATOM      1  C   UNL     1       7.489   5.082  18.261  0.00  0.00    +0.000 C 
ATOM      2  C   UNL     1       6.253   5.116  17.357  0.00  0.00    +0.000 C 
ATOM      3  C   UNL     1       5.236   4.056  17.735  0.00  0.00    +0.000 C 
ATOM      4  C   UNL     1       4.385   4.866  18.651  0.00  0.00    +0.000 C 
ATOM      5  N   UNL     1       4.550   6.147  18.545  0.00  0.00    +0.000 NA
ATOM      6  O   UNL     1       5.551   6.357  17.554  0.00  0.00    +0.000 OA
ENDROOT
BRANCH   4   7
ATOM      7  C   UNL     1       3.417   4.224  19.573  0.00  0.00    +0.000 A 
ATOM      8  C   UNL     1       3.751   3.045  20.257  0.00  0.00    +0.000 A 
ATOM      9  C   UNL     1       2.844   2.467  21.147  0.00  0.00    +0.000 A 
ATOM     10  C   UNL     1       1.604   3.059  21.344  0.00  0.00    +0.000 A 
ATOM     11  F   UNL     1       0.739   2.503  22.201  0.00  0.00    +0.000 F 
ATOM     12  C   UNL     1       1.247   4.216  20.658  0.00  0.00    +0.000 A 
ATOM     13  C   UNL     1       2.156   4.801  19.770  0.00  0.00    +0.000 A 
ENDBRANCH   4   7
BRANCH   2  14
ATOM     14  C   UNL     1       6.649   4.988  15.925  0.00  0.00    +0.000 A 
ATOM     15  N   UNL     1       7.526   5.715  15.260  0.00  0.00    +0.000 NA
ATOM     16  N   UNL     1       7.517   5.253  13.967  0.00  0.00    +0.000 NA
ATOM     17  C   UNL     1       6.627   4.282  13.916  0.00  0.00    +0.000 A 
ATOM     18  O   UNL     1       6.022   4.060  15.129  0.00  0.00    +0.000 OA
BRANCH  17  19
ATOM     19  C   UNL     1       6.210   3.476  12.775  0.00  0.00    +0.000 A 
ATOM     20  C   UNL     1       7.058   2.536  12.169  0.00  0.00    +0.000 A 
ATOM     21  C   UNL     1       6.613   1.765  11.090  0.00  0.00    +0.000 A 
ATOM     22  C   UNL     1       5.317   1.927  10.601  0.00  0.00    +0.000 A 
ATOM     23  C   UNL     1       4.472   2.863  11.190  0.00  0.00    +0.000 A 
ATOM     24 CL   UNL     1       2.872   3.067  10.590  0.00  0.00    +0.000 Cl
ATOM     25  C   UNL     1       4.909   3.632  12.267  0.00  0.00    +0.000 A 
ENDBRANCH  17  19
ENDBRANCH   2  14
TORSDOF 3
ENDMDL
MODEL 3
REMARK VINA RESULT:      -8.7      3.350      4.272
REMARK  Name = 
REMARK  4 active torsions:
REMARK  status: ('A' for Active; 'I' for Inactive)
REMARK    1  A    between atoms: C_1  and  C_2
REMARK    2  A    between atoms: C_2  and  C_3
REMARK    3  A    between atoms: C_6  and  C_7
REMARK    4  A    between atoms: C_16  and  C_17
REMARK                            x       y       z     vdW  Elec       q    Type
REMARK                         _______ _______ _______ _____ _____    ______ ____
ROOT
ATOM      1  C   UNL     1       2.144   4.367  17.661  0.00  0.00    +0.000 C 
ATOM      2  C   UNL     1       3.291   5.195  18.249  0.00  0.00    +0.000 C 
ATOM      3  C   UNL     1       2.999   6.683  18.215  0.00  0.00    +0.000 C 
ATOM      4  C   UNL     1       2.411   6.835  19.576  0.00  0.00    +0.000 C 
ATOM      5  N   UNL     1       2.654   5.849  20.380  0.00  0.00    +0.000 NA
ATOM      6  O   UNL     1       3.425   4.899  19.651  0.00  0.00    +0.000 OA
ENDROOT
BRANCH   4   7
ATOM      7  C   UNL     1       1.641   8.046  19.950  0.00  0.00    +0.000 A 
ATOM      8  C   UNL     1       1.109   8.189  21.241  0.00  0.00    +0.000 A 
ATOM      9  C   UNL     1       0.414   9.348  21.591  0.00  0.00    +0.000 A 
ATOM     10  C   UNL     1       0.241  10.354  20.651  0.00  0.00    +0.000 A 
ATOM     11  F   UNL     1      -0.424  11.466  20.993  0.00  0.00    +0.000 F 
ATOM     12  C   UNL     1       0.742  10.221  19.360  0.00  0.00    +0.000 A 
ATOM     13  C   UNL     1       1.445   9.065  19.007  0.00  0.00    +0.000 A 
ENDBRANCH   4   7
BRANCH   2  14
ATOM     14  C   UNL     1       4.571   4.887  17.549  0.00  0.00    +0.000 A 
ATOM     15  N   UNL     1       5.761   4.695  18.085  0.00  0.00    +0.000 NA
ATOM     16  N   UNL     1       6.630   4.487  17.043  0.00  0.00    +0.000 NA
ATOM     17  C   UNL     1       5.924   4.577  15.934  0.00  0.00    +0.000 A 
ATOM     18  O   UNL     1       4.598   4.841  16.176  0.00  0.00    +0.000 OA
BRANCH  17  19
ATOM     19  C   UNL     1       6.367   4.462  14.549  0.00  0.00    +0.000 A 
ATOM     20  C   UNL     1       7.400   5.253  14.023  0.00  0.00    +0.000 A 
ATOM     21  C   UNL     1       7.812   5.097  12.695  0.00  0.00    +0.000 A 
ATOM     22  C   UNL     1       7.192   4.154  11.875  0.00  0.00    +0.000 A 
ATOM     23  C   UNL     1       6.160   3.372  12.387  0.00  0.00    +0.000 A 
ATOM     24 CL   UNL     1       5.392   2.207  11.380  0.00  0.00    +0.000 Cl
ATOM     25  C   UNL     1       5.748   3.521  13.710  0.00  0.00    +0.000 A 
ENDBRANCH  17  19
ENDBRANCH   2  14
TORSDOF 3
ENDMDL
MODEL 4
REMARK VINA RESULT:      -8.3      4.990      7.385
REMARK  Name = 
REMARK  4 active torsions:
REMARK  status: ('A' for Active; 'I' for Inactive)
REMARK    1  A    between atoms: C_1  and  C_2
REMARK    2  A    between atoms: C_2  and  C_3
REMARK    3  A    between atoms: C_6  and  C_7
REMARK    4  A    between atoms: C_16  and  C_17
REMARK                            x       y       z     vdW  Elec       q    Type
REMARK                         _______ _______ _______ _____ _____    ______ ____
ROOT
ATOM      1  C   UNL     1       7.970   4.661  17.769  0.00  0.00    +0.000 C 
ATOM      2  C   UNL     1       7.027   5.717  18.353  0.00  0.00    +0.000 C 
ATOM      3  C   UNL     1       5.596   5.531  17.885  0.00  0.00    +0.000 C 
ATOM      4  C   UNL     1       5.091   4.696  19.011  0.00  0.00    +0.000 C 
ATOM      5  N   UNL     1       5.837   4.714  20.070  0.00  0.00    +0.000 NA
ATOM      6  O   UNL     1       6.950   5.553  19.781  0.00  0.00    +0.000 OA
ENDROOT
BRANCH   4   7
ATOM      7  C   UNL     1       3.818   3.943  18.900  0.00  0.00    +0.000 A 
ATOM      8  C   UNL     1       3.548   3.150  17.774  0.00  0.00    +0.000 A 
ATOM      9  C   UNL     1       2.360   2.421  17.696  0.00  0.00    +0.000 A 
ATOM     10  C   UNL     1       1.442   2.492  18.734  0.00  0.00    +0.000 A 
ATOM     11  F   UNL     1       0.306   1.787  18.656  0.00  0.00    +0.000 F 
ATOM     12  C   UNL     1       1.683   3.290  19.848  0.00  0.00    +0.000 A 
ATOM     13  C   UNL     1       2.874   4.017  19.933  0.00  0.00    +0.000 A 
ENDBRANCH   4   7
BRANCH   2  14
ATOM     14  C   UNL     1       7.517   7.089  18.034  0.00  0.00    +0.000 A 
ATOM     15  N   UNL     1       7.420   7.737  16.889  0.00  0.00    +0.000 NA
ATOM     16  N   UNL     1       8.053   8.943  17.067  0.00  0.00    +0.000 NA
ATOM     17  C   UNL     1       8.510   8.954  18.303  0.00  0.00    +0.000 A 
ATOM     18  O   UNL     1       8.214   7.798  18.983  0.00  0.00    +0.000 OA
BRANCH  17  19
ATOM     19  C   UNL     1       9.277   9.986  18.990  0.00  0.00    +0.000 A 
ATOM     20  C   UNL     1      10.408  10.589  18.417  0.00  0.00    +0.000 A 
ATOM     21  C   UNL     1      11.104  11.592  19.100  0.00  0.00    +0.000 A 
ATOM     22  C   UNL     1      10.683  12.000  20.366  0.00  0.00    +0.000 A 
ATOM     23  C   UNL     1       9.567  11.401  20.945  0.00  0.00    +0.000 A 
ATOM     24 CL   UNL     1       9.043  11.902  22.506  0.00  0.00    +0.000 Cl
ATOM     25  C   UNL     1       8.868  10.403  20.268  0.00  0.00    +0.000 A 
ENDBRANCH  17  19
ENDBRANCH   2  14
TORSDOF 3
ENDMDL
MODEL 5
REMARK VINA RESULT:      -8.2      4.870      7.313
REMARK  Name = 
REMARK  4 active torsions:
REMARK  status: ('A' for Active; 'I' for Inactive)
REMARK    1  A    between atoms: C_1  and  C_2
REMARK    2  A    between atoms: C_2  and  C_3
REMARK    3  A    between atoms: C_6  and  C_7
REMARK    4  A    between atoms: C_16  and  C_17
REMARK                            x       y       z     vdW  Elec       q    Type
REMARK                         _______ _______ _______ _____ _____    ______ ____
ROOT
ATOM      1  C   UNL     1       7.727   4.843  17.346  0.00  0.00    +0.000 C 
ATOM      2  C   UNL     1       6.998   5.860  18.231  0.00  0.00    +0.000 C 
ATOM      3  C   UNL     1       5.492   5.778  18.076  0.00  0.00    +0.000 C 
ATOM      4  C   UNL     1       5.194   4.839  19.194  0.00  0.00    +0.000 C 
ATOM      5  N   UNL     1       6.152   4.711  20.057  0.00  0.00    +0.000 NA
ATOM      6  O   UNL     1       7.224   5.537  19.615  0.00  0.00    +0.000 OA
ENDROOT
BRANCH   4   7
ATOM      7  C   UNL     1       3.885   4.149  19.292  0.00  0.00    +0.000 A 
ATOM      8  C   UNL     1       2.761   4.813  19.807  0.00  0.00    +0.000 A 
ATOM      9  C   UNL     1       1.526   4.163  19.864  0.00  0.00    +0.000 A 
ATOM     10  C   UNL     1       1.419   2.852  19.419  0.00  0.00    +0.000 A 
ATOM     11  F   UNL     1       0.232   2.235  19.473  0.00  0.00    +0.000 F 
ATOM     12  C   UNL     1       2.528   2.172  18.926  0.00  0.00    +0.000 A 
ATOM     13  C   UNL     1       3.765   2.821  18.861  0.00  0.00    +0.000 A 
ENDBRANCH   4   7
BRANCH   2  14
ATOM     14  C   UNL     1       7.488   7.240  17.952  0.00  0.00    +0.000 A 
ATOM     15  N   UNL     1       7.380   7.927  16.831  0.00  0.00    +0.000 NA
ATOM     16  N   UNL     1       8.018   9.125  17.042  0.00  0.00    +0.000 NA
ATOM     17  C   UNL     1       8.489   9.093  18.273  0.00  0.00    +0.000 A 
ATOM     18  O   UNL     1       8.198   7.915  18.917  0.00  0.00    +0.000 OA
BRANCH  17  19
ATOM     19  C   UNL     1       9.266  10.099  18.986  0.00  0.00    +0.000 A 
ATOM     20  C   UNL     1       9.065  10.378  20.347  0.00  0.00    +0.000 A 
ATOM     21  C   UNL     1       9.847  11.336  21.002  0.00  0.00    +0.000 A 
ATOM     22  C   UNL     1      10.836  12.030  20.303  0.00  0.00    +0.000 A 
ATOM     23  C   UNL     1      11.036  11.765  18.952  0.00  0.00    +0.000 A 
ATOM     24 CL   UNL     1      12.254  12.618  18.086  0.00  0.00    +0.000 Cl
ATOM     25  C   UNL     1      10.261  10.810  18.295  0.00  0.00    +0.000 A 
ENDBRANCH  17  19
ENDBRANCH   2  14
TORSDOF 3
ENDMDL
MODEL 6
REMARK VINA RESULT:      -8.2      3.694      4.643
REMARK  Name = 
REMARK  4 active torsions:
REMARK  status: ('A' for Active; 'I' for Inactive)
REMARK    1  A    between atoms: C_1  and  C_2
REMARK    2  A    between atoms: C_2  and  C_3
REMARK    3  A    between atoms: C_6  and  C_7
REMARK    4  A    between atoms: C_16  and  C_17
REMARK                            x       y       z     vdW  Elec       q    Type
REMARK                         _______ _______ _______ _____ _____    ______ ____
ROOT
ATOM      1  C   UNL     1       1.762   4.429  17.825  0.00  0.00    +0.000 C 
ATOM      2  C   UNL     1       2.959   5.159  18.440  0.00  0.00    +0.000 C 
ATOM      3  C   UNL     1       2.788   6.666  18.412  0.00  0.00    +0.000 C 
ATOM      4  C   UNL     1       2.189   6.856  19.764  0.00  0.00    +0.000 C 
ATOM      5  N   UNL     1       2.338   5.848  20.564  0.00  0.00    +0.000 NA
ATOM      6  O   UNL     1       3.043   4.844  19.842  0.00  0.00    +0.000 OA
ENDROOT
BRANCH   4   7
ATOM      7  C   UNL     1       1.511   8.121  20.134  0.00  0.00    +0.000 A 
ATOM      8  C   UNL     1       1.342   9.148  19.192  0.00  0.00    +0.000 A 
ATOM      9  C   UNL     1       0.673  10.322  19.544  0.00  0.00    +0.000 A 
ATOM     10  C   UNL     1       0.185  10.474  20.834  0.00  0.00    +0.000 A 
ATOM     11  F   UNL     1      -0.459  11.600  21.166  0.00  0.00    +0.000 F 
ATOM     12  C   UNL     1       0.362   9.475  21.787  0.00  0.00    +0.000 A 
ATOM     13  C   UNL     1       1.026   8.295  21.437  0.00  0.00    +0.000 A 
ENDBRANCH   4   7
BRANCH   2  14
ATOM     14  C   UNL     1       4.223   4.754  17.760  0.00  0.00    +0.000 A 
ATOM     15  N   UNL     1       5.364   4.396  18.318  0.00  0.00    +0.000 NA
ATOM     16  N   UNL     1       6.244   4.158  17.292  0.00  0.00    +0.000 NA
ATOM     17  C   UNL     1       5.595   4.398  16.170  0.00  0.00    +0.000 A 
ATOM     18  O   UNL     1       4.298   4.793  16.389  0.00  0.00    +0.000 OA
BRANCH  17  19
ATOM     19  C   UNL     1       6.075   4.322  14.796  0.00  0.00    +0.000 A 
ATOM     20  C   UNL     1       5.460   3.512  13.829  0.00  0.00    +0.000 A 
ATOM     21  C   UNL     1       5.937   3.484  12.514  0.00  0.00    +0.000 A 
ATOM     22  C   UNL     1       7.037   4.262  12.151  0.00  0.00    +0.000 A 
ATOM     23  C   UNL     1       7.657   5.063  13.105  0.00  0.00    +0.000 A 
ATOM     24 CL   UNL     1       9.014   6.024  12.662  0.00  0.00    +0.000 Cl
ATOM     25  C   UNL     1       7.185   5.096  14.417  0.00  0.00    +0.000 A 
ENDBRANCH  17  19
ENDBRANCH   2  14
TORSDOF 3
ENDMDL
MODEL 7
REMARK VINA RESULT:      -8.1      1.171      1.472
REMARK  Name = 
REMARK  4 active torsions:
REMARK  status: ('A' for Active; 'I' for Inactive)
REMARK    1  A    between atoms: C_1  and  C_2
REMARK    2  A    between atoms: C_2  and  C_3
REMARK    3  A    between atoms: C_6  and  C_7
REMARK    4  A    between atoms: C_16  and  C_17
REMARK                            x       y       z     vdW  Elec       q    Type
REMARK                         _______ _______ _______ _____ _____    ______ ____
ROOT
ATOM      1  C   UNL     1       7.565   4.709  18.138  0.00  0.00    +0.000 C 
ATOM      2  C   UNL     1       6.269   4.928  17.351  0.00  0.00    +0.000 C 
ATOM      3  C   UNL     1       5.177   3.960  17.764  0.00  0.00    +0.000 C 
ATOM      4  C   UNL     1       4.500   4.799  18.793  0.00  0.00    +0.000 C 
ATOM      5  N   UNL     1       4.797   6.059  18.739  0.00  0.00    +0.000 NA
ATOM      6  O   UNL     1       5.728   6.222  17.674  0.00  0.00    +0.000 OA
ENDROOT
BRANCH   4   7
ATOM      7  C   UNL     1       3.549   4.207  19.764  0.00  0.00    +0.000 A 
ATOM      8  C   UNL     1       2.347   4.860  20.081  0.00  0.00    +0.000 A 
ATOM      9  C   UNL     1       1.445   4.276  20.973  0.00  0.00    +0.000 A 
ATOM     10  C   UNL     1       1.746   3.052  21.552  0.00  0.00    +0.000 A 
ATOM     11  F   UNL     1       0.875   2.495  22.403  0.00  0.00    +0.000 F 
ATOM     12  C   UNL     1       2.942   2.401  21.266  0.00  0.00    +0.000 A 
ATOM     13  C   UNL     1       3.846   2.978  20.369  0.00  0.00    +0.000 A 
ENDBRANCH   4   7
BRANCH   2  14
ATOM     14  C   UNL     1       6.528   4.846  15.885  0.00  0.00    +0.000 A 
ATOM     15  N   UNL     1       7.393   5.545  15.175  0.00  0.00    +0.000 NA
ATOM     16  N   UNL     1       7.236   5.150  13.869  0.00  0.00    +0.000 NA
ATOM     17  C   UNL     1       6.278   4.245  13.857  0.00  0.00    +0.000 A 
ATOM     18  O   UNL     1       5.768   4.004  15.109  0.00  0.00    +0.000 OA
BRANCH  17  19
ATOM     19  C   UNL     1       5.705   3.527  12.725  0.00  0.00    +0.000 A 
ATOM     20  C   UNL     1       4.693   4.075  11.922  0.00  0.00    +0.000 A 
ATOM     21  C   UNL     1       4.185   3.363  10.830  0.00  0.00    +0.000 A 
ATOM     22  C   UNL     1       4.679   2.093  10.531  0.00  0.00    +0.000 A 
ATOM     23  C   UNL     1       5.677   1.539  11.327  0.00  0.00    +0.000 A 
ATOM     24 CL   UNL     1       6.289  -0.028  10.963  0.00  0.00    +0.000 Cl
ATOM     25  C   UNL     1       6.188   2.245  12.415  0.00  0.00    +0.000 A 
ENDBRANCH  17  19
ENDBRANCH   2  14
TORSDOF 3
ENDMDL
MODEL 8
REMARK VINA RESULT:      -8.1      4.822      7.196
REMARK  Name = 
REMARK  4 active torsions:
REMARK  status: ('A' for Active; 'I' for Inactive)
REMARK    1  A    between atoms: C_1  and  C_2
REMARK    2  A    between atoms: C_2  and  C_3
REMARK    3  A    between atoms: C_6  and  C_7
REMARK    4  A    between atoms: C_16  and  C_17
REMARK                            x       y       z     vdW  Elec       q    Type
REMARK                         _______ _______ _______ _____ _____    ______ ____
ROOT
ATOM      1  C   UNL     1       7.920   4.506  17.755  0.00  0.00    +0.000 C 
ATOM      2  C   UNL     1       6.992   5.616  18.257  0.00  0.00    +0.000 C 
ATOM      3  C   UNL     1       5.568   5.438  17.767  0.00  0.00    +0.000 C 
ATOM      4  C   UNL     1       5.017   4.681  18.927  0.00  0.00    +0.000 C 
ATOM      5  N   UNL     1       5.740   4.742  20.000  0.00  0.00    +0.000 NA
ATOM      6  O   UNL     1       6.881   5.536  19.689  0.00  0.00    +0.000 OA
ENDROOT
BRANCH   4   7
ATOM      7  C   UNL     1       3.729   3.954  18.829  0.00  0.00    +0.000 A 
ATOM      8  C   UNL     1       3.563   2.905  17.911  0.00  0.00    +0.000 A 
ATOM      9  C   UNL     1       2.355   2.207  17.852  0.00  0.00    +0.000 A 
ATOM     10  C   UNL     1       1.314   2.562  18.699  0.00  0.00    +0.000 A 
ATOM     11  F   UNL     1       0.160   1.887  18.640  0.00  0.00    +0.000 F 
ATOM     12  C   UNL     1       1.454   3.613  19.600  0.00  0.00    +0.000 A 
ATOM     13  C   UNL     1       2.663   4.311  19.667  0.00  0.00    +0.000 A 
ENDBRANCH   4   7
BRANCH   2  14
ATOM     14  C   UNL     1       7.524   6.955  17.871  0.00  0.00    +0.000 A 
ATOM     15  N   UNL     1       7.687   7.442  16.656  0.00  0.00    +0.000 NA
ATOM     16  N   UNL     1       8.244   8.688  16.805  0.00  0.00    +0.000 NA
ATOM     17  C   UNL     1       8.400   8.883  18.099  0.00  0.00    +0.000 A 
ATOM     18  O   UNL     1       7.970   7.814  18.847  0.00  0.00    +0.000 OA
BRANCH  17  19
ATOM     19  C   UNL     1       8.970  10.030  18.794  0.00  0.00    +0.000 A 
ATOM     20  C   UNL     1       9.155  10.050  20.185  0.00  0.00    +0.000 A 
ATOM     21  C   UNL     1       9.727  11.162  20.813  0.00  0.00    +0.000 A 
ATOM     22  C   UNL     1      10.116  12.269  20.059  0.00  0.00    +0.000 A 
ATOM     23  C   UNL     1       9.929  12.261  18.680  0.00  0.00    +0.000 A 
ATOM     24 CL   UNL     1      10.408  13.624  17.745  0.00  0.00    +0.000 Cl
ATOM     25  C   UNL     1       9.362  11.155  18.049  0.00  0.00    +0.000 A 
ENDBRANCH  17  19
ENDBRANCH   2  14
TORSDOF 3
ENDMDL
MODEL 9
REMARK VINA RESULT:      -8.1      6.787      8.673
REMARK  Name = 
REMARK  4 active torsions:
REMARK  status: ('A' for Active; 'I' for Inactive)
REMARK    1  A    between atoms: C_1  and  C_2
REMARK    2  A    between atoms: C_2  and  C_3
REMARK    3  A    between atoms: C_6  and  C_7
REMARK    4  A    between atoms: C_16  and  C_17
REMARK                            x       y       z     vdW  Elec       q    Type
REMARK                         _______ _______ _______ _____ _____    ______ ____
ROOT
ATOM      1  C   UNL     1       1.020   9.097  22.030  0.00  0.00    +0.000 C 
ATOM      2  C   UNL     1       0.768  10.050  20.858  0.00  0.00    +0.000 C 
ATOM      3  C   UNL     1      -0.706  10.356  20.675  0.00  0.00    +0.000 C 
ATOM      4  C   UNL     1      -0.787  11.602  21.490  0.00  0.00    +0.000 C 
ATOM      5  N   UNL     1       0.357  12.151  21.746  0.00  0.00    +0.000 NA
ATOM      6  O   UNL     1       1.356  11.331  21.149  0.00  0.00    +0.000 OA
ENDROOT
BRANCH   4   7
ATOM      7  C   UNL     1      -2.093  12.151  21.927  0.00  0.00    +0.000 A 
ATOM      8  C   UNL     1      -2.957  12.768  21.009  0.00  0.00    +0.000 A 
ATOM      9  C   UNL     1      -4.198  13.252  21.428  0.00  0.00    +0.000 A 
ATOM     10  C   UNL     1      -4.569  13.131  22.759  0.00  0.00    +0.000 A 
ATOM     11  F   UNL     1      -5.762  13.593  23.154  0.00  0.00    +0.000 F 
ATOM     12  C   UNL     1      -3.716  12.541  23.688  0.00  0.00    +0.000 A 
ATOM     13  C   UNL     1      -2.476  12.049  23.272  0.00  0.00    +0.000 A 
ENDBRANCH   4   7
BRANCH   2  14
ATOM     14  C   UNL     1       1.358   9.502  19.603  0.00  0.00    +0.000 A 
ATOM     15  N   UNL     1       1.374  10.057  18.406  0.00  0.00    +0.000 NA
ATOM     16  N   UNL     1       1.986   9.160  17.567  0.00  0.00    +0.000 NA
ATOM     17  C   UNL     1       2.296   8.107  18.295  0.00  0.00    +0.000 A 
ATOM     18  O   UNL     1       1.917   8.247  19.608  0.00  0.00    +0.000 OA
BRANCH  17  19
ATOM     19  C   UNL     1       2.936   6.862  17.888  0.00  0.00    +0.000 A 
ATOM     20  C   UNL     1       4.216   6.829  17.312  0.00  0.00    +0.000 A 
ATOM     21  C   UNL     1       4.806   5.612  16.954  0.00  0.00    +0.000 A 
ATOM     22  C   UNL     1       4.122   4.414  17.163  0.00  0.00    +0.000 A 
ATOM     23  C   UNL     1       2.849   4.439  17.726  0.00  0.00    +0.000 A 
ATOM     24 CL   UNL     1       2.002   2.963  17.986  0.00  0.00    +0.000 Cl
ATOM     25  C   UNL     1       2.257   5.648  18.087  0.00  0.00    +0.000 A 
ENDBRANCH  17  19
ENDBRANCH   2  14
TORSDOF 3
ENDMDL
