MODEL 1
REMARK VINA RESULT:      -8.9      0.000      0.000
REMARK  Name = 
REMARK  8 active torsions:
REMARK  status: ('A' for Active; 'I' for Inactive)
REMARK    1  A    between atoms: N_1  and  S_2
REMARK    2  A    between atoms: S_2  and  C_5
REMARK    3  A    between atoms: C_8  and  C_9
REMARK    4  A    between atoms: N_11  and  N_12
REMARK    5  A    between atoms: C_13  and  C_14
REMARK    6  A    between atoms: C_13  and  C_24
REMARK    7  A    between atoms: C_14  and  S_15
REMARK    8  A    between atoms: S_15  and  C_18
REMARK                            x       y       z     vdW  Elec       q    Type
REMARK                         _______ _______ _______ _____ _____    ______ ____
ROOT
ATOM      1  N   UNL     1       3.051   6.915  17.806  0.00  0.00    +0.000 NA
ATOM      2  C   UNL     1       3.199   5.628  17.975  0.00  0.00    +0.000 C 
ENDROOT
BRANCH   2   3
ATOM      3  C   UNL     1       2.540   4.785  19.041  0.00  0.00    +0.000 A 
ATOM      4  C   UNL     1       1.586   3.810  18.699  0.00  0.00    +0.000 A 
ATOM      5  C   UNL     1       0.952   3.047  19.687  0.00  0.00    +0.000 A 
ATOM      6  C   UNL     1       1.302   3.218  21.018  0.00  0.00    +0.000 A 
ATOM      7  F   UNL     1       0.701   2.488  21.964  0.00  0.00    +0.000 F 
ATOM      8  C   UNL     1       2.285   4.126  21.375  0.00  0.00    +0.000 A 
ATOM      9  C   UNL     1       2.904   4.899  20.389  0.00  0.00    +0.000 A 
ENDBRANCH   2   3
BRANCH   1  12
ATOM     10  C   UNL     1       1.892   8.919  18.395  0.00  0.00    +0.000 C 
ATOM     11  O   UNL     1       1.898   9.389  17.261  0.00  0.00    +0.000 OA
ATOM     12  N   UNL     1       2.441   7.690  18.752  0.00  0.00    +0.000 N 
ATOM     13  H   UNL     1       2.348   7.319  19.688  0.00  0.00    +0.000 HD
BRANCH  10  17
ATOM     14  C   UNL     1      -0.282  11.098  21.396  0.00  0.00    +0.000 A 
ATOM     15  C   UNL     1       0.145  11.741  20.235  0.00  0.00    +0.000 A 
ATOM     16  C   UNL     1       0.863  11.014  19.278  0.00  0.00    +0.000 A 
ATOM     17  C   UNL     1       1.156   9.651  19.475  0.00  0.00    +0.000 A 
ATOM     18  C   UNL     1       0.752   9.032  20.664  0.00  0.00    +0.000 A 
ATOM     19  C   UNL     1       0.035   9.754  21.624  0.00  0.00    +0.000 A 
BRANCH  14  20
ATOM     20  S   UNL     1      -1.201  11.974  22.624  0.00  0.00    +0.000 S 
ATOM     21  O   UNL     1      -0.384  13.030  23.180  0.00  0.00    +0.000 OA
ATOM     22  O   UNL     1      -1.911  11.028  23.455  0.00  0.00    +0.000 OA
BRANCH  20  23
ATOM     23  N   UNL     1      -2.374  12.730  21.691  0.00  0.00    +0.000 NA
ATOM     24  H   UNL     1      -1.945  13.100  20.841  0.00  0.00    +0.000 HD
ATOM     25  H   UNL     1      -2.866  13.436  22.237  0.00  0.00    +0.000 HD
ENDBRANCH  20  23
ENDBRANCH  14  20
ENDBRANCH  10  17
ENDBRANCH   1  12
BRANCH   2  26
ATOM     26  C   UNL     1       4.012   4.912  16.902  0.00  0.00    +0.000 C 
BRANCH  26  27
ATOM     27  S   UNL     1       5.552   4.271  17.540  0.00  0.00    +0.000 S 
ATOM     28  O   UNL     1       5.329   3.642  18.829  0.00  0.00    +0.000 OA
ATOM     29  O   UNL     1       6.260   3.551  16.497  0.00  0.00    +0.000 OA
BRANCH  27  30
ATOM     30  C   UNL     1       6.517   5.746  17.843  0.00  0.00    +0.000 A 
ATOM     31  C   UNL     1       7.472   5.744  18.863  0.00  0.00    +0.000 A 
ATOM     32  C   UNL     1       8.285   6.864  19.044  0.00  0.00    +0.000 A 
ATOM     33  C   UNL     1       8.150   7.973  18.207  0.00  0.00    +0.000 A 
ATOM     34  C   UNL     1       7.203   7.967  17.182  0.00  0.00    +0.000 A 
ATOM     35  C   UNL     1       6.385   6.850  16.992  0.00  0.00    +0.000 A 
ENDBRANCH  27  30
ENDBRANCH  26  27
ENDBRANCH   2  26
TORSDOF 8
ENDMDL
MODEL 2
REMARK VINA RESULT:      -8.8      2.201      2.817
REMARK  Name = 
REMARK  8 active torsions:
REMARK  status: ('A' for Active; 'I' for Inactive)
REMARK    1  A    between atoms: N_1  and  S_2
REMARK    2  A    between atoms: S_2  and  C_5
REMARK    3  A    between atoms: C_8  and  C_9
REMARK    4  A    between atoms: N_11  and  N_12
REMARK    5  A    between atoms: C_13  and  C_14
REMARK    6  A    between atoms: C_13  and  C_24
REMARK    7  A    between atoms: C_14  and  S_15
REMARK    8  A    between atoms: S_15  and  C_18
REMARK                            x       y       z     vdW  Elec       q    Type
REMARK                         _______ _______ _______ _____ _____    ______ ____
ROOT
ATOM      1  N   UNL     1       3.432   6.449  17.571  0.00  0.00    +0.000 NA
ATOM      2  C   UNL     1       3.658   5.180  17.783  0.00  0.00    +0.000 C 
ENDROOT
BRANCH   2   3
ATOM      3  C   UNL     1       3.082   4.346  18.903  0.00  0.00    +0.000 A 
ATOM      4  C   UNL     1       3.902   3.485  19.655  0.00  0.00    +0.000 A 
ATOM      5  C   UNL     1       3.366   2.690  20.675  0.00  0.00    +0.000 A 
ATOM      6  C   UNL     1       2.017   2.785  20.984  0.00  0.00    +0.000 A 
ATOM      7  F   UNL     1       1.503   2.029  21.960  0.00  0.00    +0.000 F 
ATOM      8  C   UNL     1       1.201   3.672  20.302  0.00  0.00    +0.000 A 
ATOM      9  C   UNL     1       1.735   4.453  19.273  0.00  0.00    +0.000 A 
ENDBRANCH   2   3
BRANCH   1  12
ATOM     10  C   UNL     1       2.252   8.447  18.137  0.00  0.00    +0.000 C 
ATOM     11  O   UNL     1       2.256   8.906  16.999  0.00  0.00    +0.000 OA
ATOM     12  N   UNL     1       2.811   7.226  18.507  0.00  0.00    +0.000 N 
ATOM     13  H   UNL     1       2.719   6.863  19.447  0.00  0.00    +0.000 HD
BRANCH  10  17
ATOM     14  C   UNL     1       0.037  10.622  21.111  0.00  0.00    +0.000 A 
ATOM     15  C   UNL     1       0.350  11.223  19.892  0.00  0.00    +0.000 A 
ATOM     16  C   UNL     1       1.084  10.499  18.945  0.00  0.00    +0.000 A 
ATOM     17  C   UNL     1       1.505   9.182  19.208  0.00  0.00    +0.000 A 
ATOM     18  C   UNL     1       1.214   8.609  20.452  0.00  0.00    +0.000 A 
ATOM     19  C   UNL     1       0.482   9.328  21.403  0.00  0.00    +0.000 A 
BRANCH  14  20
ATOM     20  S   UNL     1      -0.897  11.495  22.330  0.00  0.00    +0.000 S 
ATOM     21  O   UNL     1      -0.906  10.742  23.565  0.00  0.00    +0.000 OA
ATOM     22  O   UNL     1      -2.108  12.007  21.728  0.00  0.00    +0.000 OA
BRANCH  20  23
ATOM     23  N   UNL     1       0.076  12.835  22.604  0.00  0.00    +0.000 NA
ATOM     24  H   UNL     1       1.049  12.536  22.689  0.00  0.00    +0.000 HD
ATOM     25  H   UNL     1      -0.258  13.361  23.411  0.00  0.00    +0.000 HD
ENDBRANCH  20  23
ENDBRANCH  14  20
ENDBRANCH  10  17
ENDBRANCH   1  12
BRANCH   2  26
ATOM     26  C   UNL     1       4.473   4.467  16.710  0.00  0.00    +0.000 C 
BRANCH  26  27
ATOM     27  S   UNL     1       6.023   5.290  16.384  0.00  0.00    +0.000 S 
ATOM     28  O   UNL     1       5.836   6.730  16.423  0.00  0.00    +0.000 OA
ATOM     29  O   UNL     1       7.084   4.679  17.164  0.00  0.00    +0.000 OA
BRANCH  27  30
ATOM     30  C   UNL     1       6.369   4.859  14.684  0.00  0.00    +0.000 A 
ATOM     31  C   UNL     1       7.498   5.391  14.056  0.00  0.00    +0.000 A 
ATOM     32  C   UNL     1       7.817   4.988  12.759  0.00  0.00    +0.000 A 
ATOM     33  C   UNL     1       7.017   4.054  12.097  0.00  0.00    +0.000 A 
ATOM     34  C   UNL     1       5.897   3.515  12.731  0.00  0.00    +0.000 A 
ATOM     35  C   UNL     1       5.570   3.912  14.031  0.00  0.00    +0.000 A 
ENDBRANCH  27  30
ENDBRANCH  26  27
ENDBRANCH   2  26
TORSDOF 8
ENDMDL
MODEL 3
REMARK VINA RESULT:      -8.8      1.294      1.892
REMARK  Name = 
REMARK  8 active torsions:
REMARK  status: ('A' for Active; 'I' for Inactive)
REMARK    1  A    between atoms: N_1  and  S_2
REMARK    2  A    between atoms: S_2  and  C_5
REMARK    3  A    between atoms: C_8  and  C_9
REMARK    4  A    between atoms: N_11  and  N_12
REMARK    5  A    between atoms: C_13  and  C_14
REMARK    6  A    between atoms: C_13  and  C_24
REMARK    7  A    between atoms: C_14  and  S_15
REMARK    8  A    between atoms: S_15  and  C_18
REMARK                            x       y       z     vdW  Elec       q    Type
REMARK                         _______ _______ _______ _____ _____    ______ ____
ROOT
ATOM      1  N   UNL     1       3.573   6.010  17.698  0.00  0.00    +0.000 NA
ATOM      2  C   UNL     1       3.683   4.752  18.034  0.00  0.00    +0.000 C 
ENDROOT
BRANCH   2   3
ATOM      3  C   UNL     1       2.946   4.059  19.155  0.00  0.00    +0.000 A 
ATOM      4  C   UNL     1       1.541   4.097  19.225  0.00  0.00    +0.000 A 
ATOM      5  C   UNL     1       0.857   3.479  20.279  0.00  0.00    +0.000 A 
ATOM      6  C   UNL     1       1.567   2.779  21.243  0.00  0.00    +0.000 A 
ATOM      7  F   UNL     1       0.915   2.185  22.249  0.00  0.00    +0.000 F 
ATOM      8  C   UNL     1       2.945   2.672  21.161  0.00  0.00    +0.000 A 
ATOM      9  C   UNL     1       3.627   3.303  20.118  0.00  0.00    +0.000 A 
ENDBRANCH   2   3
BRANCH   1  12
ATOM     10  C   UNL     1       2.517   8.132  17.987  0.00  0.00    +0.000 C 
ATOM     11  O   UNL     1       2.679   8.497  16.826  0.00  0.00    +0.000 OA
ATOM     12  N   UNL     1       2.927   6.905  18.503  0.00  0.00    +0.000 N 
ATOM     13  H   UNL     1       2.708   6.627  19.450  0.00  0.00    +0.000 HD
BRANCH  10  17
ATOM     14  C   UNL     1       0.323  10.588  20.750  0.00  0.00    +0.000 A 
ATOM     15  C   UNL     1       0.708   9.298  21.113  0.00  0.00    +0.000 A 
ATOM     16  C   UNL     1       1.410   8.512  20.192  0.00  0.00    +0.000 A 
ATOM     17  C   UNL     1       1.729   9.007  18.913  0.00  0.00    +0.000 A 
ATOM     18  C   UNL     1       1.300  10.290  18.553  0.00  0.00    +0.000 A 
ATOM     19  C   UNL     1       0.597  11.079  19.470  0.00  0.00    +0.000 A 
BRANCH  14  20
ATOM     20  S   UNL     1      -0.555  11.618  21.886  0.00  0.00    +0.000 S 
ATOM     21  O   UNL     1      -0.438  11.077  23.222  0.00  0.00    +0.000 OA
ATOM     22  O   UNL     1      -1.828  11.986  21.310  0.00  0.00    +0.000 OA
BRANCH  20  23
ATOM     23  N   UNL     1       0.376  13.015  21.862  0.00  0.00    +0.000 NA
ATOM     24  H   UNL     1       0.505  13.353  22.817  0.00  0.00    +0.000 HD
ATOM     25  H   UNL     1      -0.034  13.708  21.238  0.00  0.00    +0.000 HD
ENDBRANCH  20  23
ENDBRANCH  14  20
ENDBRANCH  10  17
ENDBRANCH   1  12
BRANCH   2  26
ATOM     26  C   UNL     1       4.539   3.894  17.108  0.00  0.00    +0.000 C 
BRANCH  26  27
ATOM     27  S   UNL     1       5.564   4.884  16.031  0.00  0.00    +0.000 S 
ATOM     28  O   UNL     1       6.365   4.021  15.181  0.00  0.00    +0.000 OA
ATOM     29  O   UNL     1       4.778   5.951  15.440  0.00  0.00    +0.000 OA
BRANCH  27  30
ATOM     30  C   UNL     1       6.692   5.688  17.161  0.00  0.00    +0.000 A 
ATOM     31  C   UNL     1       7.006   7.037  16.975  0.00  0.00    +0.000 A 
ATOM     32  C   UNL     1       7.817   7.688  17.905  0.00  0.00    +0.000 A 
ATOM     33  C   UNL     1       8.304   6.999  19.017  0.00  0.00    +0.000 A 
ATOM     34  C   UNL     1       7.979   5.655  19.207  0.00  0.00    +0.000 A 
ATOM     35  C   UNL     1       7.167   4.994  18.281  0.00  0.00    +0.000 A 
ENDBRANCH  27  30
ENDBRANCH  26  27
ENDBRANCH   2  26
TORSDOF 8
ENDMDL
MODEL 4
REMARK VINA RESULT:      -8.8      2.240      2.920
REMARK  Name = 
REMARK  8 active torsions:
REMARK  status: ('A' for Active; 'I' for Inactive)
REMARK    1  A    between atoms: N_1  and  S_2
REMARK    2  A    between atoms: S_2  and  C_5
REMARK    3  A    between atoms: C_8  and  C_9
REMARK    4  A    between atoms: N_11  and  N_12
REMARK    5  A    between atoms: C_13  and  C_14
REMARK    6  A    between atoms: C_13  and  C_24
REMARK    7  A    between atoms: C_14  and  S_15
REMARK    8  A    between atoms: S_15  and  C_18
REMARK                            x       y       z     vdW  Elec       q    Type
REMARK                         _______ _______ _______ _____ _____    ______ ____
ROOT
ATOM      1  N   UNL     1       3.536   6.219  17.500  0.00  0.00    +0.000 NA
ATOM      2  C   UNL     1       3.770   4.963  17.772  0.00  0.00    +0.000 C 
ENDROOT
BRANCH   2   3
ATOM      3  C   UNL     1       3.165   4.166  18.903  0.00  0.00    +0.000 A 
ATOM      4  C   UNL     1       1.778   4.184  19.135  0.00  0.00    +0.000 A 
ATOM      5  C   UNL     1       1.217   3.469  20.200  0.00  0.00    +0.000 A 
ATOM      6  C   UNL     1       2.032   2.692  21.010  0.00  0.00    +0.000 A 
ATOM      7  F   UNL     1       1.499   2.004  22.027  0.00  0.00    +0.000 F 
ATOM      8  C   UNL     1       3.392   2.605  20.763  0.00  0.00    +0.000 A 
ATOM      9  C   UNL     1       3.951   3.333  19.710  0.00  0.00    +0.000 A 
ENDBRANCH   2   3
BRANCH   1  12
ATOM     10  C   UNL     1       2.480   8.303  17.995  0.00  0.00    +0.000 C 
ATOM     11  O   UNL     1       2.676   8.794  16.886  0.00  0.00    +0.000 OA
ATOM     12  N   UNL     1       2.872   7.024  18.381  0.00  0.00    +0.000 N 
ATOM     13  H   UNL     1       2.625   6.644  19.285  0.00  0.00    +0.000 HD
BRANCH  10  17
ATOM     14  C   UNL     1       0.231  10.464  20.953  0.00  0.00    +0.000 A 
ATOM     15  C   UNL     1       0.724   9.192  21.240  0.00  0.00    +0.000 A 
ATOM     16  C   UNL     1       1.443   8.502  20.256  0.00  0.00    +0.000 A 
ATOM     17  C   UNL     1       1.670   9.075  18.991  0.00  0.00    +0.000 A 
ATOM     18  C   UNL     1       1.133  10.337  18.707  0.00  0.00    +0.000 A 
ATOM     19  C   UNL     1       0.414  11.030  19.687  0.00  0.00    +0.000 A 
BRANCH  14  20
ATOM     20  S   UNL     1      -0.671  11.374  22.169  0.00  0.00    +0.000 S 
ATOM     21  O   UNL     1      -0.478  10.771  23.469  0.00  0.00    +0.000 OA
ATOM     22  O   UNL     1      -1.983  11.692  21.651  0.00  0.00    +0.000 OA
BRANCH  20  23
ATOM     23  N   UNL     1       0.171  12.827  22.195  0.00  0.00    +0.000 NA
ATOM     24  H   UNL     1      -0.255  13.453  22.881  0.00  0.00    +0.000 HD
ATOM     25  H   UNL     1       0.225  13.226  21.259  0.00  0.00    +0.000 HD
ENDBRANCH  20  23
ENDBRANCH  14  20
ENDBRANCH  10  17
ENDBRANCH   1  12
BRANCH   2  26
ATOM     26  C   UNL     1       4.633   4.218  16.758  0.00  0.00    +0.000 C 
BRANCH  26  27
ATOM     27  S   UNL     1       6.164   5.073  16.422  0.00  0.00    +0.000 S 
ATOM     28  O   UNL     1       5.968   6.506  16.548  0.00  0.00    +0.000 OA
ATOM     29  O   UNL     1       7.257   4.429  17.127  0.00  0.00    +0.000 OA
BRANCH  27  30
ATOM     30  C   UNL     1       6.450   4.739  14.688  0.00  0.00    +0.000 A 
ATOM     31  C   UNL     1       7.516   5.363  14.035  0.00  0.00    +0.000 A 
ATOM     32  C   UNL     1       7.792   5.038  12.707  0.00  0.00    +0.000 A 
ATOM     33  C   UNL     1       7.013   4.092  12.039  0.00  0.00    +0.000 A 
ATOM     34  C   UNL     1       5.956   3.461  12.697  0.00  0.00    +0.000 A 
ATOM     35  C   UNL     1       5.673   3.780  14.028  0.00  0.00    +0.000 A 
ENDBRANCH  27  30
ENDBRANCH  26  27
ENDBRANCH   2  26
TORSDOF 8
ENDMDL
MODEL 5
REMARK VINA RESULT:      -8.8      1.326      1.611
REMARK  Name = 
REMARK  8 active torsions:
REMARK  status: ('A' for Active; 'I' for Inactive)
REMARK    1  A    between atoms: N_1  and  S_2
REMARK    2  A    between atoms: S_2  and  C_5
REMARK    3  A    between atoms: C_8  and  C_9
REMARK    4  A    between atoms: N_11  and  N_12
REMARK    5  A    between atoms: C_13  and  C_14
REMARK    6  A    between atoms: C_13  and  C_24
REMARK    7  A    between atoms: C_14  and  S_15
REMARK    8  A    between atoms: S_15  and  C_18
REMARK                            x       y       z     vdW  Elec       q    Type
REMARK                         _______ _______ _______ _____ _____    ______ ____
ROOT
ATOM      1  N   UNL     1       3.524   5.978  17.580  0.00  0.00    +0.000 NA
ATOM      2  C   UNL     1       3.610   4.714  17.899  0.00  0.00    +0.000 C 
ENDROOT
BRANCH   2   3
ATOM      3  C   UNL     1       2.906   4.033  19.048  0.00  0.00    +0.000 A 
ATOM      4  C   UNL     1       1.502   3.964  19.094  0.00  0.00    +0.000 A 
ATOM      5  C   UNL     1       0.846   3.358  20.172  0.00  0.00    +0.000 A 
ATOM      6  C   UNL     1       1.588   2.772  21.187  0.00  0.00    +0.000 A 
ATOM      7  F   UNL     1       0.964   2.189  22.217  0.00  0.00    +0.000 F 
ATOM      8  C   UNL     1       2.972   2.769  21.134  0.00  0.00    +0.000 A 
ATOM      9  C   UNL     1       3.624   3.390  20.065  0.00  0.00    +0.000 A 
ENDBRANCH   2   3
BRANCH   1  12
ATOM     10  C   UNL     1       2.541   8.126  17.938  0.00  0.00    +0.000 C 
ATOM     11  O   UNL     1       2.651   8.495  16.772  0.00  0.00    +0.000 OA
ATOM     12  N   UNL     1       2.946   6.885  18.423  0.00  0.00    +0.000 N 
ATOM     13  H   UNL     1       2.769   6.606  19.379  0.00  0.00    +0.000 HD
BRANCH  10  17
ATOM     14  C   UNL     1       0.430  10.737  20.621  0.00  0.00    +0.000 A 
ATOM     15  C   UNL     1       0.832  11.198  19.368  0.00  0.00    +0.000 A 
ATOM     16  C   UNL     1       1.530  10.333  18.516  0.00  0.00    +0.000 A 
ATOM     17  C   UNL     1       1.827   9.014  18.910  0.00  0.00    +0.000 A 
ATOM     18  C   UNL     1       1.450   8.582  20.187  0.00  0.00    +0.000 A 
ATOM     19  C   UNL     1       0.754   9.443  21.042  0.00  0.00    +0.000 A 
BRANCH  14  20
ATOM     20  S   UNL     1      -0.463  11.791  21.723  0.00  0.00    +0.000 S 
ATOM     21  O   UNL     1      -1.839  11.889  21.291  0.00  0.00    +0.000 OA
ATOM     22  O   UNL     1       0.339  12.957  22.022  0.00  0.00    +0.000 OA
BRANCH  20  23
ATOM     23  N   UNL     1      -0.475  10.875  23.130  0.00  0.00    +0.000 NA
ATOM     24  H   UNL     1      -1.188  11.239  23.765  0.00  0.00    +0.000 HD
ATOM     25  H   UNL     1       0.456  10.839  23.542  0.00  0.00    +0.000 HD
ENDBRANCH  20  23
ENDBRANCH  14  20
ENDBRANCH  10  17
ENDBRANCH   1  12
BRANCH   2  26
ATOM     26  C   UNL     1       4.393   3.840  16.924  0.00  0.00    +0.000 C 
BRANCH  26  27
ATOM     27  S   UNL     1       5.555   4.788  15.956  0.00  0.00    +0.000 S 
ATOM     28  O   UNL     1       6.438   3.893  15.228  0.00  0.00    +0.000 OA
ATOM     29  O   UNL     1       4.863   5.851  15.250  0.00  0.00    +0.000 OA
BRANCH  27  30
ATOM     30  C   UNL     1       6.553   5.606  17.194  0.00  0.00    +0.000 A 
ATOM     31  C   UNL     1       7.041   4.872  18.277  0.00  0.00    +0.000 A 
ATOM     32  C   UNL     1       7.891   5.487  19.197  0.00  0.00    +0.000 A 
ATOM     33  C   UNL     1       8.255   6.825  19.031  0.00  0.00    +0.000 A 
ATOM     34  C   UNL     1       7.775   7.552  17.941  0.00  0.00    +0.000 A 
ATOM     35  C   UNL     1       6.925   6.944  17.014  0.00  0.00    +0.000 A 
ENDBRANCH  27  30
ENDBRANCH  26  27
ENDBRANCH   2  26
TORSDOF 8
ENDMDL
MODEL 6
REMARK VINA RESULT:      -8.7      1.815      2.665
REMARK  Name = 
REMARK  8 active torsions:
REMARK  status: ('A' for Active; 'I' for Inactive)
REMARK    1  A    between atoms: N_1  and  S_2
REMARK    2  A    between atoms: S_2  and  C_5
REMARK    3  A    between atoms: C_8  and  C_9
REMARK    4  A    between atoms: N_11  and  N_12
REMARK    5  A    between atoms: C_13  and  C_14
REMARK    6  A    between atoms: C_13  and  C_24
REMARK    7  A    between atoms: C_14  and  S_15
REMARK    8  A    between atoms: S_15  and  C_18
REMARK                            x       y       z     vdW  Elec       q    Type
REMARK                         _______ _______ _______ _____ _____    ______ ____
ROOT
ATOM      1  N   UNL     1       2.913   6.566  17.751  0.00  0.00    +0.000 NA
ATOM      2  C   UNL     1       3.116   5.300  18.002  0.00  0.00    +0.000 C 
ENDROOT
BRANCH   2   3
ATOM      3  C   UNL     1       2.497   4.502  19.126  0.00  0.00    +0.000 A 
ATOM      4  C   UNL     1       3.001   4.592  20.435  0.00  0.00    +0.000 A 
ATOM      5  C   UNL     1       2.447   3.832  21.473  0.00  0.00    +0.000 A 
ATOM      6  C   UNL     1       1.354   3.016  21.220  0.00  0.00    +0.000 A 
ATOM      7  F   UNL     1       0.820   2.291  22.209  0.00  0.00    +0.000 F 
ATOM      8  C   UNL     1       0.798   2.959  19.952  0.00  0.00    +0.000 A 
ATOM      9  C   UNL     1       1.363   3.706  18.915  0.00  0.00    +0.000 A 
ENDBRANCH   2   3
BRANCH   1  12
ATOM     10  C   UNL     1       1.940   8.678  18.293  0.00  0.00    +0.000 C 
ATOM     11  O   UNL     1       2.164   9.189  17.199  0.00  0.00    +0.000 OA
ATOM     12  N   UNL     1       2.276   7.375  18.649  0.00  0.00    +0.000 N 
ATOM     13  H   UNL     1       2.006   6.982  19.541  0.00  0.00    +0.000 HD
BRANCH  10  17
ATOM     14  C   UNL     1      -0.222  10.878  21.287  0.00  0.00    +0.000 A 
ATOM     15  C   UNL     1       0.447   9.703  21.629  0.00  0.00    +0.000 A 
ATOM     16  C   UNL     1       1.133   8.997  20.633  0.00  0.00    +0.000 A 
ATOM     17  C   UNL     1       1.154   9.457  19.303  0.00  0.00    +0.000 A 
ATOM     18  C   UNL     1       0.445  10.618  18.972  0.00  0.00    +0.000 A 
ATOM     19  C   UNL     1      -0.244  11.327  19.963  0.00  0.00    +0.000 A 
BRANCH  14  20
ATOM     20  S   UNL     1      -1.091  11.806  22.514  0.00  0.00    +0.000 S 
ATOM     21  O   UNL     1      -0.254  12.885  22.990  0.00  0.00    +0.000 OA
ATOM     22  O   UNL     1      -1.765  10.896  23.412  0.00  0.00    +0.000 OA
BRANCH  20  23
ATOM     23  N   UNL     1      -2.303  12.522  21.598  0.00  0.00    +0.000 NA
ATOM     24  H   UNL     1      -2.983  11.812  21.321  0.00  0.00    +0.000 HD
ATOM     25  H   UNL     1      -1.904  13.030  20.810  0.00  0.00    +0.000 HD
ENDBRANCH  20  23
ENDBRANCH  14  20
ENDBRANCH  10  17
ENDBRANCH   1  12
BRANCH   2  26
ATOM     26  C   UNL     1       3.952   4.549  16.972  0.00  0.00    +0.000 C 
BRANCH  26  27
ATOM     27  S   UNL     1       5.613   5.194  16.854  0.00  0.00    +0.000 S 
ATOM     28  O   UNL     1       5.592   6.640  16.987  0.00  0.00    +0.000 OA
ATOM     29  O   UNL     1       6.512   4.406  17.678  0.00  0.00    +0.000 OA
BRANCH  27  30
ATOM     30  C   UNL     1       6.075   4.836  15.164  0.00  0.00    +0.000 A 
ATOM     31  C   UNL     1       7.289   5.316  14.667  0.00  0.00    +0.000 A 
ATOM     32  C   UNL     1       7.690   4.966  13.377  0.00  0.00    +0.000 A 
ATOM     33  C   UNL     1       6.887   4.136  12.593  0.00  0.00    +0.000 A 
ATOM     34  C   UNL     1       5.680   3.648  13.097  0.00  0.00    +0.000 A 
ATOM     35  C   UNL     1       5.270   3.993  14.388  0.00  0.00    +0.000 A 
ENDBRANCH  27  30
ENDBRANCH  26  27
ENDBRANCH   2  26
TORSDOF 8
ENDMDL
MODEL 7
REMARK VINA RESULT:      -8.7      1.911      2.654
REMARK  Name = 
REMARK  8 active torsions:
REMARK  status: ('A' for Active; 'I' for Inactive)
REMARK    1  A    between atoms: N_1  and  S_2
REMARK    2  A    between atoms: S_2  and  C_5
REMARK    3  A    between atoms: C_8  and  C_9
REMARK    4  A    between atoms: N_11  and  N_12
REMARK    5  A    between atoms: C_13  and  C_14
REMARK    6  A    between atoms: C_13  and  C_24
REMARK    7  A    between atoms: C_14  and  S_15
REMARK    8  A    between atoms: S_15  and  C_18
REMARK                            x       y       z     vdW  Elec       q    Type
REMARK                         _______ _______ _______ _____ _____    ______ ____
ROOT
ATOM      1  N   UNL     1       3.193   6.692  17.672  0.00  0.00    +0.000 NA
ATOM      2  C   UNL     1       3.338   5.412  17.890  0.00  0.00    +0.000 C 
ENDROOT
BRANCH   2   3
ATOM      3  C   UNL     1       2.648   4.606  18.966  0.00  0.00    +0.000 A 
ATOM      4  C   UNL     1       1.666   3.655  18.634  0.00  0.00    +0.000 A 
ATOM      5  C   UNL     1       1.006   2.927  19.631  0.00  0.00    +0.000 A 
ATOM      6  C   UNL     1       1.356   3.107  20.961  0.00  0.00    +0.000 A 
ATOM      7  F   UNL     1       0.729   2.409  21.915  0.00  0.00    +0.000 F 
ATOM      8  C   UNL     1       2.365   3.989  21.309  0.00  0.00    +0.000 A 
ATOM      9  C   UNL     1       3.011   4.727  20.313  0.00  0.00    +0.000 A 
ENDBRANCH   2   3
BRANCH   1  12
ATOM     10  C   UNL     1       2.056   8.734  18.166  0.00  0.00    +0.000 C 
ATOM     11  O   UNL     1       2.133   9.184  17.026  0.00  0.00    +0.000 OA
ATOM     12  N   UNL     1       2.553   7.498  18.571  0.00  0.00    +0.000 N 
ATOM     13  H   UNL     1       2.403   7.146  19.507  0.00  0.00    +0.000 HD
BRANCH  10  17
ATOM     14  C   UNL     1      -0.091  10.878  21.211  0.00  0.00    +0.000 A 
ATOM     15  C   UNL     1       0.322   9.566  21.438  0.00  0.00    +0.000 A 
ATOM     16  C   UNL     1       1.008   8.883  20.426  0.00  0.00    +0.000 A 
ATOM     17  C   UNL     1       1.283   9.503  19.193  0.00  0.00    +0.000 A 
ATOM     18  C   UNL     1       0.827  10.808  18.969  0.00  0.00    +0.000 A 
ATOM     19  C   UNL     1       0.140  11.494  19.976  0.00  0.00    +0.000 A 
BRANCH  14  20
ATOM     20  S   UNL     1      -0.949  11.781  22.464  0.00  0.00    +0.000 S 
ATOM     21  O   UNL     1      -0.150  12.911  22.881  0.00  0.00    +0.000 OA
ATOM     22  O   UNL     1      -1.528  10.852  23.409  0.00  0.00    +0.000 OA
BRANCH  20  23
ATOM     23  N   UNL     1      -2.242  12.413  21.598  0.00  0.00    +0.000 NA
ATOM     24  H   UNL     1      -2.364  11.880  20.735  0.00  0.00    +0.000 HD
ATOM     25  H   UNL     1      -2.115  13.412  21.444  0.00  0.00    +0.000 HD
ENDBRANCH  20  23
ENDBRANCH  14  20
ENDBRANCH  10  17
ENDBRANCH   1  12
BRANCH   2  26
ATOM     26  C   UNL     1       4.183   4.660  16.868  0.00  0.00    +0.000 C 
BRANCH  26  27
ATOM     27  S   UNL     1       5.766   5.440  16.599  0.00  0.00    +0.000 S 
ATOM     28  O   UNL     1       5.597   6.879  16.495  0.00  0.00    +0.000 OA
ATOM     29  O   UNL     1       6.751   4.893  17.515  0.00  0.00    +0.000 OA
BRANCH  27  30
ATOM     30  C   UNL     1       6.243   4.856  14.977  0.00  0.00    +0.000 A 
ATOM     31  C   UNL     1       5.392   3.995  14.279  0.00  0.00    +0.000 A 
ATOM     32  C   UNL     1       5.722   3.608  12.980  0.00  0.00    +0.000 A 
ATOM     33  C   UNL     1       6.890   4.083  12.381  0.00  0.00    +0.000 A 
ATOM     34  C   UNL     1       7.732   4.952  13.076  0.00  0.00    +0.000 A 
ATOM     35  C   UNL     1       7.409   5.346  14.378  0.00  0.00    +0.000 A 
ENDBRANCH  27  30
ENDBRANCH  26  27
ENDBRANCH   2  26
TORSDOF 8
ENDMDL
MODEL 8
REMARK VINA RESULT:      -8.7      1.979      2.725
REMARK  Name = 
REMARK  8 active torsions:
REMARK  status: ('A' for Active; 'I' for Inactive)
REMARK    1  A    between atoms: N_1  and  S_2
REMARK    2  A    between atoms: S_2  and  C_5
REMARK    3  A    between atoms: C_8  and  C_9
REMARK    4  A    between atoms: N_11  and  N_12
REMARK    5  A    between atoms: C_13  and  C_14
REMARK    6  A    between atoms: C_13  and  C_24
REMARK    7  A    between atoms: C_14  and  S_15
REMARK    8  A    between atoms: S_15  and  C_18
REMARK                            x       y       z     vdW  Elec       q    Type
REMARK                         _______ _______ _______ _____ _____    ______ ____
ROOT
ATOM      1  N   UNL     1       3.070   6.471  17.640  0.00  0.00    +0.000 NA
ATOM      2  C   UNL     1       3.256   5.212  17.937  0.00  0.00    +0.000 C 
ENDROOT
BRANCH   2   3
ATOM      3  C   UNL     1       2.595   4.453  19.062  0.00  0.00    +0.000 A 
ATOM      4  C   UNL     1       1.605   3.490  18.797  0.00  0.00    +0.000 A 
ATOM      5  C   UNL     1       0.970   2.805  19.840  0.00  0.00    +0.000 A 
ATOM      6  C   UNL     1       1.355   3.040  21.152  0.00  0.00    +0.000 A 
ATOM      7  F   UNL     1       0.752   2.384  22.151  0.00  0.00    +0.000 F 
ATOM      8  C   UNL     1       2.372   3.936  21.436  0.00  0.00    +0.000 A 
ATOM      9  C   UNL     1       2.993   4.631  20.394  0.00  0.00    +0.000 A 
ENDBRANCH   2   3
BRANCH   1  12
ATOM     10  C   UNL     1       2.153   8.625  18.111  0.00  0.00    +0.000 C 
ATOM     11  O   UNL     1       2.473   9.121  17.034  0.00  0.00    +0.000 OA
ATOM     12  N   UNL     1       2.408   7.310  18.491  0.00  0.00    +0.000 N 
ATOM     13  H   UNL     1       2.062   6.933  19.363  0.00  0.00    +0.000 HD
BRANCH  10  17
ATOM     14  C   UNL     1      -0.121  10.917  20.949  0.00  0.00    +0.000 A 
ATOM     15  C   UNL     1       0.375   9.662  21.300  0.00  0.00    +0.000 A 
ATOM     16  C   UNL     1       1.101   8.929  20.354  0.00  0.00    +0.000 A 
ATOM     17  C   UNL     1       1.334   9.441  19.064  0.00  0.00    +0.000 A 
ATOM     18  C   UNL     1       0.795  10.686  18.717  0.00  0.00    +0.000 A 
ATOM     19  C   UNL     1       0.067  11.423  19.658  0.00  0.00    +0.000 A 
BRANCH  14  20
ATOM     20  S   UNL     1      -1.033  11.882  22.115  0.00  0.00    +0.000 S 
ATOM     21  O   UNL     1      -2.381  12.083  21.630  0.00  0.00    +0.000 OA
ATOM     22  O   UNL     1      -0.208  12.974  22.580  0.00  0.00    +0.000 OA
BRANCH  20  23
ATOM     23  N   UNL     1      -1.154  10.820  23.409  0.00  0.00    +0.000 NA
ATOM     24  H   UNL     1      -1.484  11.325  24.233  0.00  0.00    +0.000 HD
ATOM     25  H   UNL     1      -0.270  10.335  23.558  0.00  0.00    +0.000 HD
ENDBRANCH  20  23
ENDBRANCH  14  20
ENDBRANCH  10  17
ENDBRANCH   1  12
BRANCH   2  26
ATOM     26  C   UNL     1       4.122   4.425  16.959  0.00  0.00    +0.000 C 
BRANCH  26  27
ATOM     27  S   UNL     1       5.741   5.151  16.760  0.00  0.00    +0.000 S 
ATOM     28  O   UNL     1       5.653   6.596  16.877  0.00  0.00    +0.000 OA
ATOM     29  O   UNL     1       6.714   4.421  17.552  0.00  0.00    +0.000 OA
BRANCH  27  30
ATOM     30  C   UNL     1       6.146   4.794  15.055  0.00  0.00    +0.000 A 
ATOM     31  C   UNL     1       7.328   5.300  14.509  0.00  0.00    +0.000 A 
ATOM     32  C   UNL     1       7.687   4.950  13.207  0.00  0.00    +0.000 A 
ATOM     33  C   UNL     1       6.875   4.096  12.459  0.00  0.00    +0.000 A 
ATOM     34  C   UNL     1       5.701   3.582  13.012  0.00  0.00    +0.000 A 
ATOM     35  C   UNL     1       5.334   3.926  14.316  0.00  0.00    +0.000 A 
ENDBRANCH  27  30
ENDBRANCH  26  27
ENDBRANCH   2  26
TORSDOF 8
ENDMDL
MODEL 9
REMARK VINA RESULT:      -8.7      1.289      1.956
REMARK  Name = 
REMARK  8 active torsions:
REMARK  status: ('A' for Active; 'I' for Inactive)
REMARK    1  A    between atoms: N_1  and  S_2
REMARK    2  A    between atoms: S_2  and  C_5
REMARK    3  A    between atoms: C_8  and  C_9
REMARK    4  A    between atoms: N_11  and  N_12
REMARK    5  A    between atoms: C_13  and  C_14
REMARK    6  A    between atoms: C_13  and  C_24
REMARK    7  A    between atoms: C_14  and  S_15
REMARK    8  A    between atoms: S_15  and  C_18
REMARK                            x       y       z     vdW  Elec       q    Type
REMARK                         _______ _______ _______ _____ _____    ______ ____
ROOT
ATOM      1  N   UNL     1       3.524   5.902  17.661  0.00  0.00    +0.000 NA
ATOM      2  C   UNL     1       3.588   4.647  18.019  0.00  0.00    +0.000 C 
ENDROOT
BRANCH   2   3
ATOM      3  C   UNL     1       2.814   3.997  19.141  0.00  0.00    +0.000 A 
ATOM      4  C   UNL     1       3.391   3.833  20.413  0.00  0.00    +0.000 A 
ATOM      5  C   UNL     1       2.686   3.206  21.447  0.00  0.00    +0.000 A 
ATOM      6  C   UNL     1       1.382   2.783  21.233  0.00  0.00    +0.000 A 
ATOM      7  F   UNL     1       0.704   2.186  22.220  0.00  0.00    +0.000 F 
ATOM      8  C   UNL     1       0.768   2.991  20.009  0.00  0.00    +0.000 A 
ATOM      9  C   UNL     1       1.480   3.602  18.973  0.00  0.00    +0.000 A 
ENDBRANCH   2   3
BRANCH   1  12
ATOM     10  C   UNL     1       2.592   8.085  17.921  0.00  0.00    +0.000 C 
ATOM     11  O   UNL     1       2.832   8.447  16.772  0.00  0.00    +0.000 OA
ATOM     12  N   UNL     1       2.899   6.831  18.443  0.00  0.00    +0.000 N 
ATOM     13  H   UNL     1       2.617   6.562  19.376  0.00  0.00    +0.000 HD
BRANCH  10  17
ATOM     14  C   UNL     1       0.434  10.663  20.600  0.00  0.00    +0.000 A 
ATOM     15  C   UNL     1       0.784   9.374  21.000  0.00  0.00    +0.000 A 
ATOM     16  C   UNL     1       1.475   8.548  20.105  0.00  0.00    +0.000 A 
ATOM     17  C   UNL     1       1.817   9.002  18.817  0.00  0.00    +0.000 A 
ATOM     18  C   UNL     1       1.423  10.286  18.420  0.00  0.00    +0.000 A 
ATOM     19  C   UNL     1       0.732  11.115  19.310  0.00  0.00    +0.000 A 
BRANCH  14  20
ATOM     20  S   UNL     1      -0.428  11.743  21.702  0.00  0.00    +0.000 S 
ATOM     21  O   UNL     1      -1.800  11.883  21.269  0.00  0.00    +0.000 OA
ATOM     22  O   UNL     1       0.408  12.883  22.003  0.00  0.00    +0.000 OA
BRANCH  20  23
ATOM     23  N   UNL     1      -0.470  10.825  23.108  0.00  0.00    +0.000 NA
ATOM     24  H   UNL     1      -0.039  11.353  23.869  0.00  0.00    +0.000 HD
ATOM     25  H   UNL     1      -0.043   9.914  22.953  0.00  0.00    +0.000 HD
ENDBRANCH  20  23
ENDBRANCH  14  20
ENDBRANCH  10  17
ENDBRANCH   1  12
BRANCH   2  26
ATOM     26  C   UNL     1       4.426   3.747  17.117  0.00  0.00    +0.000 C 
BRANCH  26  27
ATOM     27  S   UNL     1       5.509   4.683  16.050  0.00  0.00    +0.000 S 
ATOM     28  O   UNL     1       6.393   3.784  15.331  0.00  0.00    +0.000 OA
ATOM     29  O   UNL     1       4.746   5.681  15.322  0.00  0.00    +0.000 OA
BRANCH  27  30
ATOM     30  C   UNL     1       6.526   5.601  17.199  0.00  0.00    +0.000 A 
ATOM     31  C   UNL     1       7.094   4.942  18.292  0.00  0.00    +0.000 A 
ATOM     32  C   UNL     1       7.957   5.637  19.140  0.00  0.00    +0.000 A 
ATOM     33  C   UNL     1       8.257   6.978  18.892  0.00  0.00    +0.000 A 
ATOM     34  C   UNL     1       7.698   7.630  17.792  0.00  0.00    +0.000 A 
ATOM     35  C   UNL     1       6.832   6.942  16.937  0.00  0.00    +0.000 A 
ENDBRANCH  27  30
ENDBRANCH  26  27
ENDBRANCH   2  26
TORSDOF 8
ENDMDL
