MODEL 1
REMARK VINA RESULT:      -6.9      0.000      0.000
REMARK  Name = 
REMARK  1 active torsions:
REMARK  status: ('A' for Active; 'I' for Inactive)
REMARK    1  A    between atoms: N_1  and  N_2
REMARK                            x       y       z     vdW  Elec       q    Type
REMARK                         _______ _______ _______ _____ _____    ______ ____
ROOT
ATOM      1  N   UNL     1       7.571   5.544  15.585  0.00  0.00    +0.000 N 
ATOM      2  C   UNL     1       6.522   5.257  16.408  0.00  0.00    +0.000 A 
ATOM      3  N   UNL     1       5.560   4.384  16.199  0.00  0.00    +0.000 NA
ATOM      4  C   UNL     1       4.697   4.337  17.281  0.00  0.00    +0.000 A 
ATOM      5  C   UNL     1       3.585   3.479  17.422  0.00  0.00    +0.000 A 
ATOM      6  C   UNL     1       2.804   3.546  18.581  0.00  0.00    +0.000 A 
ATOM      7  C   UNL     1       3.121   4.447  19.597  0.00  0.00    +0.000 A 
ATOM      8  C   UNL     1       4.199   5.324  19.468  0.00  0.00    +0.000 A 
ATOM      9  C   UNL     1       4.984   5.236  18.308  0.00  0.00    +0.000 A 
ATOM     10  S   UNL     1       6.395   6.124  17.897  0.00  0.00    +0.000 S 
ATOM     11  O   UNL     1       2.414   4.537  20.770  0.00  0.00    +0.000 OA
ATOM     12  C   UNL     1       1.616   3.367  20.984  0.00  0.00    +0.000 C 
ATOM     13  C   UNL     1       0.850   3.011  19.722  0.00  0.00    +0.000 C 
ATOM     14  O   UNL     1       1.747   2.672  18.657  0.00  0.00    +0.000 OA
ATOM     15  H   UNL     1       8.093   6.392  15.810  0.00  0.00    +0.000 HD
ENDROOT
BRANCH   1  16
ATOM     16  N   UNL     1       7.343   5.239  14.231  0.00  0.00    +0.000 NA
ATOM     17  H   UNL     1       6.505   5.697  13.877  0.00  0.00    +0.000 HD
ATOM     18  H   UNL     1       7.231   4.232  14.090  0.00  0.00    +0.000 HD
ENDBRANCH   1  16
TORSDOF 1
ENDMDL
MODEL 2
REMARK VINA RESULT:      -6.7      1.395      2.258
REMARK  Name = 
REMARK  1 active torsions:
REMARK  status: ('A' for Active; 'I' for Inactive)
REMARK    1  A    between atoms: N_1  and  N_2
REMARK                            x       y       z     vdW  Elec       q    Type
REMARK                         _______ _______ _______ _____ _____    ______ ____
ROOT
ATOM      1  N   UNL     1       7.414   6.683  16.437  0.00  0.00    +0.000 N 
ATOM      2  C   UNL     1       6.375   5.955  16.937  0.00  0.00    +0.000 A 
ATOM      3  N   UNL     1       5.445   6.363  17.774  0.00  0.00    +0.000 NA
ATOM      4  C   UNL     1       4.528   5.354  18.018  0.00  0.00    +0.000 A 
ATOM      5  C   UNL     1       3.373   5.456  18.824  0.00  0.00    +0.000 A 
ATOM      6  C   UNL     1       2.536   4.345  18.974  0.00  0.00    +0.000 A 
ATOM      7  C   UNL     1       2.832   3.144  18.328  0.00  0.00    +0.000 A 
ATOM      8  C   UNL     1       3.982   3.011  17.549  0.00  0.00    +0.000 A 
ATOM      9  C   UNL     1       4.805   4.137  17.394  0.00  0.00    +0.000 A 
ATOM     10  S   UNL     1       6.233   4.302  16.456  0.00  0.00    +0.000 S 
ATOM     11  O   UNL     1       2.033   2.030  18.410  0.00  0.00    +0.000 OA
ATOM     12  C   UNL     1       0.719   2.369  18.870  0.00  0.00    +0.000 C 
ATOM     13  C   UNL     1       0.801   3.272  20.088  0.00  0.00    +0.000 C 
ATOM     14  O   UNL     1       1.423   4.519  19.760  0.00  0.00    +0.000 OA
ATOM     15  H   UNL     1       8.150   6.147  15.976  0.00  0.00    +0.000 HD
ENDROOT
BRANCH   1  16
ATOM     16  N   UNL     1       7.786   7.781  17.233  0.00  0.00    +0.000 NA
ATOM     17  H   UNL     1       7.714   7.569  18.227  0.00  0.00    +0.000 HD
ATOM     18  H   UNL     1       7.194   8.595  17.044  0.00  0.00    +0.000 HD
ENDBRANCH   1  16
TORSDOF 1
ENDMDL
MODEL 3
REMARK VINA RESULT:      -6.5      1.238      2.194
REMARK  Name = 
REMARK  1 active torsions:
REMARK  status: ('A' for Active; 'I' for Inactive)
REMARK    1  A    between atoms: N_1  and  N_2
REMARK                            x       y       z     vdW  Elec       q    Type
REMARK                         _______ _______ _______ _____ _____    ______ ____
ROOT
ATOM      1  N   UNL     1       7.092   6.233  16.008  0.00  0.00    +0.000 N 
ATOM      2  C   UNL     1       6.190   5.586  16.801  0.00  0.00    +0.000 A 
ATOM      3  N   UNL     1       5.678   6.009  17.937  0.00  0.00    +0.000 NA
ATOM      4  C   UNL     1       4.758   5.099  18.430  0.00  0.00    +0.000 A 
ATOM      5  C   UNL     1       3.981   5.251  19.599  0.00  0.00    +0.000 A 
ATOM      6  C   UNL     1       3.087   4.240  19.970  0.00  0.00    +0.000 A 
ATOM      7  C   UNL     1       2.955   3.092  19.190  0.00  0.00    +0.000 A 
ATOM      8  C   UNL     1       3.732   2.907  18.046  0.00  0.00    +0.000 A 
ATOM      9  C   UNL     1       4.613   3.934  17.676  0.00  0.00    +0.000 A 
ATOM     10  S   UNL     1       5.639   4.026  16.302  0.00  0.00    +0.000 S 
ATOM     11  O   UNL     1       2.072   2.082  19.483  0.00  0.00    +0.000 OA
ATOM     12  C   UNL     1       1.065   2.525  20.399  0.00  0.00    +0.000 C 
ATOM     13  C   UNL     1       1.698   3.270  21.562  0.00  0.00    +0.000 C 
ATOM     14  O   UNL     1       2.353   4.462  21.110  0.00  0.00    +0.000 OA
ATOM     15  H   UNL     1       7.533   5.665  15.284  0.00  0.00    +0.000 HD
ENDROOT
BRANCH   1  16
ATOM     16  N   UNL     1       7.878   7.182  16.685  0.00  0.00    +0.000 NA
ATOM     17  H   UNL     1       7.344   8.016  16.923  0.00  0.00    +0.000 HD
ATOM     18  H   UNL     1       8.678   7.476  16.118  0.00  0.00    +0.000 HD
ENDBRANCH   1  16
TORSDOF 1
ENDMDL
MODEL 4
REMARK VINA RESULT:      -6.4      3.890      4.944
REMARK  Name = 
REMARK  1 active torsions:
REMARK  status: ('A' for Active; 'I' for Inactive)
REMARK    1  A    between atoms: N_1  and  N_2
REMARK                            x       y       z     vdW  Elec       q    Type
REMARK                         _______ _______ _______ _____ _____    ______ ____
ROOT
ATOM      1  N   UNL     1       5.348   3.267  18.924  0.00  0.00    +0.000 N 
ATOM      2  C   UNL     1       4.607   4.408  18.817  0.00  0.00    +0.000 A 
ATOM      3  N   UNL     1       3.764   4.896  19.702  0.00  0.00    +0.000 NA
ATOM      4  C   UNL     1       3.234   6.098  19.263  0.00  0.00    +0.000 A 
ATOM      5  C   UNL     1       2.338   6.923  19.977  0.00  0.00    +0.000 A 
ATOM      6  C   UNL     1       1.888   8.115  19.400  0.00  0.00    +0.000 A 
ATOM      7  C   UNL     1       2.325   8.496  18.131  0.00  0.00    +0.000 A 
ATOM      8  C   UNL     1       3.188   7.683  17.395  0.00  0.00    +0.000 A 
ATOM      9  C   UNL     1       3.644   6.497  17.991  0.00  0.00    +0.000 A 
ATOM     10  S   UNL     1       4.749   5.340  17.370  0.00  0.00    +0.000 S 
ATOM     11  O   UNL     1       1.947   9.669  17.526  0.00  0.00    +0.000 OA
ATOM     12  C   UNL     1       1.416  10.595  18.481  0.00  0.00    +0.000 C 
ATOM     13  C   UNL     1       0.406   9.906  19.383  0.00  0.00    +0.000 C 
ATOM     14  O   UNL     1       1.031   8.876  20.158  0.00  0.00    +0.000 OA
ATOM     15  H   UNL     1       5.778   2.937  18.059  0.00  0.00    +0.000 HD
ENDROOT
BRANCH   1  16
ATOM     16  N   UNL     1       4.820   2.316  19.814  0.00  0.00    +0.000 NA
ATOM     17  H   UNL     1       4.873   2.632  20.781  0.00  0.00    +0.000 HD
ATOM     18  H   UNL     1       5.321   1.426  19.749  0.00  0.00    +0.000 HD
ENDBRANCH   1  16
TORSDOF 1
ENDMDL
MODEL 5
REMARK VINA RESULT:      -6.1      3.767      5.589
REMARK  Name = 
REMARK  1 active torsions:
REMARK  status: ('A' for Active; 'I' for Inactive)
REMARK    1  A    between atoms: N_1  and  N_2
REMARK                            x       y       z     vdW  Elec       q    Type
REMARK                         _______ _______ _______ _____ _____    ______ ____
ROOT
ATOM      1  N   UNL     1       1.398   3.691  21.272  0.00  0.00    +0.000 N 
ATOM      2  C   UNL     1       2.231   4.002  20.237  0.00  0.00    +0.000 A 
ATOM      3  N   UNL     1       2.982   3.174  19.542  0.00  0.00    +0.000 NA
ATOM      4  C   UNL     1       3.656   3.848  18.538  0.00  0.00    +0.000 A 
ATOM      5  C   UNL     1       4.508   3.269  17.573  0.00  0.00    +0.000 A 
ATOM      6  C   UNL     1       5.120   4.084  16.614  0.00  0.00    +0.000 A 
ATOM      7  C   UNL     1       4.887   5.459  16.602  0.00  0.00    +0.000 A 
ATOM      8  C   UNL     1       4.071   6.058  17.563  0.00  0.00    +0.000 A 
ATOM      9  C   UNL     1       3.451   5.228  18.510  0.00  0.00    +0.000 A 
ATOM     10  S   UNL     1       2.355   5.657  19.759  0.00  0.00    +0.000 S 
ATOM     11  O   UNL     1       5.431   6.306  15.668  0.00  0.00    +0.000 OA
ATOM     12  C   UNL     1       5.897   5.581  14.524  0.00  0.00    +0.000 C 
ATOM     13  C   UNL     1       6.723   4.382  14.956  0.00  0.00    +0.000 C 
ATOM     14  O   UNL     1       5.923   3.452  15.697  0.00  0.00    +0.000 OA
ATOM     15  H   UNL     1       1.063   4.482  21.823  0.00  0.00    +0.000 HD
ENDROOT
BRANCH   1  16
ATOM     16  N   UNL     1       1.729   2.501  21.942  0.00  0.00    +0.000 NA
ATOM     17  H   UNL     1       1.516   2.555  22.937  0.00  0.00    +0.000 HD
ATOM     18  H   UNL     1       2.725   2.285  21.848  0.00  0.00    +0.000 HD
ENDBRANCH   1  16
TORSDOF 1
ENDMDL
MODEL 6
REMARK VINA RESULT:      -6.1      3.930      5.902
REMARK  Name = 
REMARK  1 active torsions:
REMARK  status: ('A' for Active; 'I' for Inactive)
REMARK    1  A    between atoms: N_1  and  N_2
REMARK                            x       y       z     vdW  Elec       q    Type
REMARK                         _______ _______ _______ _____ _____    ______ ____
ROOT
ATOM      1  N   UNL     1       1.071   2.457  21.032  0.00  0.00    +0.000 N 
ATOM      2  C   UNL     1       1.971   2.909  20.111  0.00  0.00    +0.000 A 
ATOM      3  N   UNL     1       3.238   3.204  20.312  0.00  0.00    +0.000 NA
ATOM      4  C   UNL     1       3.846   3.586  19.128  0.00  0.00    +0.000 A 
ATOM      5  C   UNL     1       5.208   3.921  18.962  0.00  0.00    +0.000 A 
ATOM      6  C   UNL     1       5.679   4.287  17.697  0.00  0.00    +0.000 A 
ATOM      7  C   UNL     1       4.816   4.314  16.601  0.00  0.00    +0.000 A 
ATOM      8  C   UNL     1       3.461   4.014  16.746  0.00  0.00    +0.000 A 
ATOM      9  C   UNL     1       3.004   3.634  18.017  0.00  0.00    +0.000 A 
ATOM     10  S   UNL     1       1.426   3.148  18.489  0.00  0.00    +0.000 S 
ATOM     11  O   UNL     1       5.225   4.632  15.330  0.00  0.00    +0.000 OA
ATOM     12  C   UNL     1       6.648   4.524  15.202  0.00  0.00    +0.000 C 
ATOM     13  C   UNL     1       7.338   5.222  16.362  0.00  0.00    +0.000 C 
ATOM     14  O   UNL     1       7.017   4.586  17.605  0.00  0.00    +0.000 OA
ATOM     15  H   UNL     1       0.092   2.487  20.746  0.00  0.00    +0.000 HD
ENDROOT
BRANCH   1  16
ATOM     16  N   UNL     1       1.390   2.787  22.361  0.00  0.00    +0.000 NA
ATOM     17  H   UNL     1       2.393   2.912  22.490  0.00  0.00    +0.000 HD
ATOM     18  H   UNL     1       1.081   2.059  23.010  0.00  0.00    +0.000 HD
ENDBRANCH   1  16
TORSDOF 1
ENDMDL
MODEL 7
REMARK VINA RESULT:      -5.9      1.855      2.947
REMARK  Name = 
REMARK  1 active torsions:
REMARK  status: ('A' for Active; 'I' for Inactive)
REMARK    1  A    between atoms: N_1  and  N_2
REMARK                            x       y       z     vdW  Elec       q    Type
REMARK                         _______ _______ _______ _____ _____    ______ ____
ROOT
ATOM      1  N   UNL     1       7.882   5.346  13.034  0.00  0.00    +0.000 N 
ATOM      2  C   UNL     1       7.071   5.121  14.107  0.00  0.00    +0.000 A 
ATOM      3  N   UNL     1       7.045   5.789  15.241  0.00  0.00    +0.000 NA
ATOM      4  C   UNL     1       6.054   5.300  16.076  0.00  0.00    +0.000 A 
ATOM      5  C   UNL     1       5.710   5.810  17.347  0.00  0.00    +0.000 A 
ATOM      6  C   UNL     1       4.680   5.208  18.076  0.00  0.00    +0.000 A 
ATOM      7  C   UNL     1       3.988   4.115  17.553  0.00  0.00    +0.000 A 
ATOM      8  C   UNL     1       4.328   3.577  16.312  0.00  0.00    +0.000 A 
ATOM      9  C   UNL     1       5.353   4.200  15.583  0.00  0.00    +0.000 A 
ATOM     10  S   UNL     1       5.945   3.814  14.019  0.00  0.00    +0.000 S 
ATOM     11  O   UNL     1       2.946   3.503  18.205  0.00  0.00    +0.000 OA
ATOM     12  C   UNL     1       2.416   4.344  19.237  0.00  0.00    +0.000 C 
ATOM     13  C   UNL     1       3.540   4.917  20.082  0.00  0.00    +0.000 C 
ATOM     14  O   UNL     1       4.389   5.765  19.298  0.00  0.00    +0.000 OA
ATOM     15  H   UNL     1       7.909   4.602  12.336  0.00  0.00    +0.000 HD
ENDROOT
BRANCH   1  16
ATOM     16  N   UNL     1       9.078   6.016  13.344  0.00  0.00    +0.000 NA
ATOM     17  H   UNL     1       9.617   5.520  14.052  0.00  0.00    +0.000 HD
ATOM     18  H   UNL     1       8.896   6.960  13.696  0.00  0.00    +0.000 HD
ENDBRANCH   1  16
TORSDOF 1
ENDMDL
MODEL 8
REMARK VINA RESULT:      -5.8      4.071      5.203
REMARK  Name = 
REMARK  1 active torsions:
REMARK  status: ('A' for Active; 'I' for Inactive)
REMARK    1  A    between atoms: N_1  and  N_2
REMARK                            x       y       z     vdW  Elec       q    Type
REMARK                         _______ _______ _______ _____ _____    ______ ____
ROOT
ATOM      1  N   UNL     1       3.689   2.376  20.153  0.00  0.00    +0.000 N 
ATOM      2  C   UNL     1       3.303   3.670  19.960  0.00  0.00    +0.000 A 
ATOM      3  N   UNL     1       3.605   4.450  18.944  0.00  0.00    +0.000 NA
ATOM      4  C   UNL     1       2.991   5.685  19.073  0.00  0.00    +0.000 A 
ATOM      5  C   UNL     1       3.053   6.746  18.145  0.00  0.00    +0.000 A 
ATOM      6  C   UNL     1       2.375   7.939  18.414  0.00  0.00    +0.000 A 
ATOM      7  C   UNL     1       1.635   8.083  19.588  0.00  0.00    +0.000 A 
ATOM      8  C   UNL     1       1.582   7.058  20.533  0.00  0.00    +0.000 A 
ATOM      9  C   UNL     1       2.254   5.860  20.244  0.00  0.00    +0.000 A 
ATOM     10  S   UNL     1       2.317   4.415  21.168  0.00  0.00    +0.000 S 
ATOM     11  O   UNL     1       0.922   9.215  19.893  0.00  0.00    +0.000 OA
ATOM     12  C   UNL     1       0.703  10.018  18.728  0.00  0.00    +0.000 C 
ATOM     13  C   UNL     1       1.997  10.186  17.950  0.00  0.00    +0.000 C 
ATOM     14  O   UNL     1       2.466   8.924  17.461  0.00  0.00    +0.000 OA
ATOM     15  H   UNL     1       3.539   2.004  21.091  0.00  0.00    +0.000 HD
ENDROOT
BRANCH   1  16
ATOM     16  N   UNL     1       4.864   2.016  19.471  0.00  0.00    +0.000 NA
ATOM     17  H   UNL     1       5.610   2.694  19.620  0.00  0.00    +0.000 HD
ATOM     18  H   UNL     1       4.703   1.947  18.462  0.00  0.00    +0.000 HD
ENDBRANCH   1  16
TORSDOF 1
ENDMDL
MODEL 9
REMARK VINA RESULT:      -5.8      4.013      5.661
REMARK  Name = 
REMARK  1 active torsions:
REMARK  status: ('A' for Active; 'I' for Inactive)
REMARK    1  A    between atoms: N_1  and  N_2
REMARK                            x       y       z     vdW  Elec       q    Type
REMARK                         _______ _______ _______ _____ _____    ______ ____
ROOT
ATOM      1  N   UNL     1       1.469   7.371  21.060  0.00  0.00    +0.000 N 
ATOM      2  C   UNL     1       2.201   6.808  20.056  0.00  0.00    +0.000 A 
ATOM      3  N   UNL     1       2.798   7.427  19.061  0.00  0.00    +0.000 NA
ATOM      4  C   UNL     1       3.487   6.527  18.265  0.00  0.00    +0.000 A 
ATOM      5  C   UNL     1       4.281   6.846  17.142  0.00  0.00    +0.000 A 
ATOM      6  C   UNL     1       4.920   5.822  16.435  0.00  0.00    +0.000 A 
ATOM      7  C   UNL     1       4.784   4.493  16.838  0.00  0.00    +0.000 A 
ATOM      8  C   UNL     1       3.983   4.151  17.927  0.00  0.00    +0.000 A 
ATOM      9  C   UNL     1       3.359   5.189  18.637  0.00  0.00    +0.000 A 
ATOM     10  S   UNL     1       2.378   5.089  20.042  0.00  0.00    +0.000 S 
ATOM     11  O   UNL     1       5.413   3.449  16.206  0.00  0.00    +0.000 OA
ATOM     12  C   UNL     1       6.497   3.913  15.393  0.00  0.00    +0.000 C 
ATOM     13  C   UNL     1       6.055   5.091  14.542  0.00  0.00    +0.000 C 
ATOM     14  O   UNL     1       5.688   6.206  15.363  0.00  0.00    +0.000 OA
ATOM     15  H   UNL     1       0.908   6.724  21.615  0.00  0.00    +0.000 HD
ENDROOT
BRANCH   1  16
ATOM     16  N   UNL     1       0.922   8.627  20.742  0.00  0.00    +0.000 NA
ATOM     17  H   UNL     1       0.691   9.161  21.578  0.00  0.00    +0.000 HD
ATOM     18  H   UNL     1       0.067   8.531  20.187  0.00  0.00    +0.000 HD
ENDBRANCH   1  16
TORSDOF 1
ENDMDL
