MODEL 1
REMARK VINA RESULT:      -8.2      0.000      0.000
REMARK  Name = 
REMARK  11 active torsions:
REMARK  status: ('A' for Active; 'I' for Inactive)
REMARK    1  A    between atoms: C_1  and  C_2
REMARK    2  A    between atoms: C_2  and  C_3
REMARK    3  A    between atoms: C_3  and  C_4
REMARK    4  A    between atoms: C_4  and  C_5
REMARK    5  A    between atoms: C_5  and  N_6
REMARK    6  A    between atoms: C_9  and  N_10
REMARK    7  A    between atoms: N_10  and  S_11
REMARK    8  A    between atoms: S_11  and  C_14
REMARK    9  A    between atoms: C_18  and  C_19
REMARK   10  A    between atoms: N_21  and  C_22
REMARK   11  A    between atoms: C_26  and  C_27
REMARK                            x       y       z     vdW  Elec       q    Type
REMARK                         _______ _______ _______ _____ _____    ______ ____
ROOT
ATOM      1  C   UNL     1       5.607   5.964  17.696  0.00  0.00    +0.000 A 
ATOM      2  C   UNL     1       5.756   6.194  16.320  0.00  0.00    +0.000 A 
ATOM      3  C   UNL     1       4.845   7.010  15.658  0.00  0.00    +0.000 A 
ATOM      4  C   UNL     1       3.805   7.603  16.373  0.00  0.00    +0.000 A 
ATOM      5  C   UNL     1       3.658   7.381  17.754  0.00  0.00    +0.000 A 
ATOM      6  C   UNL     1       4.557   6.545  18.421  0.00  0.00    +0.000 A 
ENDROOT
BRANCH   5   7
ATOM      7  C   UNL     1       2.491   8.011  18.420  0.00  0.00    +0.000 C 
ATOM      8  O   UNL     1       2.105   7.496  19.465  0.00  0.00    +0.000 OA
ATOM      9  N   UNL     1       1.900   9.092  17.776  0.00  0.00    +0.000 N 
ATOM     10  H   UNL     1       2.191   9.297  16.828  0.00  0.00    +0.000 HD
BRANCH   9  11
ATOM     11  C   UNL     1       0.780   9.810  18.264  0.00  0.00    +0.000 A 
ATOM     12  C   UNL     1       0.858  10.697  19.343  0.00  0.00    +0.000 A 
ATOM     13  C   UNL     1      -0.269  11.356  19.822  0.00  0.00    +0.000 A 
ATOM     14  C   UNL     1      -1.505  11.141  19.225  0.00  0.00    +0.000 A 
ATOM     15  C   UNL     1      -1.619  10.273  18.131  0.00  0.00    +0.000 A 
ATOM     16  C   UNL     1      -0.465   9.622  17.645  0.00  0.00    +0.000 A 
BRANCH  15  17
ATOM     17  C   UNL     1      -2.965  10.022  17.499  0.00  0.00    +0.000 C 
ATOM     18  F   UNL     1      -3.822  11.079  17.602  0.00  0.00    +0.000 F 
ATOM     19  F   UNL     1      -2.876   9.746  16.169  0.00  0.00    +0.000 F 
ATOM     20  F   UNL     1      -3.615   8.965  18.059  0.00  0.00    +0.000 F 
ENDBRANCH  15  17
ENDBRANCH   9  11
ENDBRANCH   5   7
BRANCH   1  21
ATOM     21  S   UNL     1       6.809   4.942  18.527  0.00  0.00    +0.000 S 
ATOM     22  O   UNL     1       6.976   5.464  19.867  0.00  0.00    +0.000 OA
ATOM     23  O   UNL     1       7.915   4.814  17.603  0.00  0.00    +0.000 OA
BRANCH  21  24
ATOM     24  N   UNL     1       6.054   3.437  18.627  0.00  0.00    +0.000 NA
ATOM     25  H   UNL     1       6.302   2.825  17.851  0.00  0.00    +0.000 HD
BRANCH  24  29
ATOM     26  N   UNL     1       2.950   1.997  17.880  0.00  0.00    +0.000 NA
ATOM     27  C   UNL     1       3.792   1.164  18.756  0.00  0.00    +0.000 C 
ATOM     28  C   UNL     1       4.344   2.127  19.794  0.00  0.00    +0.000 C 
ATOM     29  C   UNL     1       4.614   3.394  18.984  0.00  0.00    +0.000 C 
ATOM     30  C   UNL     1       3.698   3.260  17.757  0.00  0.00    +0.000 C 
BRANCH  26  31
ATOM     31  C   UNL     1       1.603   2.161  18.453  0.00  0.00    +0.000 C 
BRANCH  31  32
ATOM     32  C   UNL     1       1.125   3.608  18.634  0.00  0.00    +0.000 C 
BRANCH  32  33
ATOM     33  C   UNL     1       0.786   3.983  20.077  0.00  0.00    +0.000 C 
BRANCH  33  35
ATOM     34  C   UNL     1       2.158   3.242  22.067  0.00  0.00    +0.000 C 
ATOM     35  C   UNL     1       1.143   2.828  21.016  0.00  0.00    +0.000 C 
ENDBRANCH  33  35
ENDBRANCH  32  33
ENDBRANCH  31  32
ENDBRANCH  26  31
ENDBRANCH  24  29
ENDBRANCH  21  24
ENDBRANCH   1  21
TORSDOF 10
ENDMDL
MODEL 2
REMARK VINA RESULT:      -8.1      3.081      5.226
REMARK  Name = 
REMARK  11 active torsions:
REMARK  status: ('A' for Active; 'I' for Inactive)
REMARK    1  A    between atoms: C_1  and  C_2
REMARK    2  A    between atoms: C_2  and  C_3
REMARK    3  A    between atoms: C_3  and  C_4
REMARK    4  A    between atoms: C_4  and  C_5
REMARK    5  A    between atoms: C_5  and  N_6
REMARK    6  A    between atoms: C_9  and  N_10
REMARK    7  A    between atoms: N_10  and  S_11
REMARK    8  A    between atoms: S_11  and  C_14
REMARK    9  A    between atoms: C_18  and  C_19
REMARK   10  A    between atoms: N_21  and  C_22
REMARK   11  A    between atoms: C_26  and  C_27
REMARK                            x       y       z     vdW  Elec       q    Type
REMARK                         _______ _______ _______ _____ _____    ______ ____
ROOT
ATOM      1  C   UNL     1       3.031   3.431  19.876  0.00  0.00    +0.000 A 
ATOM      2  C   UNL     1       1.918   2.622  20.148  0.00  0.00    +0.000 A 
ATOM      3  C   UNL     1       0.716   3.213  20.522  0.00  0.00    +0.000 A 
ATOM      4  C   UNL     1       0.628   4.603  20.605  0.00  0.00    +0.000 A 
ATOM      5  C   UNL     1       1.740   5.416  20.324  0.00  0.00    +0.000 A 
ATOM      6  C   UNL     1       2.957   4.828  19.969  0.00  0.00    +0.000 A 
ENDROOT
BRANCH   5   7
ATOM      7  C   UNL     1       1.567   6.881  20.490  0.00  0.00    +0.000 C 
ATOM      8  O   UNL     1       2.448   7.599  20.025  0.00  0.00    +0.000 OA
ATOM      9  N   UNL     1       0.457   7.311  21.207  0.00  0.00    +0.000 N 
ATOM     10  H   UNL     1      -0.087   6.615  21.703  0.00  0.00    +0.000 HD
BRANCH   9  11
ATOM     11  C   UNL     1       0.137   8.667  21.465  0.00  0.00    +0.000 A 
ATOM     12  C   UNL     1      -0.134   9.152  22.749  0.00  0.00    +0.000 A 
ATOM     13  C   UNL     1      -0.484  10.481  22.962  0.00  0.00    +0.000 A 
ATOM     14  C   UNL     1      -0.568  11.358  21.888  0.00  0.00    +0.000 A 
ATOM     15  C   UNL     1      -0.286  10.912  20.589  0.00  0.00    +0.000 A 
ATOM     16  C   UNL     1       0.082   9.565  20.388  0.00  0.00    +0.000 A 
BRANCH  15  17
ATOM     17  C   UNL     1      -0.400  11.860  19.421  0.00  0.00    +0.000 C 
ATOM     18  F   UNL     1      -1.649  12.387  19.266  0.00  0.00    +0.000 F 
ATOM     19  F   UNL     1       0.441  12.924  19.526  0.00  0.00    +0.000 F 
ATOM     20  F   UNL     1      -0.102  11.262  18.234  0.00  0.00    +0.000 F 
ENDBRANCH  15  17
ENDBRANCH   9  11
ENDBRANCH   5   7
BRANCH   1  21
ATOM     21  S   UNL     1       4.550   2.649  19.365  0.00  0.00    +0.000 S 
ATOM     22  O   UNL     1       4.241   1.772  18.255  0.00  0.00    +0.000 OA
ATOM     23  O   UNL     1       5.168   2.167  20.582  0.00  0.00    +0.000 OA
BRANCH  21  24
ATOM     24  N   UNL     1       5.487   3.929  18.792  0.00  0.00    +0.000 NA
ATOM     25  H   UNL     1       5.055   4.835  18.965  0.00  0.00    +0.000 HD
BRANCH  24  29
ATOM     26  N   UNL     1       5.979   5.513  15.706  0.00  0.00    +0.000 NA
ATOM     27  C   UNL     1       6.939   5.928  16.744  0.00  0.00    +0.000 C 
ATOM     28  C   UNL     1       7.380   4.633  17.406  0.00  0.00    +0.000 C 
ATOM     29  C   UNL     1       6.096   3.807  17.443  0.00  0.00    +0.000 C 
ATOM     30  C   UNL     1       5.222   4.416  16.336  0.00  0.00    +0.000 C 
BRANCH  26  31
ATOM     31  C   UNL     1       6.682   5.115  14.474  0.00  0.00    +0.000 C 
BRANCH  31  32
ATOM     32  C   UNL     1       6.241   3.782  13.854  0.00  0.00    +0.000 C 
BRANCH  32  33
ATOM     33  C   UNL     1       6.396   3.714  12.334  0.00  0.00    +0.000 C 
BRANCH  33  35
ATOM     34  C   UNL     1       4.146   3.240  11.287  0.00  0.00    +0.000 C 
ATOM     35  C   UNL     1       5.461   2.648  11.758  0.00  0.00    +0.000 C 
ENDBRANCH  33  35
ENDBRANCH  32  33
ENDBRANCH  31  32
ENDBRANCH  26  31
ENDBRANCH  24  29
ENDBRANCH  21  24
ENDBRANCH   1  21
TORSDOF 10
ENDMDL
MODEL 3
REMARK VINA RESULT:      -8.0      6.061      7.333
REMARK  Name = 
REMARK  11 active torsions:
REMARK  status: ('A' for Active; 'I' for Inactive)
REMARK    1  A    between atoms: C_1  and  C_2
REMARK    2  A    between atoms: C_2  and  C_3
REMARK    3  A    between atoms: C_3  and  C_4
REMARK    4  A    between atoms: C_4  and  C_5
REMARK    5  A    between atoms: C_5  and  N_6
REMARK    6  A    between atoms: C_9  and  N_10
REMARK    7  A    between atoms: N_10  and  S_11
REMARK    8  A    between atoms: S_11  and  C_14
REMARK    9  A    between atoms: C_18  and  C_19
REMARK   10  A    between atoms: N_21  and  C_22
REMARK   11  A    between atoms: C_26  and  C_27
REMARK                            x       y       z     vdW  Elec       q    Type
REMARK                         _______ _______ _______ _____ _____    ______ ____
ROOT
ATOM      1  C   UNL     1       7.239   5.827  17.063  0.00  0.00    +0.000 A 
ATOM      2  C   UNL     1       7.494   5.008  18.173  0.00  0.00    +0.000 A 
ATOM      3  C   UNL     1       8.055   5.560  19.319  0.00  0.00    +0.000 A 
ATOM      4  C   UNL     1       8.341   6.925  19.357  0.00  0.00    +0.000 A 
ATOM      5  C   UNL     1       8.078   7.750  18.250  0.00  0.00    +0.000 A 
ATOM      6  C   UNL     1       7.535   7.197  17.087  0.00  0.00    +0.000 A 
ENDROOT
BRANCH   5   7
ATOM      7  C   UNL     1       8.465   9.179  18.363  0.00  0.00    +0.000 C 
ATOM      8  O   UNL     1       8.048   9.936  17.491  0.00  0.00    +0.000 OA
ATOM      9  N   UNL     1       9.311   9.525  19.409  0.00  0.00    +0.000 N 
ATOM     10  H   UNL     1       9.739   8.778  19.942  0.00  0.00    +0.000 HD
BRANCH   9  11
ATOM     11  C   UNL     1       9.783  10.836  19.666  0.00  0.00    +0.000 A 
ATOM     12  C   UNL     1      10.941  11.356  19.077  0.00  0.00    +0.000 A 
ATOM     13  C   UNL     1      11.399  12.633  19.382  0.00  0.00    +0.000 A 
ATOM     14  C   UNL     1      10.700  13.423  20.287  0.00  0.00    +0.000 A 
ATOM     15  C   UNL     1       9.526  12.943  20.884  0.00  0.00    +0.000 A 
ATOM     16  C   UNL     1       9.064  11.651  20.554  0.00  0.00    +0.000 A 
BRANCH  15  17
ATOM     17  C   UNL     1       8.782  13.793  21.883  0.00  0.00    +0.000 C 
ATOM     18  F   UNL     1       7.429  13.615  21.851  0.00  0.00    +0.000 F 
ATOM     19  F   UNL     1       9.158  13.542  23.167  0.00  0.00    +0.000 F 
ATOM     20  F   UNL     1       8.983  15.125  21.686  0.00  0.00    +0.000 F 
ENDBRANCH  15  17
ENDBRANCH   9  11
ENDBRANCH   5   7
BRANCH   1  21
ATOM     21  S   UNL     1       6.487   5.100  15.619  0.00  0.00    +0.000 S 
ATOM     22  O   UNL     1       7.549   4.566  14.793  0.00  0.00    +0.000 OA
ATOM     23  O   UNL     1       5.549   6.088  15.130  0.00  0.00    +0.000 OA
BRANCH  21  24
ATOM     24  N   UNL     1       5.590   3.813  16.240  0.00  0.00    +0.000 NA
ATOM     25  H   UNL     1       5.411   3.092  15.542  0.00  0.00    +0.000 HD
BRANCH  24  29
ATOM     26  N   UNL     1       2.338   2.846  17.113  0.00  0.00    +0.000 NA
ATOM     27  C   UNL     1       3.389   2.089  17.816  0.00  0.00    +0.000 C 
ATOM     28  C   UNL     1       4.389   3.141  18.266  0.00  0.00    +0.000 C 
ATOM     29  C   UNL     1       4.415   4.121  17.094  0.00  0.00    +0.000 C 
ATOM     30  C   UNL     1       3.077   3.887  16.377  0.00  0.00    +0.000 C 
BRANCH  26  31
ATOM     31  C   UNL     1       1.354   3.383  18.068  0.00  0.00    +0.000 C 
BRANCH  31  32
ATOM     32  C   UNL     1       1.081   2.517  19.306  0.00  0.00    +0.000 C 
BRANCH  32  33
ATOM     33  C   UNL     1       0.718   3.311  20.560  0.00  0.00    +0.000 C 
BRANCH  33  35
ATOM     34  C   UNL     1       2.971   2.686  21.519  0.00  0.00    +0.000 C 
ATOM     35  C   UNL     1       1.476   2.758  21.769  0.00  0.00    +0.000 C 
ENDBRANCH  33  35
ENDBRANCH  32  33
ENDBRANCH  31  32
ENDBRANCH  26  31
ENDBRANCH  24  29
ENDBRANCH  21  24
ENDBRANCH   1  21
TORSDOF 10
ENDMDL
MODEL 4
REMARK VINA RESULT:      -7.9      3.616      5.694
REMARK  Name = 
REMARK  11 active torsions:
REMARK  status: ('A' for Active; 'I' for Inactive)
REMARK    1  A    between atoms: C_1  and  C_2
REMARK    2  A    between atoms: C_2  and  C_3
REMARK    3  A    between atoms: C_3  and  C_4
REMARK    4  A    between atoms: C_4  and  C_5
REMARK    5  A    between atoms: C_5  and  N_6
REMARK    6  A    between atoms: C_9  and  N_10
REMARK    7  A    between atoms: N_10  and  S_11
REMARK    8  A    between atoms: S_11  and  C_14
REMARK    9  A    between atoms: C_18  and  C_19
REMARK   10  A    between atoms: N_21  and  C_22
REMARK   11  A    between atoms: C_26  and  C_27
REMARK                            x       y       z     vdW  Elec       q    Type
REMARK                         _______ _______ _______ _____ _____    ______ ____
ROOT
ATOM      1  C   UNL     1       1.924   7.661  19.345  0.00  0.00    +0.000 A 
ATOM      2  C   UNL     1       2.087   8.258  18.086  0.00  0.00    +0.000 A 
ATOM      3  C   UNL     1       1.703   9.581  17.900  0.00  0.00    +0.000 A 
ATOM      4  C   UNL     1       1.176  10.303  18.971  0.00  0.00    +0.000 A 
ATOM      5  C   UNL     1       1.019   9.709  20.236  0.00  0.00    +0.000 A 
ATOM      6  C   UNL     1       1.383   8.373  20.424  0.00  0.00    +0.000 A 
ENDROOT
BRANCH   5   7
ATOM      7  C   UNL     1       0.401  10.538  21.301  0.00  0.00    +0.000 C 
ATOM      8  O   UNL     1       0.609  10.194  22.461  0.00  0.00    +0.000 OA
ATOM      9  N   UNL     1      -0.406  11.594  20.895  0.00  0.00    +0.000 N 
ATOM     10  H   UNL     1      -0.653  11.653  19.915  0.00  0.00    +0.000 HD
BRANCH   9  11
ATOM     11  C   UNL     1      -1.076  12.483  21.771  0.00  0.00    +0.000 A 
ATOM     12  C   UNL     1      -0.409  13.469  22.508  0.00  0.00    +0.000 A 
ATOM     13  C   UNL     1      -1.092  14.299  23.390  0.00  0.00    +0.000 A 
ATOM     14  C   UNL     1      -2.465  14.162  23.551  0.00  0.00    +0.000 A 
ATOM     15  C   UNL     1      -3.170  13.198  22.816  0.00  0.00    +0.000 A 
ATOM     16  C   UNL     1      -2.467  12.372  21.913  0.00  0.00    +0.000 A 
BRANCH  15  17
ATOM     17  C   UNL     1      -4.656  13.035  23.009  0.00  0.00    +0.000 C 
ATOM     18  F   UNL     1      -5.331  14.218  23.076  0.00  0.00    +0.000 F 
ATOM     19  F   UNL     1      -5.241  12.331  22.002  0.00  0.00    +0.000 F 
ATOM     20  F   UNL     1      -4.962  12.370  24.158  0.00  0.00    +0.000 F 
ENDBRANCH  15  17
ENDBRANCH   9  11
ENDBRANCH   5   7
BRANCH   1  21
ATOM     21  S   UNL     1       2.457   5.973  19.565  0.00  0.00    +0.000 S 
ATOM     22  O   UNL     1       1.989   5.213  18.426  0.00  0.00    +0.000 OA
ATOM     23  O   UNL     1       2.101   5.627  20.925  0.00  0.00    +0.000 OA
BRANCH  21  24
ATOM     24  N   UNL     1       4.139   6.072  19.491  0.00  0.00    +0.000 NA
ATOM     25  H   UNL     1       4.470   7.034  19.439  0.00  0.00    +0.000 HD
BRANCH  24  29
ATOM     26  N   UNL     1       6.560   5.816  16.971  0.00  0.00    +0.000 NA
ATOM     27  C   UNL     1       7.124   5.854  18.331  0.00  0.00    +0.000 C 
ATOM     28  C   UNL     1       6.260   4.898  19.138  0.00  0.00    +0.000 C 
ATOM     29  C   UNL     1       4.858   5.143  18.582  0.00  0.00    +0.000 C 
ATOM     30  C   UNL     1       5.104   5.742  17.188  0.00  0.00    +0.000 C 
BRANCH  26  31
ATOM     31  C   UNL     1       7.102   4.675  16.213  0.00  0.00    +0.000 C 
BRANCH  31  32
ATOM     32  C   UNL     1       7.013   4.784  14.685  0.00  0.00    +0.000 C 
BRANCH  32  33
ATOM     33  C   UNL     1       5.879   3.970  14.061  0.00  0.00    +0.000 C 
BRANCH  33  35
ATOM     34  C   UNL     1       5.001   3.175  11.829  0.00  0.00    +0.000 C 
ATOM     35  C   UNL     1       6.224   3.614  12.613  0.00  0.00    +0.000 C 
ENDBRANCH  33  35
ENDBRANCH  32  33
ENDBRANCH  31  32
ENDBRANCH  26  31
ENDBRANCH  24  29
ENDBRANCH  21  24
ENDBRANCH   1  21
TORSDOF 10
ENDMDL
MODEL 5
REMARK VINA RESULT:      -7.8      6.241      7.536
REMARK  Name = 
REMARK  11 active torsions:
REMARK  status: ('A' for Active; 'I' for Inactive)
REMARK    1  A    between atoms: C_1  and  C_2
REMARK    2  A    between atoms: C_2  and  C_3
REMARK    3  A    between atoms: C_3  and  C_4
REMARK    4  A    between atoms: C_4  and  C_5
REMARK    5  A    between atoms: C_5  and  N_6
REMARK    6  A    between atoms: C_9  and  N_10
REMARK    7  A    between atoms: N_10  and  S_11
REMARK    8  A    between atoms: S_11  and  C_14
REMARK    9  A    between atoms: C_18  and  C_19
REMARK   10  A    between atoms: N_21  and  C_22
REMARK   11  A    between atoms: C_26  and  C_27
REMARK                            x       y       z     vdW  Elec       q    Type
REMARK                         _______ _______ _______ _____ _____    ______ ____
ROOT
ATOM      1  C   UNL     1       7.338   6.004  17.014  0.00  0.00    +0.000 A 
ATOM      2  C   UNL     1       7.584   5.147  18.096  0.00  0.00    +0.000 A 
ATOM      3  C   UNL     1       8.133   5.659  19.267  0.00  0.00    +0.000 A 
ATOM      4  C   UNL     1       8.415   7.023  19.356  0.00  0.00    +0.000 A 
ATOM      5  C   UNL     1       8.161   7.886  18.275  0.00  0.00    +0.000 A 
ATOM      6  C   UNL     1       7.630   7.373  17.089  0.00  0.00    +0.000 A 
ENDROOT
BRANCH   5   7
ATOM      7  C   UNL     1       8.542   9.311  18.443  0.00  0.00    +0.000 C 
ATOM      8  O   UNL     1       8.101  10.103  17.615  0.00  0.00    +0.000 OA
ATOM      9  N   UNL     1       9.411   9.616  19.484  0.00  0.00    +0.000 N 
ATOM     10  H   UNL     1       9.855   8.849  19.973  0.00  0.00    +0.000 HD
BRANCH   9  11
ATOM     11  C   UNL     1       9.882  10.917  19.788  0.00  0.00    +0.000 A 
ATOM     12  C   UNL     1      10.949  11.517  19.110  0.00  0.00    +0.000 A 
ATOM     13  C   UNL     1      11.412  12.781  19.460  0.00  0.00    +0.000 A 
ATOM     14  C   UNL     1      10.810  13.476  20.502  0.00  0.00    +0.000 A 
ATOM     15  C   UNL     1       9.727  12.915  21.193  0.00  0.00    +0.000 A 
ATOM     16  C   UNL     1       9.257  11.638  20.817  0.00  0.00    +0.000 A 
BRANCH  15  17
ATOM     17  C   UNL     1       9.090  13.661  22.339  0.00  0.00    +0.000 C 
ATOM     18  F   UNL     1       9.788  14.768  22.724  0.00  0.00    +0.000 F 
ATOM     19  F   UNL     1       7.835  14.097  22.046  0.00  0.00    +0.000 F 
ATOM     20  F   UNL     1       8.970  12.893  23.457  0.00  0.00    +0.000 F 
ENDBRANCH  15  17
ENDBRANCH   9  11
ENDBRANCH   5   7
BRANCH   1  21
ATOM     21  S   UNL     1       6.602   5.327  15.537  0.00  0.00    +0.000 S 
ATOM     22  O   UNL     1       7.670   4.785  14.723  0.00  0.00    +0.000 OA
ATOM     23  O   UNL     1       5.700   6.348  15.049  0.00  0.00    +0.000 OA
BRANCH  21  24
ATOM     24  N   UNL     1       5.661   4.048  16.109  0.00  0.00    +0.000 NA
ATOM     25  H   UNL     1       5.815   3.189  15.584  0.00  0.00    +0.000 HD
BRANCH  24  29
ATOM     26  N   UNL     1       3.184   3.882  18.579  0.00  0.00    +0.000 NA
ATOM     27  C   UNL     1       4.031   5.084  18.672  0.00  0.00    +0.000 C 
ATOM     28  C   UNL     1       4.139   5.595  17.244  0.00  0.00    +0.000 C 
ATOM     29  C   UNL     1       4.234   4.311  16.422  0.00  0.00    +0.000 C 
ATOM     30  C   UNL     1       3.613   3.235  17.327  0.00  0.00    +0.000 C 
BRANCH  26  31
ATOM     31  C   UNL     1       1.757   4.248  18.596  0.00  0.00    +0.000 C 
BRANCH  31  32
ATOM     32  C   UNL     1       0.768   3.080  18.711  0.00  0.00    +0.000 C 
BRANCH  32  33
ATOM     33  C   UNL     1       1.099   2.083  19.821  0.00  0.00    +0.000 C 
BRANCH  33  35
ATOM     34  C   UNL     1       2.419   2.846  21.837  0.00  0.00    +0.000 C 
ATOM     35  C   UNL     1       1.051   2.780  21.183  0.00  0.00    +0.000 C 
ENDBRANCH  33  35
ENDBRANCH  32  33
ENDBRANCH  31  32
ENDBRANCH  26  31
ENDBRANCH  24  29
ENDBRANCH  21  24
ENDBRANCH   1  21
TORSDOF 10
ENDMDL
MODEL 6
REMARK VINA RESULT:      -7.8      3.671      5.727
REMARK  Name = 
REMARK  11 active torsions:
REMARK  status: ('A' for Active; 'I' for Inactive)
REMARK    1  A    between atoms: C_1  and  C_2
REMARK    2  A    between atoms: C_2  and  C_3
REMARK    3  A    between atoms: C_3  and  C_4
REMARK    4  A    between atoms: C_4  and  C_5
REMARK    5  A    between atoms: C_5  and  N_6
REMARK    6  A    between atoms: C_9  and  N_10
REMARK    7  A    between atoms: N_10  and  S_11
REMARK    8  A    between atoms: S_11  and  C_14
REMARK    9  A    between atoms: C_18  and  C_19
REMARK   10  A    between atoms: N_21  and  C_22
REMARK   11  A    between atoms: C_26  and  C_27
REMARK                            x       y       z     vdW  Elec       q    Type
REMARK                         _______ _______ _______ _____ _____    ______ ____
ROOT
ATOM      1  C   UNL     1       2.620   4.673  18.820  0.00  0.00    +0.000 A 
ATOM      2  C   UNL     1       2.515   4.479  20.205  0.00  0.00    +0.000 A 
ATOM      3  C   UNL     1       2.157   5.545  21.022  0.00  0.00    +0.000 A 
ATOM      4  C   UNL     1       1.890   6.790  20.452  0.00  0.00    +0.000 A 
ATOM      5  C   UNL     1       1.987   6.985  19.063  0.00  0.00    +0.000 A 
ATOM      6  C   UNL     1       2.367   5.923  18.239  0.00  0.00    +0.000 A 
ENDROOT
BRANCH   5   7
ATOM      7  C   UNL     1       1.737   8.357  18.553  0.00  0.00    +0.000 C 
ATOM      8  O   UNL     1       2.179   8.623  17.439  0.00  0.00    +0.000 OA
ATOM      9  N   UNL     1       1.077   9.238  19.400  0.00  0.00    +0.000 N 
ATOM     10  H   UNL     1       0.938   8.957  20.363  0.00  0.00    +0.000 HD
BRANCH   9  11
ATOM     11  C   UNL     1       0.759  10.581  19.081  0.00  0.00    +0.000 A 
ATOM     12  C   UNL     1      -0.540  11.001  18.768  0.00  0.00    +0.000 A 
ATOM     13  C   UNL     1      -0.811  12.319  18.421  0.00  0.00    +0.000 A 
ATOM     14  C   UNL     1       0.217  13.252  18.382  0.00  0.00    +0.000 A 
ATOM     15  C   UNL     1       1.528  12.874  18.706  0.00  0.00    +0.000 A 
ATOM     16  C   UNL     1       1.787  11.536  19.071  0.00  0.00    +0.000 A 
BRANCH  15  17
ATOM     17  C   UNL     1       2.647  13.883  18.640  0.00  0.00    +0.000 C 
ATOM     18  F   UNL     1       3.720  13.460  17.911  0.00  0.00    +0.000 F 
ATOM     19  F   UNL     1       2.258  15.060  18.078  0.00  0.00    +0.000 F 
ATOM     20  F   UNL     1       3.137  14.198  19.871  0.00  0.00    +0.000 F 
ENDBRANCH  15  17
ENDBRANCH   9  11
ENDBRANCH   5   7
BRANCH   1  21
ATOM     21  S   UNL     1       3.047   3.279  17.792  0.00  0.00    +0.000 S 
ATOM     22  O   UNL     1       2.203   3.326  16.616  0.00  0.00    +0.000 OA
ATOM     23  O   UNL     1       3.074   2.136  18.678  0.00  0.00    +0.000 OA
BRANCH  21  24
ATOM     24  N   UNL     1       4.636   3.597  17.325  0.00  0.00    +0.000 NA
ATOM     25  H   UNL     1       5.308   2.989  17.791  0.00  0.00    +0.000 HD
BRANCH  24  29
ATOM     26  N   UNL     1       7.397   5.749  17.173  0.00  0.00    +0.000 NA
ATOM     27  C   UNL     1       7.024   5.172  15.869  0.00  0.00    +0.000 C 
ATOM     28  C   UNL     1       5.511   5.306  15.803  0.00  0.00    +0.000 C 
ATOM     29  C   UNL     1       5.074   5.013  17.237  0.00  0.00    +0.000 C 
ATOM     30  C   UNL     1       6.324   5.306  18.081  0.00  0.00    +0.000 C 
BRANCH  26  31
ATOM     31  C   UNL     1       7.523   7.213  17.078  0.00  0.00    +0.000 C 
BRANCH  31  32
ATOM     32  C   UNL     1       8.221   7.902  18.259  0.00  0.00    +0.000 C 
BRANCH  32  33
ATOM     33  C   UNL     1       8.426   9.406  18.077  0.00  0.00    +0.000 C 
BRANCH  33  35
ATOM     34  C   UNL     1       9.489  11.455  19.108  0.00  0.00    +0.000 C 
ATOM     35  C   UNL     1       9.140   9.990  19.299  0.00  0.00    +0.000 C 
ENDBRANCH  33  35
ENDBRANCH  32  33
ENDBRANCH  31  32
ENDBRANCH  26  31
ENDBRANCH  24  29
ENDBRANCH  21  24
ENDBRANCH   1  21
TORSDOF 10
ENDMDL
MODEL 7
REMARK VINA RESULT:      -7.7      3.574      5.508
REMARK  Name = 
REMARK  11 active torsions:
REMARK  status: ('A' for Active; 'I' for Inactive)
REMARK    1  A    between atoms: C_1  and  C_2
REMARK    2  A    between atoms: C_2  and  C_3
REMARK    3  A    between atoms: C_3  and  C_4
REMARK    4  A    between atoms: C_4  and  C_5
REMARK    5  A    between atoms: C_5  and  N_6
REMARK    6  A    between atoms: C_9  and  N_10
REMARK    7  A    between atoms: N_10  and  S_11
REMARK    8  A    between atoms: S_11  and  C_14
REMARK    9  A    between atoms: C_18  and  C_19
REMARK   10  A    between atoms: N_21  and  C_22
REMARK   11  A    between atoms: C_26  and  C_27
REMARK                            x       y       z     vdW  Elec       q    Type
REMARK                         _______ _______ _______ _____ _____    ______ ____
ROOT
ATOM      1  C   UNL     1       3.713   4.824  19.683  0.00  0.00    +0.000 A 
ATOM      2  C   UNL     1       2.884   3.800  20.162  0.00  0.00    +0.000 A 
ATOM      3  C   UNL     1       1.631   4.115  20.677  0.00  0.00    +0.000 A 
ATOM      4  C   UNL     1       1.209   5.445  20.695  0.00  0.00    +0.000 A 
ATOM      5  C   UNL     1       2.035   6.472  20.206  0.00  0.00    +0.000 A 
ATOM      6  C   UNL     1       3.303   6.164  19.707  0.00  0.00    +0.000 A 
ENDROOT
BRANCH   5   7
ATOM      7  C   UNL     1       1.523   7.862  20.314  0.00  0.00    +0.000 C 
ATOM      8  O   UNL     1       1.698   8.593  19.344  0.00  0.00    +0.000 OA
ATOM      9  N   UNL     1       0.944   8.232  21.522  0.00  0.00    +0.000 N 
ATOM     10  H   UNL     1       1.035   7.598  22.307  0.00  0.00    +0.000 HD
BRANCH   9  11
ATOM     11  C   UNL     1       0.407   9.512  21.802  0.00  0.00    +0.000 A 
ATOM     12  C   UNL     1      -0.556   9.732  22.794  0.00  0.00    +0.000 A 
ATOM     13  C   UNL     1      -1.092  10.996  23.016  0.00  0.00    +0.000 A 
ATOM     14  C   UNL     1      -0.669  12.074  22.249  0.00  0.00    +0.000 A 
ATOM     15  C   UNL     1       0.308  11.896  21.258  0.00  0.00    +0.000 A 
ATOM     16  C   UNL     1       0.854  10.611  21.053  0.00  0.00    +0.000 A 
BRANCH  15  17
ATOM     17  C   UNL     1       0.748  13.062  20.410  0.00  0.00    +0.000 C 
ATOM     18  F   UNL     1       2.102  13.160  20.278  0.00  0.00    +0.000 F 
ATOM     19  F   UNL     1       0.255  13.004  19.143  0.00  0.00    +0.000 F 
ATOM     20  F   UNL     1       0.339  14.259  20.917  0.00  0.00    +0.000 F 
ENDBRANCH  15  17
ENDBRANCH   9  11
ENDBRANCH   5   7
BRANCH   1  21
ATOM     21  S   UNL     1       5.300   4.387  18.996  0.00  0.00    +0.000 S 
ATOM     22  O   UNL     1       5.386   2.942  18.973  0.00  0.00    +0.000 OA
ATOM     23  O   UNL     1       6.266   5.208  19.694  0.00  0.00    +0.000 OA
BRANCH  21  24
ATOM     24  N   UNL     1       5.216   4.945  17.406  0.00  0.00    +0.000 NA
ATOM     25  H   UNL     1       4.340   5.428  17.209  0.00  0.00    +0.000 HD
BRANCH  24  29
ATOM     26  N   UNL     1       5.972   4.700  13.994  0.00  0.00    +0.000 NA
ATOM     27  C   UNL     1       7.087   5.209  14.812  0.00  0.00    +0.000 C 
ATOM     28  C   UNL     1       7.130   4.293  16.023  0.00  0.00    +0.000 C 
ATOM     29  C   UNL     1       5.653   4.035  16.317  0.00  0.00    +0.000 C 
ATOM     30  C   UNL     1       4.947   4.318  14.982  0.00  0.00    +0.000 C 
BRANCH  26  31
ATOM     31  C   UNL     1       6.417   3.584  13.142  0.00  0.00    +0.000 C 
BRANCH  31  32
ATOM     32  C   UNL     1       5.339   2.950  12.252  0.00  0.00    +0.000 C 
BRANCH  32  33
ATOM     33  C   UNL     1       4.503   3.958  11.463  0.00  0.00    +0.000 C 
BRANCH  33  35
ATOM     34  C   UNL     1       2.873   4.110   9.538  0.00  0.00    +0.000 C 
ATOM     35  C   UNL     1       3.447   3.227  10.631  0.00  0.00    +0.000 C 
ENDBRANCH  33  35
ENDBRANCH  32  33
ENDBRANCH  31  32
ENDBRANCH  26  31
ENDBRANCH  24  29
ENDBRANCH  21  24
ENDBRANCH   1  21
TORSDOF 10
ENDMDL
MODEL 8
REMARK VINA RESULT:      -7.4      4.729      9.334
REMARK  Name = 
REMARK  11 active torsions:
REMARK  status: ('A' for Active; 'I' for Inactive)
REMARK    1  A    between atoms: C_1  and  C_2
REMARK    2  A    between atoms: C_2  and  C_3
REMARK    3  A    between atoms: C_3  and  C_4
REMARK    4  A    between atoms: C_4  and  C_5
REMARK    5  A    between atoms: C_5  and  N_6
REMARK    6  A    between atoms: C_9  and  N_10
REMARK    7  A    between atoms: N_10  and  S_11
REMARK    8  A    between atoms: S_11  and  C_14
REMARK    9  A    between atoms: C_18  and  C_19
REMARK   10  A    between atoms: N_21  and  C_22
REMARK   11  A    between atoms: C_26  and  C_27
REMARK                            x       y       z     vdW  Elec       q    Type
REMARK                         _______ _______ _______ _____ _____    ______ ____
ROOT
ATOM      1  C   UNL     1       0.819  10.419  20.669  0.00  0.00    +0.000 A 
ATOM      2  C   UNL     1      -0.005  10.275  21.795  0.00  0.00    +0.000 A 
ATOM      3  C   UNL     1      -0.196   9.014  22.349  0.00  0.00    +0.000 A 
ATOM      4  C   UNL     1       0.446   7.910  21.787  0.00  0.00    +0.000 A 
ATOM      5  C   UNL     1       1.279   8.053  20.664  0.00  0.00    +0.000 A 
ATOM      6  C   UNL     1       1.459   9.314  20.089  0.00  0.00    +0.000 A 
ENDROOT
BRANCH   5   7
ATOM      7  C   UNL     1       1.878   6.816  20.103  0.00  0.00    +0.000 C 
ATOM      8  O   UNL     1       1.797   5.801  20.789  0.00  0.00    +0.000 OA
ATOM      9  N   UNL     1       2.529   6.925  18.880  0.00  0.00    +0.000 N 
ATOM     10  H   UNL     1       2.695   7.853  18.511  0.00  0.00    +0.000 HD
BRANCH   9  11
ATOM     11  C   UNL     1       3.158   5.852  18.201  0.00  0.00    +0.000 A 
ATOM     12  C   UNL     1       2.471   4.703  17.794  0.00  0.00    +0.000 A 
ATOM     13  C   UNL     1       3.127   3.651  17.165  0.00  0.00    +0.000 A 
ATOM     14  C   UNL     1       4.493   3.729  16.925  0.00  0.00    +0.000 A 
ATOM     15  C   UNL     1       5.212   4.872  17.301  0.00  0.00    +0.000 A 
ATOM     16  C   UNL     1       4.531   5.939  17.926  0.00  0.00    +0.000 A 
BRANCH  15  17
ATOM     17  C   UNL     1       6.699   4.946  17.061  0.00  0.00    +0.000 C 
ATOM     18  F   UNL     1       7.102   4.297  15.931  0.00  0.00    +0.000 F 
ATOM     19  F   UNL     1       7.146   6.225  16.933  0.00  0.00    +0.000 F 
ATOM     20  F   UNL     1       7.419   4.396  18.079  0.00  0.00    +0.000 F 
ENDBRANCH  15  17
ENDBRANCH   9  11
ENDBRANCH   5   7
BRANCH   1  21
ATOM     21  S   UNL     1       1.075  12.052  20.000  0.00  0.00    +0.000 S 
ATOM     22  O   UNL     1       1.945  11.925  18.851  0.00  0.00    +0.000 OA
ATOM     23  O   UNL     1       1.408  12.888  21.134  0.00  0.00    +0.000 OA
BRANCH  21  24
ATOM     24  N   UNL     1      -0.458  12.511  19.464  0.00  0.00    +0.000 NA
ATOM     25  H   UNL     1      -0.791  13.359  19.920  0.00  0.00    +0.000 HD
BRANCH  24  29
ATOM     26  N   UNL     1      -3.504  11.664  17.957  0.00  0.00    +0.000 NA
ATOM     27  C   UNL     1      -2.334  11.445  17.089  0.00  0.00    +0.000 C 
ATOM     28  C   UNL     1      -1.312  10.759  17.980  0.00  0.00    +0.000 C 
ATOM     29  C   UNL     1      -1.498  11.460  19.325  0.00  0.00    +0.000 C 
ATOM     30  C   UNL     1      -2.922  12.034  19.259  0.00  0.00    +0.000 C 
BRANCH  26  31
ATOM     31  C   UNL     1      -4.349  10.458  18.008  0.00  0.00    +0.000 C 
BRANCH  31  32
ATOM     32  C   UNL     1      -5.809  10.681  18.427  0.00  0.00    +0.000 C 
BRANCH  32  33
ATOM     33  C   UNL     1      -6.470  11.897  17.778  0.00  0.00    +0.000 C 
BRANCH  33  35
ATOM     34  C   UNL     1      -7.370  11.973  20.139  0.00  0.00    +0.000 C 
ATOM     35  C   UNL     1      -7.527  12.482  18.718  0.00  0.00    +0.000 C 
ENDBRANCH  33  35
ENDBRANCH  32  33
ENDBRANCH  31  32
ENDBRANCH  26  31
ENDBRANCH  24  29
ENDBRANCH  21  24
ENDBRANCH   1  21
TORSDOF 10
ENDMDL
MODEL 9
REMARK VINA RESULT:      -7.3      5.397     10.009
REMARK  Name = 
REMARK  11 active torsions:
REMARK  status: ('A' for Active; 'I' for Inactive)
REMARK    1  A    between atoms: C_1  and  C_2
REMARK    2  A    between atoms: C_2  and  C_3
REMARK    3  A    between atoms: C_3  and  C_4
REMARK    4  A    between atoms: C_4  and  C_5
REMARK    5  A    between atoms: C_5  and  N_6
REMARK    6  A    between atoms: C_9  and  N_10
REMARK    7  A    between atoms: N_10  and  S_11
REMARK    8  A    between atoms: S_11  and  C_14
REMARK    9  A    between atoms: C_18  and  C_19
REMARK   10  A    between atoms: N_21  and  C_22
REMARK   11  A    between atoms: C_26  and  C_27
REMARK                            x       y       z     vdW  Elec       q    Type
REMARK                         _______ _______ _______ _____ _____    ______ ____
ROOT
ATOM      1  C   UNL     1       0.350   9.830  20.601  0.00  0.00    +0.000 A 
ATOM      2  C   UNL     1      -0.552  10.496  19.758  0.00  0.00    +0.000 A 
ATOM      3  C   UNL     1      -0.466  10.315  18.381  0.00  0.00    +0.000 A 
ATOM      4  C   UNL     1       0.504   9.460  17.858  0.00  0.00    +0.000 A 
ATOM      5  C   UNL     1       1.403   8.784  18.702  0.00  0.00    +0.000 A 
ATOM      6  C   UNL     1       1.336   8.979  20.084  0.00  0.00    +0.000 A 
ENDROOT
BRANCH   5   7
ATOM      7  C   UNL     1       2.434   7.937  18.052  0.00  0.00    +0.000 C 
ATOM      8  O   UNL     1       2.962   8.386  17.039  0.00  0.00    +0.000 OA
ATOM      9  N   UNL     1       2.672   6.687  18.612  0.00  0.00    +0.000 N 
ATOM     10  H   UNL     1       2.036   6.358  19.327  0.00  0.00    +0.000 HD
BRANCH   9  11
ATOM     11  C   UNL     1       3.615   5.749  18.124  0.00  0.00    +0.000 A 
ATOM     12  C   UNL     1       3.245   4.583  17.445  0.00  0.00    +0.000 A 
ATOM     13  C   UNL     1       4.195   3.663  17.013  0.00  0.00    +0.000 A 
ATOM     14  C   UNL     1       5.543   3.895  17.252  0.00  0.00    +0.000 A 
ATOM     15  C   UNL     1       5.954   5.061  17.913  0.00  0.00    +0.000 A 
ATOM     16  C   UNL     1       4.981   5.993  18.332  0.00  0.00    +0.000 A 
BRANCH  15  17
ATOM     17  C   UNL     1       7.417   5.300  18.192  0.00  0.00    +0.000 C 
ATOM     18  F   UNL     1       8.226   4.288  17.765  0.00  0.00    +0.000 F 
ATOM     19  F   UNL     1       7.887   6.428  17.593  0.00  0.00    +0.000 F 
ATOM     20  F   UNL     1       7.677   5.444  19.521  0.00  0.00    +0.000 F 
ENDBRANCH  15  17
ENDBRANCH   9  11
ENDBRANCH   5   7
BRANCH   1  21
ATOM     21  S   UNL     1       0.195  10.053  22.363  0.00  0.00    +0.000 S 
ATOM     22  O   UNL     1       1.462   9.693  22.964  0.00  0.00    +0.000 OA
ATOM     23  O   UNL     1      -1.046   9.406  22.730  0.00  0.00    +0.000 OA
BRANCH  21  24
ATOM     24  N   UNL     1      -0.029  11.716  22.539  0.00  0.00    +0.000 NA
ATOM     25  H   UNL     1       0.736  12.159  23.046  0.00  0.00    +0.000 HD
BRANCH  24  29
ATOM     26  N   UNL     1      -2.107  14.526  22.780  0.00  0.00    +0.000 NA
ATOM     27  C   UNL     1      -2.080  13.924  21.435  0.00  0.00    +0.000 C 
ATOM     28  C   UNL     1      -2.207  12.429  21.676  0.00  0.00    +0.000 C 
ATOM     29  C   UNL     1      -1.372  12.207  22.936  0.00  0.00    +0.000 C 
ATOM     30  C   UNL     1      -1.329  13.588  23.609  0.00  0.00    +0.000 C 
BRANCH  26  31
ATOM     31  C   UNL     1      -3.493  14.712  23.240  0.00  0.00    +0.000 C 
BRANCH  31  32
ATOM     32  C   UNL     1      -3.870  13.986  24.539  0.00  0.00    +0.000 C 
BRANCH  32  33
ATOM     33  C   UNL     1      -4.782  12.775  24.341  0.00  0.00    +0.000 C 
BRANCH  33  35
ATOM     34  C   UNL     1      -7.280  12.721  23.964  0.00  0.00    +0.000 C 
ATOM     35  C   UNL     1      -5.933  13.133  23.399  0.00  0.00    +0.000 C 
ENDBRANCH  33  35
ENDBRANCH  32  33
ENDBRANCH  31  32
ENDBRANCH  26  31
ENDBRANCH  24  29
ENDBRANCH  21  24
ENDBRANCH   1  21
TORSDOF 10
ENDMDL
