MODEL 1
REMARK VINA RESULT:      -8.3      0.000      0.000
REMARK  Name = 
REMARK  12 active torsions:
REMARK  status: ('A' for Active; 'I' for Inactive)
REMARK    1  A    between atoms: C_1  and  O_2
REMARK    2  A    between atoms: O_2  and  C_3
REMARK    3  A    between atoms: C_7  and  C_8
REMARK    4  A    between atoms: N_10  and  C_11
REMARK    5  A    between atoms: C_11  and  C_12
REMARK    6  A    between atoms: C_12  and  C_13
REMARK    7  A    between atoms: N_16  and  C_17
REMARK    8  A    between atoms: C_17  and  C_18
REMARK    9  A    between atoms: C_27  and  O_28
REMARK   10  A    between atoms: O_28  and  C_29
REMARK   11  A    between atoms: C_32  and  O_33
REMARK   12  A    between atoms: O_33  and  C_34
REMARK                            x       y       z     vdW  Elec       q    Type
REMARK                         _______ _______ _______ _____ _____    ______ ____
ROOT
ATOM      1  C   UNL     1       8.405   8.780  18.101  0.00  0.00    +0.000 C 
ATOM      2  O   UNL     1       7.876   8.827  16.994  0.00  0.00    +0.000 OA
ATOM      3  N   UNL     1       8.484   7.621  18.849  0.00  0.00    +0.000 N 
ATOM      4  H   UNL     1       8.858   7.702  19.790  0.00  0.00    +0.000 HD
ENDROOT
BRANCH   1   9
ATOM      5  C   UNL     1      11.292  14.147  18.035  0.00  0.00    +0.000 A 
ATOM      6  C   UNL     1      10.792  12.906  17.597  0.00  0.00    +0.000 A 
ATOM      7  C   UNL     1      10.172  11.993  18.445  0.00  0.00    +0.000 A 
ATOM      8  N   UNL     1       9.653  10.883  17.883  0.00  0.00    +0.000 NA
ATOM      9  C   UNL     1       9.014  10.010  18.702  0.00  0.00    +0.000 A 
ATOM     10  C   UNL     1       8.882  10.199  20.061  0.00  0.00    +0.000 A 
ATOM     11  C   UNL     1       9.428  11.336  20.650  0.00  0.00    +0.000 A 
ATOM     12  C   UNL     1      10.097  12.283  19.832  0.00  0.00    +0.000 A 
ATOM     13  C   UNL     1      10.688  13.495  20.260  0.00  0.00    +0.000 A 
ATOM     14  C   UNL     1      11.275  14.427  19.395  0.00  0.00    +0.000 A 
BRANCH   5  16
ATOM     15  C   UNL     1      10.893  16.075  16.722  0.00  0.00    +0.000 C 
ATOM     16  O   UNL     1      11.805  15.069  17.164  0.00  0.00    +0.000 OA
ENDBRANCH   5  16
BRANCH  11  17
ATOM     17  O   UNL     1       9.172  11.329  21.994  0.00  0.00    +0.000 OA
ATOM     18  C   UNL     1       8.003  11.894  22.549  0.00  0.00    +0.000 C 
ENDBRANCH  11  17
BRANCH  14  19
ATOM     19  O   UNL     1      11.729  15.513  20.086  0.00  0.00    +0.000 OA
ATOM     20  C   UNL     1      11.065  15.947  21.257  0.00  0.00    +0.000 C 
ENDBRANCH  14  19
ENDBRANCH   1   9
BRANCH   3  21
ATOM     21  C   UNL     1       7.866   6.386  18.392  0.00  0.00    +0.000 C 
BRANCH  21  22
ATOM     22  C   UNL     1       6.340   6.396  18.583  0.00  0.00    +0.000 C 
BRANCH  22  23
ATOM     23  C   UNL     1       5.521   6.541  17.280  0.00  0.00    +0.000 C 
ATOM     24  C   UNL     1       4.013   6.559  17.582  0.00  0.00    +0.000 C 
ATOM     25  C   UNL     1       3.479   5.181  17.993  0.00  0.00    +0.000 C 
ATOM     26  N   UNL     1       3.787   4.119  17.015  0.00  0.00    +0.000 NA
ATOM     27  C   UNL     1       5.225   4.074  16.699  0.00  0.00    +0.000 C 
ATOM     28  C   UNL     1       5.763   5.434  16.245  0.00  0.00    +0.000 C 
BRANCH  26  29
ATOM     29  C   UNL     1       3.327   2.825  17.572  0.00  0.00    +0.000 C 
BRANCH  29  30
ATOM     30  C   UNL     1       2.665   2.896  18.933  0.00  0.00    +0.000 A 
ATOM     31  C   UNL     1       1.288   3.156  19.033  0.00  0.00    +0.000 A 
ATOM     32  C   UNL     1       0.656   3.173  20.278  0.00  0.00    +0.000 A 
ATOM     33  C   UNL     1       1.391   2.929  21.435  0.00  0.00    +0.000 A 
ATOM     34  C   UNL     1       2.760   2.680  21.350  0.00  0.00    +0.000 A 
ATOM     35  C   UNL     1       3.395   2.665  20.105  0.00  0.00    +0.000 A 
ENDBRANCH  29  30
ENDBRANCH  26  29
ENDBRANCH  22  23
ENDBRANCH  21  22
ENDBRANCH   3  21
TORSDOF 9
ENDMDL
MODEL 2
REMARK VINA RESULT:      -8.0      5.556     10.222
REMARK  Name = 
REMARK  12 active torsions:
REMARK  status: ('A' for Active; 'I' for Inactive)
REMARK    1  A    between atoms: C_1  and  O_2
REMARK    2  A    between atoms: O_2  and  C_3
REMARK    3  A    between atoms: C_7  and  C_8
REMARK    4  A    between atoms: N_10  and  C_11
REMARK    5  A    between atoms: C_11  and  C_12
REMARK    6  A    between atoms: C_12  and  C_13
REMARK    7  A    between atoms: N_16  and  C_17
REMARK    8  A    between atoms: C_17  and  C_18
REMARK    9  A    between atoms: C_27  and  O_28
REMARK   10  A    between atoms: O_28  and  C_29
REMARK   11  A    between atoms: C_32  and  O_33
REMARK   12  A    between atoms: O_33  and  C_34
REMARK                            x       y       z     vdW  Elec       q    Type
REMARK                         _______ _______ _______ _____ _____    ______ ____
ROOT
ATOM      1  C   UNL     1       1.786   6.202  20.346  0.00  0.00    +0.000 C 
ATOM      2  O   UNL     1       1.110   5.400  20.985  0.00  0.00    +0.000 OA
ATOM      3  N   UNL     1       1.714   7.568  20.535  0.00  0.00    +0.000 N 
ATOM      4  H   UNL     1       2.244   8.153  19.897  0.00  0.00    +0.000 HD
ENDROOT
BRANCH   1   9
ATOM      5  C   UNL     1       6.781   6.457  16.863  0.00  0.00    +0.000 A 
ATOM      6  C   UNL     1       5.749   6.861  17.730  0.00  0.00    +0.000 A 
ATOM      7  C   UNL     1       4.663   6.052  18.051  0.00  0.00    +0.000 A 
ATOM      8  N   UNL     1       3.793   6.521  18.968  0.00  0.00    +0.000 NA
ATOM      9  C   UNL     1       2.755   5.717  19.311  0.00  0.00    +0.000 A 
ATOM     10  C   UNL     1       2.547   4.468  18.766  0.00  0.00    +0.000 A 
ATOM     11  C   UNL     1       3.433   3.984  17.808  0.00  0.00    +0.000 A 
ATOM     12  C   UNL     1       4.541   4.784  17.425  0.00  0.00    +0.000 A 
ATOM     13  C   UNL     1       5.543   4.439  16.487  0.00  0.00    +0.000 A 
ATOM     14  C   UNL     1       6.653   5.242  16.200  0.00  0.00    +0.000 A 
BRANCH   5  16
ATOM     15  C   UNL     1       8.095   8.290  17.578  0.00  0.00    +0.000 C 
ATOM     16  O   UNL     1       7.888   7.231  16.644  0.00  0.00    +0.000 OA
ENDBRANCH   5  16
BRANCH  11  17
ATOM     17  O   UNL     1       3.049   2.730  17.415  0.00  0.00    +0.000 OA
ATOM     18  C   UNL     1       3.509   1.558  18.053  0.00  0.00    +0.000 C 
ENDBRANCH  11  17
BRANCH  14  19
ATOM     19  O   UNL     1       7.466   4.638  15.285  0.00  0.00    +0.000 OA
ATOM     20  C   UNL     1       7.116   4.624  13.914  0.00  0.00    +0.000 C 
ENDBRANCH  14  19
ENDBRANCH   1   9
BRANCH   3  21
ATOM     21  C   UNL     1       0.759   8.151  21.465  0.00  0.00    +0.000 C 
BRANCH  21  22
ATOM     22  C   UNL     1       0.561   9.656  21.225  0.00  0.00    +0.000 C 
BRANCH  22  23
ATOM     23  C   UNL     1       0.054  10.030  19.813  0.00  0.00    +0.000 C 
ATOM     24  C   UNL     1       1.203  10.575  18.947  0.00  0.00    +0.000 C 
ATOM     25  C   UNL     1       1.643  11.981  19.371  0.00  0.00    +0.000 C 
ATOM     26  N   UNL     1       0.534  12.955  19.412  0.00  0.00    +0.000 NA
ATOM     27  C   UNL     1      -0.587  12.464  20.233  0.00  0.00    +0.000 C 
ATOM     28  C   UNL     1      -1.067  11.078  19.792  0.00  0.00    +0.000 C 
BRANCH  26  29
ATOM     29  C   UNL     1       1.057  14.235  19.944  0.00  0.00    +0.000 C 
BRANCH  29  30
ATOM     30  C   UNL     1       1.723  15.143  18.929  0.00  0.00    +0.000 A 
ATOM     31  C   UNL     1       1.236  16.444  18.721  0.00  0.00    +0.000 A 
ATOM     32  C   UNL     1       1.872  17.307  17.826  0.00  0.00    +0.000 A 
ATOM     33  C   UNL     1       3.001  16.881  17.131  0.00  0.00    +0.000 A 
ATOM     34  C   UNL     1       3.488  15.589  17.321  0.00  0.00    +0.000 A 
ATOM     35  C   UNL     1       2.852  14.722  18.214  0.00  0.00    +0.000 A 
ENDBRANCH  29  30
ENDBRANCH  26  29
ENDBRANCH  22  23
ENDBRANCH  21  22
ENDBRANCH   3  21
TORSDOF 9
ENDMDL
MODEL 3
REMARK VINA RESULT:      -7.9      6.254      9.785
REMARK  Name = 
REMARK  12 active torsions:
REMARK  status: ('A' for Active; 'I' for Inactive)
REMARK    1  A    between atoms: C_1  and  O_2
REMARK    2  A    between atoms: O_2  and  C_3
REMARK    3  A    between atoms: C_7  and  C_8
REMARK    4  A    between atoms: N_10  and  C_11
REMARK    5  A    between atoms: C_11  and  C_12
REMARK    6  A    between atoms: C_12  and  C_13
REMARK    7  A    between atoms: N_16  and  C_17
REMARK    8  A    between atoms: C_17  and  C_18
REMARK    9  A    between atoms: C_27  and  O_28
REMARK   10  A    between atoms: O_28  and  C_29
REMARK   11  A    between atoms: C_32  and  O_33
REMARK   12  A    between atoms: O_33  and  C_34
REMARK                            x       y       z     vdW  Elec       q    Type
REMARK                         _______ _______ _______ _____ _____    ______ ____
ROOT
ATOM      1  C   UNL     1       1.748   6.180  20.320  0.00  0.00    +0.000 C 
ATOM      2  O   UNL     1       1.036   5.372  20.910  0.00  0.00    +0.000 OA
ATOM      3  N   UNL     1       1.730   7.535  20.587  0.00  0.00    +0.000 N 
ATOM      4  H   UNL     1       2.288   8.134  19.984  0.00  0.00    +0.000 HD
ENDROOT
BRANCH   1   9
ATOM      5  C   UNL     1       6.744   6.454  16.840  0.00  0.00    +0.000 A 
ATOM      6  C   UNL     1       5.725   6.847  17.727  0.00  0.00    +0.000 A 
ATOM      7  C   UNL     1       4.617   6.055  18.013  0.00  0.00    +0.000 A 
ATOM      8  N   UNL     1       3.761   6.506  18.952  0.00  0.00    +0.000 NA
ATOM      9  C   UNL     1       2.702   5.716  19.261  0.00  0.00    +0.000 A 
ATOM     10  C   UNL     1       2.459   4.499  18.661  0.00  0.00    +0.000 A 
ATOM     11  C   UNL     1       3.331   4.034  17.680  0.00  0.00    +0.000 A 
ATOM     12  C   UNL     1       4.460   4.820  17.331  0.00  0.00    +0.000 A 
ATOM     13  C   UNL     1       5.451   4.491  16.377  0.00  0.00    +0.000 A 
ATOM     14  C   UNL     1       6.582   5.275  16.124  0.00  0.00    +0.000 A 
BRANCH   5  16
ATOM     15  C   UNL     1       8.019   8.325  17.528  0.00  0.00    +0.000 C 
ATOM     16  O   UNL     1       7.872   7.207  16.653  0.00  0.00    +0.000 OA
ENDBRANCH   5  16
BRANCH  11  17
ATOM     17  O   UNL     1       2.912   2.811  17.232  0.00  0.00    +0.000 OA
ATOM     18  C   UNL     1       2.795   1.688  18.080  0.00  0.00    +0.000 C 
ENDBRANCH  11  17
BRANCH  14  19
ATOM     19  O   UNL     1       7.378   4.691  15.180  0.00  0.00    +0.000 OA
ATOM     20  C   UNL     1       7.076   4.826  13.805  0.00  0.00    +0.000 C 
ENDBRANCH  14  19
ENDBRANCH   1   9
BRANCH   3  21
ATOM     21  C   UNL     1       0.795   8.102  21.545  0.00  0.00    +0.000 C 
BRANCH  21  22
ATOM     22  C   UNL     1      -0.048   9.233  20.933  0.00  0.00    +0.000 C 
BRANCH  22  23
ATOM     23  C   UNL     1       0.463   9.765  19.574  0.00  0.00    +0.000 C 
ATOM     24  C   UNL     1       1.352  11.004  19.772  0.00  0.00    +0.000 C 
ATOM     25  C   UNL     1       0.548  12.247  20.175  0.00  0.00    +0.000 C 
ATOM     26  N   UNL     1      -0.554  12.558  19.243  0.00  0.00    +0.000 NA
ATOM     27  C   UNL     1      -1.426  11.390  19.028  0.00  0.00    +0.000 C 
ATOM     28  C   UNL     1      -0.642  10.152  18.582  0.00  0.00    +0.000 C 
BRANCH  26  29
ATOM     29  C   UNL     1      -1.323  13.698  19.795  0.00  0.00    +0.000 C 
BRANCH  29  30
ATOM     30  C   UNL     1      -2.270  13.361  20.929  0.00  0.00    +0.000 A 
ATOM     31  C   UNL     1      -3.651  13.271  20.690  0.00  0.00    +0.000 A 
ATOM     32  C   UNL     1      -4.529  12.911  21.715  0.00  0.00    +0.000 A 
ATOM     33  C   UNL     1      -4.037  12.637  22.988  0.00  0.00    +0.000 A 
ATOM     34  C   UNL     1      -2.669  12.733  23.241  0.00  0.00    +0.000 A 
ATOM     35  C   UNL     1      -1.789  13.095  22.217  0.00  0.00    +0.000 A 
ENDBRANCH  29  30
ENDBRANCH  26  29
ENDBRANCH  22  23
ENDBRANCH  21  22
ENDBRANCH   3  21
TORSDOF 9
ENDMDL
MODEL 4
REMARK VINA RESULT:      -7.9      2.101      4.207
REMARK  Name = 
REMARK  12 active torsions:
REMARK  status: ('A' for Active; 'I' for Inactive)
REMARK    1  A    between atoms: C_1  and  O_2
REMARK    2  A    between atoms: O_2  and  C_3
REMARK    3  A    between atoms: C_7  and  C_8
REMARK    4  A    between atoms: N_10  and  C_11
REMARK    5  A    between atoms: C_11  and  C_12
REMARK    6  A    between atoms: C_12  and  C_13
REMARK    7  A    between atoms: N_16  and  C_17
REMARK    8  A    between atoms: C_17  and  C_18
REMARK    9  A    between atoms: C_27  and  O_28
REMARK   10  A    between atoms: O_28  and  C_29
REMARK   11  A    between atoms: C_32  and  O_33
REMARK   12  A    between atoms: O_33  and  C_34
REMARK                            x       y       z     vdW  Elec       q    Type
REMARK                         _______ _______ _______ _____ _____    ______ ____
ROOT
ATOM      1  C   UNL     1       9.359  10.771  18.674  0.00  0.00    +0.000 C 
ATOM      2  O   UNL     1      10.238  10.883  17.824  0.00  0.00    +0.000 OA
ATOM      3  N   UNL     1       8.440   9.740  18.676  0.00  0.00    +0.000 N 
ATOM      4  H   UNL     1       7.696   9.783  19.366  0.00  0.00    +0.000 HD
ENDROOT
BRANCH   1   9
ATOM      5  C   UNL     1       8.280  12.647  24.372  0.00  0.00    +0.000 A 
ATOM      6  C   UNL     1       8.307  11.823  23.232  0.00  0.00    +0.000 A 
ATOM      7  C   UNL     1       8.731  12.265  21.982  0.00  0.00    +0.000 A 
ATOM      8  N   UNL     1       8.798  11.350  20.993  0.00  0.00    +0.000 NA
ATOM      9  C   UNL     1       9.249  11.771  19.785  0.00  0.00    +0.000 A 
ATOM     10  C   UNL     1       9.625  13.071  19.523  0.00  0.00    +0.000 A 
ATOM     11  C   UNL     1       9.544  14.024  20.535  0.00  0.00    +0.000 A 
ATOM     12  C   UNL     1       9.089  13.628  21.820  0.00  0.00    +0.000 A 
ATOM     13  C   UNL     1       8.966  14.458  22.959  0.00  0.00    +0.000 A 
ATOM     14  C   UNL     1       8.576  13.996  24.222  0.00  0.00    +0.000 A 
BRANCH   5  16
ATOM     15  C   UNL     1       6.699  11.488  25.698  0.00  0.00    +0.000 C 
ATOM     16  O   UNL     1       7.956  12.161  25.609  0.00  0.00    +0.000 OA
ENDBRANCH   5  16
BRANCH  11  17
ATOM     17  O   UNL     1       9.976  15.235  20.066  0.00  0.00    +0.000 OA
ATOM     18  C   UNL     1      10.772  15.362  18.907  0.00  0.00    +0.000 C 
ENDBRANCH  11  17
BRANCH  14  19
ATOM     19  O   UNL     1       8.581  15.012  25.134  0.00  0.00    +0.000 OA
ATOM     20  C   UNL     1       8.160  16.310  24.763  0.00  0.00    +0.000 C 
ENDBRANCH  14  19
ENDBRANCH   1   9
BRANCH   3  21
ATOM     21  C   UNL     1       8.412   8.754  17.607  0.00  0.00    +0.000 C 
BRANCH  21  22
ATOM     22  C   UNL     1       7.159   7.864  17.673  0.00  0.00    +0.000 C 
BRANCH  22  23
ATOM     23  C   UNL     1       7.440   6.345  17.739  0.00  0.00    +0.000 C 
ATOM     24  C   UNL     1       6.920   5.638  16.476  0.00  0.00    +0.000 C 
ATOM     25  C   UNL     1       5.389   5.548  16.441  0.00  0.00    +0.000 C 
ATOM     26  N   UNL     1       4.811   4.922  17.647  0.00  0.00    +0.000 NA
ATOM     27  C   UNL     1       5.291   5.575  18.877  0.00  0.00    +0.000 C 
ATOM     28  C   UNL     1       6.820   5.632  18.948  0.00  0.00    +0.000 C 
BRANCH  26  29
ATOM     29  C   UNL     1       3.335   4.998  17.549  0.00  0.00    +0.000 C 
BRANCH  29  30
ATOM     30  C   UNL     1       2.568   4.225  18.603  0.00  0.00    +0.000 A 
ATOM     31  C   UNL     1       2.559   2.821  18.581  0.00  0.00    +0.000 A 
ATOM     32  C   UNL     1       1.900   2.098  19.576  0.00  0.00    +0.000 A 
ATOM     33  C   UNL     1       1.243   2.768  20.605  0.00  0.00    +0.000 A 
ATOM     34  C   UNL     1       1.235   4.162  20.633  0.00  0.00    +0.000 A 
ATOM     35  C   UNL     1       1.893   4.888  19.636  0.00  0.00    +0.000 A 
ENDBRANCH  29  30
ENDBRANCH  26  29
ENDBRANCH  22  23
ENDBRANCH  21  22
ENDBRANCH   3  21
TORSDOF 9
ENDMDL
MODEL 5
REMARK VINA RESULT:      -7.8      6.419      9.567
REMARK  Name = 
REMARK  12 active torsions:
REMARK  status: ('A' for Active; 'I' for Inactive)
REMARK    1  A    between atoms: C_1  and  O_2
REMARK    2  A    between atoms: O_2  and  C_3
REMARK    3  A    between atoms: C_7  and  C_8
REMARK    4  A    between atoms: N_10  and  C_11
REMARK    5  A    between atoms: C_11  and  C_12
REMARK    6  A    between atoms: C_12  and  C_13
REMARK    7  A    between atoms: N_16  and  C_17
REMARK    8  A    between atoms: C_17  and  C_18
REMARK    9  A    between atoms: C_27  and  O_28
REMARK   10  A    between atoms: O_28  and  C_29
REMARK   11  A    between atoms: C_32  and  O_33
REMARK   12  A    between atoms: O_33  and  C_34
REMARK                            x       y       z     vdW  Elec       q    Type
REMARK                         _______ _______ _______ _____ _____    ______ ____
ROOT
ATOM      1  C   UNL     1       1.408   8.881  19.241  0.00  0.00    +0.000 C 
ATOM      2  O   UNL     1       1.967   8.966  20.331  0.00  0.00    +0.000 OA
ATOM      3  N   UNL     1       1.872   8.077  18.217  0.00  0.00    +0.000 N 
ATOM      4  H   UNL     1       1.394   8.143  17.323  0.00  0.00    +0.000 HD
ENDROOT
BRANCH   1   9
ATOM      5  C   UNL     1      -3.479  10.595  16.027  0.00  0.00    +0.000 A 
ATOM      6  C   UNL     1      -2.238  10.009  16.339  0.00  0.00    +0.000 A 
ATOM      7  C   UNL     1      -1.591  10.199  17.557  0.00  0.00    +0.000 A 
ATOM      8  N   UNL     1      -0.454   9.505  17.767  0.00  0.00    +0.000 NA
ATOM      9  C   UNL     1       0.156   9.659  18.969  0.00  0.00    +0.000 A 
ATOM     10  C   UNL     1      -0.319  10.486  19.964  0.00  0.00    +0.000 A 
ATOM     11  C   UNL     1      -1.484  11.216  19.749  0.00  0.00    +0.000 A 
ATOM     12  C   UNL     1      -2.164  11.080  18.511  0.00  0.00    +0.000 A 
ATOM     13  C   UNL     1      -3.365  11.728  18.136  0.00  0.00    +0.000 A 
ATOM     14  C   UNL     1      -4.030  11.501  16.925  0.00  0.00    +0.000 A 
BRANCH   5  16
ATOM     15  C   UNL     1      -3.316   9.951  13.756  0.00  0.00    +0.000 C 
ATOM     16  O   UNL     1      -4.141  10.311  14.864  0.00  0.00    +0.000 OA
ENDBRANCH   5  16
BRANCH  11  17
ATOM     17  O   UNL     1      -1.780  11.955  20.862  0.00  0.00    +0.000 OA
ATOM     18  C   UNL     1      -0.828  12.232  21.866  0.00  0.00    +0.000 C 
ENDBRANCH  11  17
BRANCH  14  19
ATOM     19  O   UNL     1      -5.177  12.238  16.854  0.00  0.00    +0.000 OA
ATOM     20  C   UNL     1      -6.227  12.021  17.777  0.00  0.00    +0.000 C 
ENDBRANCH  14  19
ENDBRANCH   1   9
BRANCH   3  21
ATOM     21  C   UNL     1       3.115   7.333  18.349  0.00  0.00    +0.000 C 
BRANCH  21  22
ATOM     22  C   UNL     1       3.954   7.376  17.061  0.00  0.00    +0.000 C 
BRANCH  22  23
ATOM     23  C   UNL     1       5.323   6.662  17.151  0.00  0.00    +0.000 C 
ATOM     24  C   UNL     1       5.449   5.584  16.061  0.00  0.00    +0.000 C 
ATOM     25  C   UNL     1       4.573   4.356  16.344  0.00  0.00    +0.000 C 
ATOM     26  N   UNL     1       4.811   3.762  17.674  0.00  0.00    +0.000 NA
ATOM     27  C   UNL     1       4.701   4.769  18.744  0.00  0.00    +0.000 C 
ATOM     28  C   UNL     1       5.603   5.981  18.497  0.00  0.00    +0.000 C 
BRANCH  26  29
ATOM     29  C   UNL     1       3.834   2.666  17.877  0.00  0.00    +0.000 C 
BRANCH  29  30
ATOM     30  C   UNL     1       2.947   2.797  19.098  0.00  0.00    +0.000 A 
ATOM     31  C   UNL     1       1.600   3.169  18.954  0.00  0.00    +0.000 A 
ATOM     32  C   UNL     1       0.760   3.242  20.067  0.00  0.00    +0.000 A 
ATOM     33  C   UNL     1       1.254   2.944  21.334  0.00  0.00    +0.000 A 
ATOM     34  C   UNL     1       2.592   2.584  21.491  0.00  0.00    +0.000 A 
ATOM     35  C   UNL     1       3.435   2.512  20.380  0.00  0.00    +0.000 A 
ENDBRANCH  29  30
ENDBRANCH  26  29
ENDBRANCH  22  23
ENDBRANCH  21  22
ENDBRANCH   3  21
TORSDOF 9
ENDMDL
MODEL 6
REMARK VINA RESULT:      -7.8      6.194      9.918
REMARK  Name = 
REMARK  12 active torsions:
REMARK  status: ('A' for Active; 'I' for Inactive)
REMARK    1  A    between atoms: C_1  and  O_2
REMARK    2  A    between atoms: O_2  and  C_3
REMARK    3  A    between atoms: C_7  and  C_8
REMARK    4  A    between atoms: N_10  and  C_11
REMARK    5  A    between atoms: C_11  and  C_12
REMARK    6  A    between atoms: C_12  and  C_13
REMARK    7  A    between atoms: N_16  and  C_17
REMARK    8  A    between atoms: C_17  and  C_18
REMARK    9  A    between atoms: C_27  and  O_28
REMARK   10  A    between atoms: O_28  and  C_29
REMARK   11  A    between atoms: C_32  and  O_33
REMARK   12  A    between atoms: O_33  and  C_34
REMARK                            x       y       z     vdW  Elec       q    Type
REMARK                         _______ _______ _______ _____ _____    ______ ____
ROOT
ATOM      1  C   UNL     1       1.770   6.191  20.322  0.00  0.00    +0.000 C 
ATOM      2  O   UNL     1       1.057   5.389  20.919  0.00  0.00    +0.000 OA
ATOM      3  N   UNL     1       1.743   7.550  20.566  0.00  0.00    +0.000 N 
ATOM      4  H   UNL     1       2.303   8.141  19.958  0.00  0.00    +0.000 HD
ENDROOT
BRANCH   1   9
ATOM      5  C   UNL     1       6.760   6.469  16.833  0.00  0.00    +0.000 A 
ATOM      6  C   UNL     1       5.730   6.867  17.706  0.00  0.00    +0.000 A 
ATOM      7  C   UNL     1       4.643   6.057  18.021  0.00  0.00    +0.000 A 
ATOM      8  N   UNL     1       3.775   6.519  18.943  0.00  0.00    +0.000 NA
ATOM      9  C   UNL     1       2.737   5.714  19.281  0.00  0.00    +0.000 A 
ATOM     10  C   UNL     1       2.526   4.470  18.726  0.00  0.00    +0.000 A 
ATOM     11  C   UNL     1       3.410   3.992  17.762  0.00  0.00    +0.000 A 
ATOM     12  C   UNL     1       4.518   4.795  17.384  0.00  0.00    +0.000 A 
ATOM     13  C   UNL     1       5.518   4.457  16.442  0.00  0.00    +0.000 A 
ATOM     14  C   UNL     1       6.629   5.260  16.160  0.00  0.00    +0.000 A 
BRANCH   5  16
ATOM     15  C   UNL     1       8.045   8.330  17.527  0.00  0.00    +0.000 C 
ATOM     16  O   UNL     1       7.867   7.243  16.619  0.00  0.00    +0.000 OA
ENDBRANCH   5  16
BRANCH  11  17
ATOM     17  O   UNL     1       3.024   2.743  17.358  0.00  0.00    +0.000 OA
ATOM     18  C   UNL     1       2.194   1.913  18.143  0.00  0.00    +0.000 C 
ENDBRANCH  11  17
BRANCH  14  19
ATOM     19  O   UNL     1       7.440   4.663  15.238  0.00  0.00    +0.000 OA
ATOM     20  C   UNL     1       7.106   4.693  13.864  0.00  0.00    +0.000 C 
ENDBRANCH  14  19
ENDBRANCH   1   9
BRANCH   3  21
ATOM     21  C   UNL     1       0.795   8.128  21.506  0.00  0.00    +0.000 C 
BRANCH  21  22
ATOM     22  C   UNL     1       0.369   9.548  21.098  0.00  0.00    +0.000 C 
BRANCH  22  23
ATOM     23  C   UNL     1       0.341   9.810  19.575  0.00  0.00    +0.000 C 
ATOM     24  C   UNL     1       1.341  10.915  19.192  0.00  0.00    +0.000 C 
ATOM     25  C   UNL     1       0.875  12.308  19.634  0.00  0.00    +0.000 C 
ATOM     26  N   UNL     1      -0.475  12.655  19.148  0.00  0.00    +0.000 NA
ATOM     27  C   UNL     1      -1.459  11.615  19.495  0.00  0.00    +0.000 C 
ATOM     28  C   UNL     1      -1.028  10.224  19.021  0.00  0.00    +0.000 C 
BRANCH  26  29
ATOM     29  C   UNL     1      -0.858  13.962  19.731  0.00  0.00    +0.000 C 
BRANCH  29  30
ATOM     30  C   UNL     1      -1.485  13.906  21.110  0.00  0.00    +0.000 A 
ATOM     31  C   UNL     1      -0.669  13.851  22.252  0.00  0.00    +0.000 A 
ATOM     32  C   UNL     1      -1.233  13.852  23.529  0.00  0.00    +0.000 A 
ATOM     33  C   UNL     1      -2.617  13.907  23.679  0.00  0.00    +0.000 A 
ATOM     34  C   UNL     1      -3.437  13.951  22.553  0.00  0.00    +0.000 A 
ATOM     35  C   UNL     1      -2.875  13.949  21.274  0.00  0.00    +0.000 A 
ENDBRANCH  29  30
ENDBRANCH  26  29
ENDBRANCH  22  23
ENDBRANCH  21  22
ENDBRANCH   3  21
TORSDOF 9
ENDMDL
MODEL 7
REMARK VINA RESULT:      -7.8      8.272     11.333
REMARK  Name = 
REMARK  12 active torsions:
REMARK  status: ('A' for Active; 'I' for Inactive)
REMARK    1  A    between atoms: C_1  and  O_2
REMARK    2  A    between atoms: O_2  and  C_3
REMARK    3  A    between atoms: C_7  and  C_8
REMARK    4  A    between atoms: N_10  and  C_11
REMARK    5  A    between atoms: C_11  and  C_12
REMARK    6  A    between atoms: C_12  and  C_13
REMARK    7  A    between atoms: N_16  and  C_17
REMARK    8  A    between atoms: C_17  and  C_18
REMARK    9  A    between atoms: C_27  and  O_28
REMARK   10  A    between atoms: O_28  and  C_29
REMARK   11  A    between atoms: C_32  and  O_33
REMARK   12  A    between atoms: O_33  and  C_34
REMARK                            x       y       z     vdW  Elec       q    Type
REMARK                         _______ _______ _______ _____ _____    ______ ____
ROOT
ATOM      1  C   UNL     1      -0.905  11.044  22.612  0.00  0.00    +0.000 C 
ATOM      2  O   UNL     1      -1.042  10.421  23.662  0.00  0.00    +0.000 OA
ATOM      3  N   UNL     1      -1.457  12.292  22.399  0.00  0.00    +0.000 N 
ATOM      4  H   UNL     1      -1.366  12.686  21.468  0.00  0.00    +0.000 HD
ENDROOT
BRANCH   1   9
ATOM      5  C   UNL     1       2.300   6.741  19.721  0.00  0.00    +0.000 A 
ATOM      6  C   UNL     1       1.635   7.428  20.754  0.00  0.00    +0.000 A 
ATOM      7  C   UNL     1       1.127   8.715  20.608  0.00  0.00    +0.000 A 
ATOM      8  N   UNL     1       0.428   9.224  21.643  0.00  0.00    +0.000 NA
ATOM      9  C   UNL     1      -0.103  10.463  21.488  0.00  0.00    +0.000 A 
ATOM     10  C   UNL     1       0.047  11.217  20.344  0.00  0.00    +0.000 A 
ATOM     11  C   UNL     1       0.779  10.704  19.277  0.00  0.00    +0.000 A 
ATOM     12  C   UNL     1       1.344   9.407  19.388  0.00  0.00    +0.000 A 
ATOM     13  C   UNL     1       2.095   8.730  18.399  0.00  0.00    +0.000 A 
ATOM     14  C   UNL     1       2.568   7.420  18.538  0.00  0.00    +0.000 A 
BRANCH   5  16
ATOM     15  C   UNL     1       2.031   4.691  20.872  0.00  0.00    +0.000 C 
ATOM     16  O   UNL     1       2.700   5.440  19.857  0.00  0.00    +0.000 OA
ENDBRANCH   5  16
BRANCH  11  17
ATOM     17  O   UNL     1       0.789  11.605  18.247  0.00  0.00    +0.000 OA
ATOM     18  C   UNL     1       0.862  13.000  18.456  0.00  0.00    +0.000 C 
ENDBRANCH  11  17
BRANCH  14  19
ATOM     19  O   UNL     1       3.227   7.018  17.412  0.00  0.00    +0.000 OA
ATOM     20  C   UNL     1       4.624   6.800  17.437  0.00  0.00    +0.000 C 
ENDBRANCH  14  19
ENDBRANCH   1   9
BRANCH   3  21
ATOM     21  C   UNL     1      -2.311  12.918  23.397  0.00  0.00    +0.000 C 
BRANCH  21  22
ATOM     22  C   UNL     1      -3.804  12.693  23.106  0.00  0.00    +0.000 C 
BRANCH  22  23
ATOM     23  C   UNL     1      -4.449  13.733  22.161  0.00  0.00    +0.000 C 
ATOM     24  C   UNL     1      -5.917  13.374  21.875  0.00  0.00    +0.000 C 
ATOM     25  C   UNL     1      -6.056  12.161  20.948  0.00  0.00    +0.000 C 
ATOM     26  N   UNL     1      -5.314  12.305  19.680  0.00  0.00    +0.000 NA
ATOM     27  C   UNL     1      -3.902  12.651  19.916  0.00  0.00    +0.000 C 
ATOM     28  C   UNL     1      -3.747  13.889  20.805  0.00  0.00    +0.000 C 
BRANCH  26  29
ATOM     29  C   UNL     1      -5.428  11.034  18.926  0.00  0.00    +0.000 C 
BRANCH  29  30
ATOM     30  C   UNL     1      -4.404  10.830  17.827  0.00  0.00    +0.000 A 
ATOM     31  C   UNL     1      -3.294   9.997  18.045  0.00  0.00    +0.000 A 
ATOM     32  C   UNL     1      -2.372   9.760  17.024  0.00  0.00    +0.000 A 
ATOM     33  C   UNL     1      -2.548  10.351  15.775  0.00  0.00    +0.000 A 
ATOM     34  C   UNL     1      -3.639  11.188  15.550  0.00  0.00    +0.000 A 
ATOM     35  C   UNL     1      -4.563  11.428  16.571  0.00  0.00    +0.000 A 
ENDBRANCH  29  30
ENDBRANCH  26  29
ENDBRANCH  22  23
ENDBRANCH  21  22
ENDBRANCH   3  21
TORSDOF 9
ENDMDL
MODEL 8
REMARK VINA RESULT:      -7.8      7.219     10.326
REMARK  Name = 
REMARK  12 active torsions:
REMARK  status: ('A' for Active; 'I' for Inactive)
REMARK    1  A    between atoms: C_1  and  O_2
REMARK    2  A    between atoms: O_2  and  C_3
REMARK    3  A    between atoms: C_7  and  C_8
REMARK    4  A    between atoms: N_10  and  C_11
REMARK    5  A    between atoms: C_11  and  C_12
REMARK    6  A    between atoms: C_12  and  C_13
REMARK    7  A    between atoms: N_16  and  C_17
REMARK    8  A    between atoms: C_17  and  C_18
REMARK    9  A    between atoms: C_27  and  O_28
REMARK   10  A    between atoms: O_28  and  C_29
REMARK   11  A    between atoms: C_32  and  O_33
REMARK   12  A    between atoms: O_33  and  C_34
REMARK                            x       y       z     vdW  Elec       q    Type
REMARK                         _______ _______ _______ _____ _____    ______ ____
ROOT
ATOM      1  C   UNL     1       0.922   9.860  18.701  0.00  0.00    +0.000 C 
ATOM      2  O   UNL     1       1.534  10.261  19.687  0.00  0.00    +0.000 OA
ATOM      3  N   UNL     1       1.485   9.033  17.749  0.00  0.00    +0.000 N 
ATOM      4  H   UNL     1       0.929   8.830  16.924  0.00  0.00    +0.000 HD
ENDROOT
BRANCH   1   9
ATOM      5  C   UNL     1      -4.246  12.867  19.884  0.00  0.00    +0.000 A 
ATOM      6  C   UNL     1      -2.953  12.338  20.053  0.00  0.00    +0.000 A 
ATOM      7  C   UNL     1      -2.370  11.448  19.156  0.00  0.00    +0.000 A 
ATOM      8  N   UNL     1      -1.091  11.090  19.383  0.00  0.00    +0.000 NA
ATOM      9  C   UNL     1      -0.508  10.255  18.487  0.00  0.00    +0.000 A 
ATOM     10  C   UNL     1      -1.158   9.755  17.379  0.00  0.00    +0.000 A 
ATOM     11  C   UNL     1      -2.484  10.108  17.145  0.00  0.00    +0.000 A 
ATOM     12  C   UNL     1      -3.132  10.989  18.049  0.00  0.00    +0.000 A 
ATOM     13  C   UNL     1      -4.461  11.465  17.952  0.00  0.00    +0.000 A 
ATOM     14  C   UNL     1      -5.026  12.390  18.838  0.00  0.00    +0.000 A 
BRANCH   5  16
ATOM     15  C   UNL     1      -4.081  13.959  21.976  0.00  0.00    +0.000 C 
ATOM     16  O   UNL     1      -4.756  13.817  20.726  0.00  0.00    +0.000 OA
ENDBRANCH   5  16
BRANCH  11  17
ATOM     17  O   UNL     1      -2.925   9.515  15.994  0.00  0.00    +0.000 OA
ATOM     18  C   UNL     1      -2.994  10.201  14.762  0.00  0.00    +0.000 C 
ENDBRANCH  11  17
BRANCH  14  19
ATOM     19  O   UNL     1      -6.308  12.689  18.476  0.00  0.00    +0.000 OA
ATOM     20  C   UNL     1      -7.400  12.067  19.125  0.00  0.00    +0.000 C 
ENDBRANCH  14  19
ENDBRANCH   1   9
BRANCH   3  21
ATOM     21  C   UNL     1       2.885   8.644  17.822  0.00  0.00    +0.000 C 
BRANCH  21  22
ATOM     22  C   UNL     1       3.086   7.148  17.532  0.00  0.00    +0.000 C 
BRANCH  22  23
ATOM     23  C   UNL     1       4.526   6.748  17.135  0.00  0.00    +0.000 C 
ATOM     24  C   UNL     1       4.527   5.436  16.332  0.00  0.00    +0.000 C 
ATOM     25  C   UNL     1       4.222   4.212  17.206  0.00  0.00    +0.000 C 
ATOM     26  N   UNL     1       5.115   4.092  18.376  0.00  0.00    +0.000 NA
ATOM     27  C   UNL     1       5.141   5.334  19.167  0.00  0.00    +0.000 C 
ATOM     28  C   UNL     1       5.487   6.559  18.315  0.00  0.00    +0.000 C 
BRANCH  26  29
ATOM     29  C   UNL     1       4.653   2.950  19.199  0.00  0.00    +0.000 C 
BRANCH  29  30
ATOM     30  C   UNL     1       3.169   2.921  19.505  0.00  0.00    +0.000 A 
ATOM     31  C   UNL     1       2.700   3.347  20.759  0.00  0.00    +0.000 A 
ATOM     32  C   UNL     1       1.332   3.374  21.035  0.00  0.00    +0.000 A 
ATOM     33  C   UNL     1       0.417   2.978  20.063  0.00  0.00    +0.000 A 
ATOM     34  C   UNL     1       0.871   2.544  18.818  0.00  0.00    +0.000 A 
ATOM     35  C   UNL     1       2.240   2.514  18.540  0.00  0.00    +0.000 A 
ENDBRANCH  29  30
ENDBRANCH  26  29
ENDBRANCH  22  23
ENDBRANCH  21  22
ENDBRANCH   3  21
TORSDOF 9
ENDMDL
MODEL 9
REMARK VINA RESULT:      -7.7      6.920      9.438
REMARK  Name = 
REMARK  12 active torsions:
REMARK  status: ('A' for Active; 'I' for Inactive)
REMARK    1  A    between atoms: C_1  and  O_2
REMARK    2  A    between atoms: O_2  and  C_3
REMARK    3  A    between atoms: C_7  and  C_8
REMARK    4  A    between atoms: N_10  and  C_11
REMARK    5  A    between atoms: C_11  and  C_12
REMARK    6  A    between atoms: C_12  and  C_13
REMARK    7  A    between atoms: N_16  and  C_17
REMARK    8  A    between atoms: C_17  and  C_18
REMARK    9  A    between atoms: C_27  and  O_28
REMARK   10  A    between atoms: O_28  and  C_29
REMARK   11  A    between atoms: C_32  and  O_33
REMARK   12  A    between atoms: O_33  and  C_34
REMARK                            x       y       z     vdW  Elec       q    Type
REMARK                         _______ _______ _______ _____ _____    ______ ____
ROOT
ATOM      1  C   UNL     1       2.209   7.779  18.993  0.00  0.00    +0.000 C 
ATOM      2  O   UNL     1       2.697   7.739  17.866  0.00  0.00    +0.000 OA
ATOM      3  N   UNL     1       2.565   6.902  19.999  0.00  0.00    +0.000 N 
ATOM      4  H   UNL     1       2.041   6.956  20.867  0.00  0.00    +0.000 HD
ENDROOT
BRANCH   1   9
ATOM      5  C   UNL     1      -2.559  11.433  17.959  0.00  0.00    +0.000 A 
ATOM      6  C   UNL     1      -1.485  10.556  17.717  0.00  0.00    +0.000 A 
ATOM      7  C   UNL     1      -0.591  10.155  18.705  0.00  0.00    +0.000 A 
ATOM      8  N   UNL     1       0.337   9.238  18.364  0.00  0.00    +0.000 NA
ATOM      9  C   UNL     1       1.184   8.817  19.337  0.00  0.00    +0.000 A 
ATOM     10  C   UNL     1       1.147   9.283  20.633  0.00  0.00    +0.000 A 
ATOM     11  C   UNL     1       0.201  10.241  20.989  0.00  0.00    +0.000 A 
ATOM     12  C   UNL     1      -0.714  10.704  20.008  0.00  0.00    +0.000 A 
ATOM     13  C   UNL     1      -1.745  11.653  20.203  0.00  0.00    +0.000 A 
ATOM     14  C   UNL     1      -2.665  12.021  19.213  0.00  0.00    +0.000 A 
BRANCH   5  16
ATOM     15  C   UNL     1      -3.361  10.996  15.776  0.00  0.00    +0.000 C 
ATOM     16  O   UNL     1      -3.482  11.731  16.994  0.00  0.00    +0.000 OA
ENDBRANCH   5  16
BRANCH  11  17
ATOM     17  O   UNL     1       0.332  10.550  22.315  0.00  0.00    +0.000 OA
ATOM     18  C   UNL     1      -0.167   9.721  23.343  0.00  0.00    +0.000 C 
ENDBRANCH  11  17
BRANCH  14  19
ATOM     19  O   UNL     1      -3.564  12.927  19.698  0.00  0.00    +0.000 OA
ATOM     20  C   UNL     1      -3.756  13.072  21.091  0.00  0.00    +0.000 C 
ENDBRANCH  14  19
ENDBRANCH   1   9
BRANCH   3  21
ATOM     21  C   UNL     1       3.499   5.815  19.755  0.00  0.00    +0.000 C 
BRANCH  21  22
ATOM     22  C   UNL     1       2.787   4.458  19.623  0.00  0.00    +0.000 C 
BRANCH  22  23
ATOM     23  C   UNL     1       3.690   3.289  19.168  0.00  0.00    +0.000 C 
ATOM     24  C   UNL     1       5.174   3.688  19.233  0.00  0.00    +0.000 C 
ATOM     25  C   UNL     1       5.567   4.675  18.127  0.00  0.00    +0.000 C 
ATOM     26  N   UNL     1       5.229   4.199  16.771  0.00  0.00    +0.000 NA
ATOM     27  C   UNL     1       3.813   3.806  16.673  0.00  0.00    +0.000 C 
ATOM     28  C   UNL     1       3.417   2.786  17.744  0.00  0.00    +0.000 C 
BRANCH  26  29
ATOM     29  C   UNL     1       5.546   5.278  15.806  0.00  0.00    +0.000 C 
BRANCH  29  30
ATOM     30  C   UNL     1       6.058   4.820  14.455  0.00  0.00    +0.000 A 
ATOM     31  C   UNL     1       7.277   5.312  13.960  0.00  0.00    +0.000 A 
ATOM     32  C   UNL     1       7.785   4.858  12.741  0.00  0.00    +0.000 A 
ATOM     33  C   UNL     1       7.082   3.909  12.004  0.00  0.00    +0.000 A 
ATOM     34  C   UNL     1       5.866   3.421  12.480  0.00  0.00    +0.000 A 
ATOM     35  C   UNL     1       5.355   3.875  13.699  0.00  0.00    +0.000 A 
ENDBRANCH  29  30
ENDBRANCH  26  29
ENDBRANCH  22  23
ENDBRANCH  21  22
ENDBRANCH   3  21
TORSDOF 9
ENDMDL
