MODEL 1
REMARK VINA RESULT:      -7.2      0.000      0.000
REMARK  Name = 
REMARK  10 active torsions:
REMARK  status: ('A' for Active; 'I' for Inactive)
REMARK    1  A    between atoms: C_1  and  C_2
REMARK    2  A    between atoms: C_2  and  N_3
REMARK    3  A    between atoms: C_7  and  C_8
REMARK    4  A    between atoms: C_8  and  N_9
REMARK    5  A    between atoms: C_11  and  C_12
REMARK    6  A    between atoms: C_12  and  O_13
REMARK    7  A    between atoms: C_14  and  C_15
REMARK    8  A    between atoms: C_15  and  N_16
REMARK    9  A    between atoms: C_19  and  C_20
REMARK   10  A    between atoms: C_20  and  O_21
REMARK                            x       y       z     vdW  Elec       q    Type
REMARK                         _______ _______ _______ _____ _____    ______ ____
ROOT
ATOM      1  N   UNL     1       1.159   4.969  19.697  0.00  0.00    +0.000 NA
ATOM      2  C   UNL     1       0.883   3.712  20.412  0.00  0.00    +0.000 C 
ATOM      3  C   UNL     1       1.830   2.649  19.849  0.00  0.00    +0.000 C 
ATOM      4  C   UNL     1       1.968   3.089  18.383  0.00  0.00    +0.000 C 
ATOM      5  C   UNL     1       1.588   4.579  18.352  0.00  0.00    +0.000 C 
ENDROOT
BRANCH   1   6
ATOM      6  C   UNL     1       2.118   5.877  20.343  0.00  0.00    +0.000 C 
BRANCH   6  11
ATOM      7  N   UNL     1       0.886  10.807  18.119  0.00  0.00    +0.000 N 
ATOM      8  C   UNL     1       1.375   9.703  18.785  0.00  0.00    +0.000 A 
ATOM      9  N   UNL     1       0.990   9.454  20.043  0.00  0.00    +0.000 NA
ATOM     10  C   UNL     1       1.305   8.249  20.553  0.00  0.00    +0.000 A 
ATOM     11  C   UNL     1       1.987   7.284  19.852  0.00  0.00    +0.000 A 
ATOM     12  C   UNL     1       2.433   7.685  18.611  0.00  0.00    +0.000 A 
ATOM     13  N   UNL     1       2.159   8.889  18.068  0.00  0.00    +0.000 NA
ATOM     14  H   UNL     1       1.511  11.052  17.368  0.00  0.00    +0.000 HD
BRANCH   7  16
ATOM     15  C   UNL     1      -1.111  12.140  18.382  0.00  0.00    +0.000 C 
ATOM     16  C   UNL     1       0.285  11.854  18.914  0.00  0.00    +0.000 C 
ENDBRANCH   7  16
ENDBRANCH   6  11
ENDBRANCH   1   6
BRANCH   3  17
ATOM     17  C   UNL     1       3.110   2.494  20.668  0.00  0.00    +0.000 C 
BRANCH  17  18
ATOM     18  O   UNL     1       2.806   2.527  22.064  0.00  0.00    +0.000 OA
ATOM     19  H   UNL     1       3.613   2.806  22.531  0.00  0.00    +0.000 HD
ENDBRANCH  17  18
ENDBRANCH   3  17
BRANCH   4  20
ATOM     20  C   UNL     1       3.295   2.842  17.648  0.00  0.00    +0.000 C 
BRANCH  20  21
ATOM     21  N   UNL     1       4.084   4.042  17.299  0.00  0.00    +0.000 NA
ATOM     22  C   UNL     1       4.848   4.552  18.452  0.00  0.00    +0.000 C 
ATOM     23  C   UNL     1       5.691   5.773  18.082  0.00  0.00    +0.000 C 
ATOM     24  C   UNL     1       6.663   5.481  16.934  0.00  0.00    +0.000 C 
ATOM     25  C   UNL     1       5.873   4.887  15.762  0.00  0.00    +0.000 C 
ATOM     26  C   UNL     1       4.997   3.706  16.183  0.00  0.00    +0.000 C 
BRANCH  24  27
ATOM     27  C   UNL     1       7.821   4.569  17.360  0.00  0.00    +0.000 C 
BRANCH  27  28
ATOM     28  O   UNL     1       8.108   4.729  18.744  0.00  0.00    +0.000 OA
ATOM     29  H   UNL     1       8.752   4.044  18.993  0.00  0.00    +0.000 HD
ENDBRANCH  27  28
ENDBRANCH  24  27
ENDBRANCH  20  21
ENDBRANCH   4  20
TORSDOF 9
ENDMDL
MODEL 2
REMARK VINA RESULT:      -7.1      1.040      1.043
REMARK  Name = 
REMARK  10 active torsions:
REMARK  status: ('A' for Active; 'I' for Inactive)
REMARK    1  A    between atoms: C_1  and  C_2
REMARK    2  A    between atoms: C_2  and  N_3
REMARK    3  A    between atoms: C_7  and  C_8
REMARK    4  A    between atoms: C_8  and  N_9
REMARK    5  A    between atoms: C_11  and  C_12
REMARK    6  A    between atoms: C_12  and  O_13
REMARK    7  A    between atoms: C_14  and  C_15
REMARK    8  A    between atoms: C_15  and  N_16
REMARK    9  A    between atoms: C_19  and  C_20
REMARK   10  A    between atoms: C_20  and  O_21
REMARK                            x       y       z     vdW  Elec       q    Type
REMARK                         _______ _______ _______ _____ _____    ______ ____
ROOT
ATOM      1  N   UNL     1       1.210   4.811  19.740  0.00  0.00    +0.000 NA
ATOM      2  C   UNL     1       1.010   3.496  20.370  0.00  0.00    +0.000 C 
ATOM      3  C   UNL     1       2.058   2.546  19.785  0.00  0.00    +0.000 C 
ATOM      4  C   UNL     1       2.213   3.083  18.354  0.00  0.00    +0.000 C 
ATOM      5  C   UNL     1       1.717   4.539  18.394  0.00  0.00    +0.000 C 
ENDROOT
BRANCH   1   6
ATOM      6  C   UNL     1       2.070   5.751  20.476  0.00  0.00    +0.000 C 
BRANCH   6  11
ATOM      7  N   UNL     1       0.903  10.652  18.155  0.00  0.00    +0.000 N 
ATOM      8  C   UNL     1       1.379   9.554  18.842  0.00  0.00    +0.000 A 
ATOM      9  N   UNL     1       0.994   9.336  20.106  0.00  0.00    +0.000 NA
ATOM     10  C   UNL     1       1.292   8.138  20.640  0.00  0.00    +0.000 A 
ATOM     11  C   UNL     1       1.958   7.148  19.956  0.00  0.00    +0.000 A 
ATOM     12  C   UNL     1       2.406   7.518  18.706  0.00  0.00    +0.000 A 
ATOM     13  N   UNL     1       2.148   8.714  18.140  0.00  0.00    +0.000 NA
ATOM     14  H   UNL     1       1.530  10.872  17.397  0.00  0.00    +0.000 HD
BRANCH   7  16
ATOM     15  C   UNL     1      -1.025  12.096  18.328  0.00  0.00    +0.000 C 
ATOM     16  C   UNL     1       0.320  11.724  18.930  0.00  0.00    +0.000 C 
ENDBRANCH   7  16
ENDBRANCH   6  11
ENDBRANCH   1   6
BRANCH   3  17
ATOM     17  C   UNL     1       3.317   2.441  20.645  0.00  0.00    +0.000 C 
BRANCH  17  18
ATOM     18  O   UNL     1       2.962   2.393  22.029  0.00  0.00    +0.000 OA
ATOM     19  H   UNL     1       3.245   3.233  22.431  0.00  0.00    +0.000 HD
ENDBRANCH  17  18
ENDBRANCH   3  17
BRANCH   4  20
ATOM     20  C   UNL     1       3.581   2.985  17.661  0.00  0.00    +0.000 C 
BRANCH  20  21
ATOM     21  N   UNL     1       4.367   4.234  17.581  0.00  0.00    +0.000 NA
ATOM     22  C   UNL     1       5.720   4.069  18.143  0.00  0.00    +0.000 C 
ATOM     23  C   UNL     1       6.545   5.351  18.029  0.00  0.00    +0.000 C 
ATOM     24  C   UNL     1       6.666   5.837  16.581  0.00  0.00    +0.000 C 
ATOM     25  C   UNL     1       5.260   5.942  15.979  0.00  0.00    +0.000 C 
ATOM     26  C   UNL     1       4.445   4.660  16.165  0.00  0.00    +0.000 C 
BRANCH  24  27
ATOM     27  C   UNL     1       7.582   4.943  15.733  0.00  0.00    +0.000 C 
BRANCH  27  28
ATOM     28  O   UNL     1       7.678   5.435  14.402  0.00  0.00    +0.000 OA
ATOM     29  H   UNL     1       7.520   6.395  14.431  0.00  0.00    +0.000 HD
ENDBRANCH  27  28
ENDBRANCH  24  27
ENDBRANCH  20  21
ENDBRANCH   4  20
TORSDOF 9
ENDMDL
MODEL 3
REMARK VINA RESULT:      -7.0      3.606      6.315
REMARK  Name = 
REMARK  10 active torsions:
REMARK  status: ('A' for Active; 'I' for Inactive)
REMARK    1  A    between atoms: C_1  and  C_2
REMARK    2  A    between atoms: C_2  and  N_3
REMARK    3  A    between atoms: C_7  and  C_8
REMARK    4  A    between atoms: C_8  and  N_9
REMARK    5  A    between atoms: C_11  and  C_12
REMARK    6  A    between atoms: C_12  and  O_13
REMARK    7  A    between atoms: C_14  and  C_15
REMARK    8  A    between atoms: C_15  and  N_16
REMARK    9  A    between atoms: C_19  and  C_20
REMARK   10  A    between atoms: C_20  and  O_21
REMARK                            x       y       z     vdW  Elec       q    Type
REMARK                         _______ _______ _______ _____ _____    ______ ____
ROOT
ATOM      1  N   UNL     1       5.427   4.217  19.305  0.00  0.00    +0.000 NA
ATOM      2  C   UNL     1       4.631   2.994  19.498  0.00  0.00    +0.000 C 
ATOM      3  C   UNL     1       3.189   3.319  19.102  0.00  0.00    +0.000 C 
ATOM      4  C   UNL     1       3.074   4.798  19.504  0.00  0.00    +0.000 C 
ATOM      5  C   UNL     1       4.514   5.333  19.561  0.00  0.00    +0.000 C 
ENDROOT
BRANCH   1   6
ATOM      6  C   UNL     1       6.104   4.343  18.006  0.00  0.00    +0.000 C 
BRANCH   6  11
ATOM      7  N   UNL     1       8.246   9.460  18.029  0.00  0.00    +0.000 N 
ATOM      8  C   UNL     1       7.924   8.124  17.912  0.00  0.00    +0.000 A 
ATOM      9  N   UNL     1       8.344   7.250  18.836  0.00  0.00    +0.000 NA
ATOM     10  C   UNL     1       7.805   6.017  18.803  0.00  0.00    +0.000 A 
ATOM     11  C   UNL     1       6.862   5.627  17.882  0.00  0.00    +0.000 A 
ATOM     12  C   UNL     1       6.586   6.565  16.912  0.00  0.00    +0.000 A 
ATOM     13  N   UNL     1       7.117   7.804  16.893  0.00  0.00    +0.000 NA
ATOM     14  H   UNL     1       8.184   9.902  17.126  0.00  0.00    +0.000 HD
BRANCH   7  16
ATOM     15  C   UNL     1       9.536  11.316  18.879  0.00  0.00    +0.000 C 
ATOM     16  C   UNL     1       9.329   9.811  18.919  0.00  0.00    +0.000 C 
ENDBRANCH   7  16
ENDBRANCH   6  11
ENDBRANCH   1   6
BRANCH   3  17
ATOM     17  C   UNL     1       2.869   2.950  17.654  0.00  0.00    +0.000 C 
BRANCH  17  18
ATOM     18  O   UNL     1       1.854   1.943  17.618  0.00  0.00    +0.000 OA
ATOM     19  H   UNL     1       0.999   2.386  17.764  0.00  0.00    +0.000 HD
ENDBRANCH  17  18
ENDBRANCH   3  17
BRANCH   4  20
ATOM     20  C   UNL     1       2.170   5.730  18.681  0.00  0.00    +0.000 C 
BRANCH  20  21
ATOM     21  N   UNL     1       2.329   7.179  18.923  0.00  0.00    +0.000 NA
ATOM     22  C   UNL     1       2.114   7.967  17.695  0.00  0.00    +0.000 C 
ATOM     23  C   UNL     1       2.245   9.469  17.953  0.00  0.00    +0.000 C 
ATOM     24  C   UNL     1       1.276   9.960  19.033  0.00  0.00    +0.000 C 
ATOM     25  C   UNL     1       1.456   9.093  20.284  0.00  0.00    +0.000 C 
ATOM     26  C   UNL     1       1.378   7.595  19.977  0.00  0.00    +0.000 C 
BRANCH  24  27
ATOM     27  C   UNL     1      -0.183   9.973  18.555  0.00  0.00    +0.000 C 
BRANCH  27  28
ATOM     28  O   UNL     1      -0.536  11.253  18.047  0.00  0.00    +0.000 OA
ATOM     29  H   UNL     1      -1.317  11.560  18.539  0.00  0.00    +0.000 HD
ENDBRANCH  27  28
ENDBRANCH  24  27
ENDBRANCH  20  21
ENDBRANCH   4  20
TORSDOF 9
ENDMDL
MODEL 4
REMARK VINA RESULT:      -6.9      3.125      5.848
REMARK  Name = 
REMARK  10 active torsions:
REMARK  status: ('A' for Active; 'I' for Inactive)
REMARK    1  A    between atoms: C_1  and  C_2
REMARK    2  A    between atoms: C_2  and  N_3
REMARK    3  A    between atoms: C_7  and  C_8
REMARK    4  A    between atoms: C_8  and  N_9
REMARK    5  A    between atoms: C_11  and  C_12
REMARK    6  A    between atoms: C_12  and  O_13
REMARK    7  A    between atoms: C_14  and  C_15
REMARK    8  A    between atoms: C_15  and  N_16
REMARK    9  A    between atoms: C_19  and  C_20
REMARK   10  A    between atoms: C_20  and  O_21
REMARK                            x       y       z     vdW  Elec       q    Type
REMARK                         _______ _______ _______ _____ _____    ______ ____
ROOT
ATOM      1  N   UNL     1       4.841   3.410  19.325  0.00  0.00    +0.000 NA
ATOM      2  C   UNL     1       4.063   2.203  19.647  0.00  0.00    +0.000 C 
ATOM      3  C   UNL     1       2.611   2.638  19.859  0.00  0.00    +0.000 C 
ATOM      4  C   UNL     1       2.783   4.044  20.454  0.00  0.00    +0.000 C 
ATOM      5  C   UNL     1       4.189   4.510  20.037  0.00  0.00    +0.000 C 
ENDROOT
BRANCH   1   6
ATOM      6  C   UNL     1       5.010   3.700  17.893  0.00  0.00    +0.000 C 
BRANCH   6  11
ATOM      7  N   UNL     1       7.559   8.610  17.487  0.00  0.00    +0.000 N 
ATOM      8  C   UNL     1       7.125   7.301  17.474  0.00  0.00    +0.000 A 
ATOM      9  N   UNL     1       7.507   6.459  18.443  0.00  0.00    +0.000 NA
ATOM     10  C   UNL     1       6.870   5.277  18.515  0.00  0.00    +0.000 A 
ATOM     11  C   UNL     1       5.863   4.905  17.655  0.00  0.00    +0.000 A 
ATOM     12  C   UNL     1       5.628   5.795  16.630  0.00  0.00    +0.000 A 
ATOM     13  N   UNL     1       6.257   6.982  16.507  0.00  0.00    +0.000 NA
ATOM     14  H   UNL     1       7.498   8.994  16.557  0.00  0.00    +0.000 HD
BRANCH   7  16
ATOM     15  C   UNL     1       8.928  10.432  18.287  0.00  0.00    +0.000 C 
ATOM     16  C   UNL     1       8.699   8.929  18.314  0.00  0.00    +0.000 C 
ENDBRANCH   7  16
ENDBRANCH   6  11
ENDBRANCH   1   6
BRANCH   3  17
ATOM     17  C   UNL     1       1.755   2.500  18.601  0.00  0.00    +0.000 C 
BRANCH  17  18
ATOM     18  O   UNL     1       2.428   1.686  17.638  0.00  0.00    +0.000 OA
ATOM     19  H   UNL     1       3.349   1.996  17.587  0.00  0.00    +0.000 HD
ENDBRANCH  17  18
ENDBRANCH   3  17
BRANCH   4  20
ATOM     20  C   UNL     1       1.731   5.122  20.149  0.00  0.00    +0.000 C 
BRANCH  20  21
ATOM     21  N   UNL     1       2.248   6.452  19.764  0.00  0.00    +0.000 NA
ATOM     22  C   UNL     1       2.306   6.617  18.300  0.00  0.00    +0.000 C 
ATOM     23  C   UNL     1       2.808   8.005  17.902  0.00  0.00    +0.000 C 
ATOM     24  C   UNL     1       1.946   9.126  18.494  0.00  0.00    +0.000 C 
ATOM     25  C   UNL     1       1.833   8.911  20.007  0.00  0.00    +0.000 C 
ATOM     26  C   UNL     1       1.385   7.493  20.367  0.00  0.00    +0.000 C 
BRANCH  24  27
ATOM     27  C   UNL     1       0.566   9.222  17.828  0.00  0.00    +0.000 C 
BRANCH  27  28
ATOM     28  O   UNL     1       0.036  10.536  17.951  0.00  0.00    +0.000 OA
ATOM     29  H   UNL     1      -0.898  10.454  18.211  0.00  0.00    +0.000 HD
ENDBRANCH  27  28
ENDBRANCH  24  27
ENDBRANCH  20  21
ENDBRANCH   4  20
TORSDOF 9
ENDMDL
MODEL 5
REMARK VINA RESULT:      -6.8      3.577      7.569
REMARK  Name = 
REMARK  10 active torsions:
REMARK  status: ('A' for Active; 'I' for Inactive)
REMARK    1  A    between atoms: C_1  and  C_2
REMARK    2  A    between atoms: C_2  and  N_3
REMARK    3  A    between atoms: C_7  and  C_8
REMARK    4  A    between atoms: C_8  and  N_9
REMARK    5  A    between atoms: C_11  and  C_12
REMARK    6  A    between atoms: C_12  and  O_13
REMARK    7  A    between atoms: C_14  and  C_15
REMARK    8  A    between atoms: C_15  and  N_16
REMARK    9  A    between atoms: C_19  and  C_20
REMARK   10  A    between atoms: C_20  and  O_21
REMARK                            x       y       z     vdW  Elec       q    Type
REMARK                         _______ _______ _______ _____ _____    ______ ____
ROOT
ATOM      1  N   UNL     1       6.529   6.102  16.360  0.00  0.00    +0.000 NA
ATOM      2  C   UNL     1       7.333   6.899  17.300  0.00  0.00    +0.000 C 
ATOM      3  C   UNL     1       7.104   6.324  18.700  0.00  0.00    +0.000 C 
ATOM      4  C   UNL     1       5.648   5.842  18.611  0.00  0.00    +0.000 C 
ATOM      5  C   UNL     1       5.353   5.661  17.113  0.00  0.00    +0.000 C 
ENDROOT
BRANCH   1   6
ATOM      6  C   UNL     1       7.225   4.981  15.712  0.00  0.00    +0.000 C 
BRANCH   6  11
ATOM      7  N   UNL     1       5.028   2.747  11.133  0.00  0.00    +0.000 N 
ATOM      8  C   UNL     1       5.507   3.518  12.172  0.00  0.00    +0.000 A 
ATOM      9  N   UNL     1       4.683   3.903  13.156  0.00  0.00    +0.000 NA
ATOM     10  C   UNL     1       5.247   4.441  14.252  0.00  0.00    +0.000 A 
ATOM     11  C   UNL     1       6.604   4.607  14.404  0.00  0.00    +0.000 A 
ATOM     12  C   UNL     1       7.348   4.282  13.290  0.00  0.00    +0.000 A 
ATOM     13  N   UNL     1       6.823   3.760  12.163  0.00  0.00    +0.000 NA
ATOM     14  H   UNL     1       5.635   2.845  10.335  0.00  0.00    +0.000 HD
BRANCH   7  16
ATOM     15  C   UNL     1       3.195   3.793   9.960  0.00  0.00    +0.000 C 
ATOM     16  C   UNL     1       3.597   2.702  10.939  0.00  0.00    +0.000 C 
ENDBRANCH   7  16
ENDBRANCH   6  11
ENDBRANCH   1   6
BRANCH   3  17
ATOM     17  C   UNL     1       8.166   5.305  19.109  0.00  0.00    +0.000 C 
BRANCH  17  18
ATOM     18  O   UNL     1       8.341   5.322  20.528  0.00  0.00    +0.000 OA
ATOM     19  H   UNL     1       8.042   6.192  20.847  0.00  0.00    +0.000 HD
ENDBRANCH  17  18
ENDBRANCH   3  17
BRANCH   4  20
ATOM     20  C   UNL     1       5.219   4.602  19.412  0.00  0.00    +0.000 C 
BRANCH  20  21
ATOM     21  N   UNL     1       3.837   4.126  19.194  0.00  0.00    +0.000 NA
ATOM     22  C   UNL     1       3.658   2.734  19.648  0.00  0.00    +0.000 C 
ATOM     23  C   UNL     1       2.220   2.253  19.454  0.00  0.00    +0.000 C 
ATOM     24  C   UNL     1       1.206   3.145  20.178  0.00  0.00    +0.000 C 
ATOM     25  C   UNL     1       1.441   4.600  19.754  0.00  0.00    +0.000 C 
ATOM     26  C   UNL     1       2.903   5.026  19.907  0.00  0.00    +0.000 C 
BRANCH  24  27
ATOM     27  C   UNL     1       1.260   2.981  21.703  0.00  0.00    +0.000 C 
BRANCH  27  28
ATOM     28  O   UNL     1       2.109   1.899  22.065  0.00  0.00    +0.000 OA
ATOM     29  H   UNL     1       1.709   1.454  22.832  0.00  0.00    +0.000 HD
ENDBRANCH  27  28
ENDBRANCH  24  27
ENDBRANCH  20  21
ENDBRANCH   4  20
TORSDOF 9
ENDMDL
MODEL 6
REMARK VINA RESULT:      -6.7      3.560      7.548
REMARK  Name = 
REMARK  10 active torsions:
REMARK  status: ('A' for Active; 'I' for Inactive)
REMARK    1  A    between atoms: C_1  and  C_2
REMARK    2  A    between atoms: C_2  and  N_3
REMARK    3  A    between atoms: C_7  and  C_8
REMARK    4  A    between atoms: C_8  and  N_9
REMARK    5  A    between atoms: C_11  and  C_12
REMARK    6  A    between atoms: C_12  and  O_13
REMARK    7  A    between atoms: C_14  and  C_15
REMARK    8  A    between atoms: C_15  and  N_16
REMARK    9  A    between atoms: C_19  and  C_20
REMARK   10  A    between atoms: C_20  and  O_21
REMARK                            x       y       z     vdW  Elec       q    Type
REMARK                         _______ _______ _______ _____ _____    ______ ____
ROOT
ATOM      1  N   UNL     1       6.804   6.244  16.130  0.00  0.00    +0.000 NA
ATOM      2  C   UNL     1       7.707   6.902  17.088  0.00  0.00    +0.000 C 
ATOM      3  C   UNL     1       7.230   6.531  18.495  0.00  0.00    +0.000 C 
ATOM      4  C   UNL     1       5.711   6.414  18.295  0.00  0.00    +0.000 C 
ATOM      5  C   UNL     1       5.500   6.174  16.791  0.00  0.00    +0.000 C 
ENDROOT
BRANCH   1   6
ATOM      6  C   UNL     1       7.244   4.931  15.633  0.00  0.00    +0.000 C 
BRANCH   6  11
ATOM      7  N   UNL     1       4.984   2.751  11.060  0.00  0.00    +0.000 N 
ATOM      8  C   UNL     1       5.473   3.510  12.103  0.00  0.00    +0.000 A 
ATOM      9  N   UNL     1       4.665   3.866  13.110  0.00  0.00    +0.000 NA
ATOM     10  C   UNL     1       5.244   4.392  14.204  0.00  0.00    +0.000 A 
ATOM     11  C   UNL     1       6.601   4.573  14.331  0.00  0.00    +0.000 A 
ATOM     12  C   UNL     1       7.326   4.278  13.197  0.00  0.00    +0.000 A 
ATOM     13  N   UNL     1       6.786   3.769  12.071  0.00  0.00    +0.000 NA
ATOM     14  H   UNL     1       5.572   2.872  10.251  0.00  0.00    +0.000 HD
BRANCH   7  16
ATOM     15  C   UNL     1       3.118   3.770   9.913  0.00  0.00    +0.000 C 
ATOM     16  C   UNL     1       3.549   2.691  10.894  0.00  0.00    +0.000 C 
ENDBRANCH   7  16
ENDBRANCH   6  11
ENDBRANCH   1   6
BRANCH   3  17
ATOM     17  C   UNL     1       7.965   5.325  19.077  0.00  0.00    +0.000 C 
BRANCH  17  18
ATOM     18  O   UNL     1       7.864   4.213  18.185  0.00  0.00    +0.000 OA
ATOM     19  H   UNL     1       8.771   3.926  17.974  0.00  0.00    +0.000 HD
ENDBRANCH  17  18
ENDBRANCH   3  17
BRANCH   4  20
ATOM     20  C   UNL     1       4.921   5.395  19.133  0.00  0.00    +0.000 C 
BRANCH  20  21
ATOM     21  N   UNL     1       3.979   4.529  18.395  0.00  0.00    +0.000 NA
ATOM     22  C   UNL     1       4.180   3.103  18.711  0.00  0.00    +0.000 C 
ATOM     23  C   UNL     1       3.182   2.210  17.973  0.00  0.00    +0.000 C 
ATOM     24  C   UNL     1       1.729   2.585  18.281  0.00  0.00    +0.000 C 
ATOM     25  C   UNL     1       1.542   4.084  18.016  0.00  0.00    +0.000 C 
ATOM     26  C   UNL     1       2.595   4.940  18.723  0.00  0.00    +0.000 C 
BRANCH  24  27
ATOM     27  C   UNL     1       1.311   2.204  19.708  0.00  0.00    +0.000 C 
BRANCH  27  28
ATOM     28  O   UNL     1       0.212   2.996  20.142  0.00  0.00    +0.000 OA
ATOM     29  H   UNL     1      -0.542   2.398  20.289  0.00  0.00    +0.000 HD
ENDBRANCH  27  28
ENDBRANCH  24  27
ENDBRANCH  20  21
ENDBRANCH   4  20
TORSDOF 9
ENDMDL
MODEL 7
REMARK VINA RESULT:      -6.6      3.419      8.018
REMARK  Name = 
REMARK  10 active torsions:
REMARK  status: ('A' for Active; 'I' for Inactive)
REMARK    1  A    between atoms: C_1  and  C_2
REMARK    2  A    between atoms: C_2  and  N_3
REMARK    3  A    between atoms: C_7  and  C_8
REMARK    4  A    between atoms: C_8  and  N_9
REMARK    5  A    between atoms: C_11  and  C_12
REMARK    6  A    between atoms: C_12  and  O_13
REMARK    7  A    between atoms: C_14  and  C_15
REMARK    8  A    between atoms: C_15  and  N_16
REMARK    9  A    between atoms: C_19  and  C_20
REMARK   10  A    between atoms: C_20  and  O_21
REMARK                            x       y       z     vdW  Elec       q    Type
REMARK                         _______ _______ _______ _____ _____    ______ ____
ROOT
ATOM      1  N   UNL     1       6.450   6.560  16.083  0.00  0.00    +0.000 NA
ATOM      2  C   UNL     1       6.545   6.998  17.485  0.00  0.00    +0.000 C 
ATOM      3  C   UNL     1       5.636   6.084  18.312  0.00  0.00    +0.000 C 
ATOM      4  C   UNL     1       4.508   5.772  17.317  0.00  0.00    +0.000 C 
ATOM      5  C   UNL     1       5.094   6.033  15.919  0.00  0.00    +0.000 C 
ENDROOT
BRANCH   1   6
ATOM      6  C   UNL     1       7.474   5.602  15.640  0.00  0.00    +0.000 C 
BRANCH   6  11
ATOM      7  N   UNL     1       6.678   2.375  11.199  0.00  0.00    +0.000 N 
ATOM      8  C   UNL     1       6.666   3.288  12.233  0.00  0.00    +0.000 A 
ATOM      9  N   UNL     1       5.964   3.032  13.344  0.00  0.00    +0.000 NA
ATOM     10  C   UNL     1       6.180   3.833  14.404  0.00  0.00    +0.000 A 
ATOM     11  C   UNL     1       7.074   4.878  14.394  0.00  0.00    +0.000 A 
ATOM     12  C   UNL     1       7.657   5.121  13.169  0.00  0.00    +0.000 A 
ATOM     13  N   UNL     1       7.454   4.358  12.076  0.00  0.00    +0.000 NA
ATOM     14  H   UNL     1       6.926   2.842  10.341  0.00  0.00    +0.000 HD
BRANCH   7  16
ATOM     15  C   UNL     1       6.284  -0.004  11.333  0.00  0.00    +0.000 C 
ATOM     16  C   UNL     1       5.642   1.367  11.186  0.00  0.00    +0.000 C 
ENDBRANCH   7  16
ENDBRANCH   6  11
ENDBRANCH   1   6
BRANCH   3  17
ATOM     17  C   UNL     1       6.381   4.905  18.935  0.00  0.00    +0.000 C 
BRANCH  17  18
ATOM     18  O   UNL     1       7.788   5.155  18.928  0.00  0.00    +0.000 OA
ATOM     19  H   UNL     1       7.940   5.950  18.387  0.00  0.00    +0.000 HD
ENDBRANCH  17  18
ENDBRANCH   3  17
BRANCH   4  20
ATOM     20  C   UNL     1       3.813   4.403  17.377  0.00  0.00    +0.000 C 
BRANCH  20  21
ATOM     21  N   UNL     1       2.532   4.349  18.111  0.00  0.00    +0.000 NA
ATOM     22  C   UNL     1       1.975   2.984  18.144  0.00  0.00    +0.000 C 
ATOM     23  C   UNL     1       0.666   2.922  18.933  0.00  0.00    +0.000 C 
ATOM     24  C   UNL     1       0.831   3.425  20.371  0.00  0.00    +0.000 C 
ATOM     25  C   UNL     1       1.474   4.816  20.334  0.00  0.00    +0.000 C 
ATOM     26  C   UNL     1       2.748   4.851  19.487  0.00  0.00    +0.000 C 
BRANCH  24  27
ATOM     27  C   UNL     1       1.631   2.451  21.247  0.00  0.00    +0.000 C 
BRANCH  27  28
ATOM     28  O   UNL     1       1.146   2.459  22.584  0.00  0.00    +0.000 OA
ATOM     29  H   UNL     1       0.453   1.780  22.650  0.00  0.00    +0.000 HD
ENDBRANCH  27  28
ENDBRANCH  24  27
ENDBRANCH  20  21
ENDBRANCH   4  20
TORSDOF 9
ENDMDL
MODEL 8
REMARK VINA RESULT:      -6.6      1.106      1.210
REMARK  Name = 
REMARK  10 active torsions:
REMARK  status: ('A' for Active; 'I' for Inactive)
REMARK    1  A    between atoms: C_1  and  C_2
REMARK    2  A    between atoms: C_2  and  N_3
REMARK    3  A    between atoms: C_7  and  C_8
REMARK    4  A    between atoms: C_8  and  N_9
REMARK    5  A    between atoms: C_11  and  C_12
REMARK    6  A    between atoms: C_12  and  O_13
REMARK    7  A    between atoms: C_14  and  C_15
REMARK    8  A    between atoms: C_15  and  N_16
REMARK    9  A    between atoms: C_19  and  C_20
REMARK   10  A    between atoms: C_20  and  O_21
REMARK                            x       y       z     vdW  Elec       q    Type
REMARK                         _______ _______ _______ _____ _____    ______ ____
ROOT
ATOM      1  N   UNL     1       1.173   5.305  19.734  0.00  0.00    +0.000 NA
ATOM      2  C   UNL     1       0.880   4.039  20.427  0.00  0.00    +0.000 C 
ATOM      3  C   UNL     1       1.775   2.962  19.808  0.00  0.00    +0.000 C 
ATOM      4  C   UNL     1       1.882   3.435  18.350  0.00  0.00    +0.000 C 
ATOM      5  C   UNL     1       1.549   4.937  18.368  0.00  0.00    +0.000 C 
ENDROOT
BRANCH   1   6
ATOM      6  C   UNL     1       2.179   6.167  20.372  0.00  0.00    +0.000 C 
BRANCH   6  11
ATOM      7  N   UNL     1      -0.133  11.204  20.144  0.00  0.00    +0.000 N 
ATOM      8  C   UNL     1       0.640  10.070  20.288  0.00  0.00    +0.000 A 
ATOM      9  N   UNL     1       0.699   9.446  21.471  0.00  0.00    +0.000 NA
ATOM     10  C   UNL     1       1.266   8.226  21.493  0.00  0.00    +0.000 A 
ATOM     11  C   UNL     1       1.774   7.606  20.376  0.00  0.00    +0.000 A 
ATOM     12  C   UNL     1       1.763   8.382  19.236  0.00  0.00    +0.000 A 
ATOM     13  N   UNL     1       1.225   9.616  19.174  0.00  0.00    +0.000 NA
ATOM     14  H   UNL     1       0.196  11.737  19.355  0.00  0.00    +0.000 HD
BRANCH   7  16
ATOM     15  C   UNL     1       0.073  13.282  21.356  0.00  0.00    +0.000 C 
ATOM     16  C   UNL     1      -0.542  11.892  21.347  0.00  0.00    +0.000 C 
ENDBRANCH   7  16
ENDBRANCH   6  11
ENDBRANCH   1   6
BRANCH   3  17
ATOM     17  C   UNL     1       3.075   2.747  20.582  0.00  0.00    +0.000 C 
BRANCH  17  18
ATOM     18  O   UNL     1       2.793   2.570  21.972  0.00  0.00    +0.000 OA
ATOM     19  H   UNL     1       3.387   1.873  22.303  0.00  0.00    +0.000 HD
ENDBRANCH  17  18
ENDBRANCH   3  17
BRANCH   4  20
ATOM     20  C   UNL     1       3.177   3.167  17.568  0.00  0.00    +0.000 C 
BRANCH  20  21
ATOM     21  N   UNL     1       4.045   4.336  17.316  0.00  0.00    +0.000 NA
ATOM     22  C   UNL     1       5.129   4.439  18.310  0.00  0.00    +0.000 C 
ATOM     23  C   UNL     1       6.048   5.629  18.029  0.00  0.00    +0.000 C 
ATOM     24  C   UNL     1       6.664   5.569  16.628  0.00  0.00    +0.000 C 
ATOM     25  C   UNL     1       5.538   5.392  15.603  0.00  0.00    +0.000 C 
ATOM     26  C   UNL     1       4.606   4.229  15.950  0.00  0.00    +0.000 C 
BRANCH  24  27
ATOM     27  C   UNL     1       7.728   4.469  16.499  0.00  0.00    +0.000 C 
BRANCH  27  28
ATOM     28  O   UNL     1       8.241   4.111  17.776  0.00  0.00    +0.000 OA
ATOM     29  H   UNL     1       8.987   3.502  17.634  0.00  0.00    +0.000 HD
ENDBRANCH  27  28
ENDBRANCH  24  27
ENDBRANCH  20  21
ENDBRANCH   4  20
TORSDOF 9
ENDMDL
MODEL 9
REMARK VINA RESULT:      -6.6      3.242      7.126
REMARK  Name = 
REMARK  10 active torsions:
REMARK  status: ('A' for Active; 'I' for Inactive)
REMARK    1  A    between atoms: C_1  and  C_2
REMARK    2  A    between atoms: C_2  and  N_3
REMARK    3  A    between atoms: C_7  and  C_8
REMARK    4  A    between atoms: C_8  and  N_9
REMARK    5  A    between atoms: C_11  and  C_12
REMARK    6  A    between atoms: C_12  and  O_13
REMARK    7  A    between atoms: C_14  and  C_15
REMARK    8  A    between atoms: C_15  and  N_16
REMARK    9  A    between atoms: C_19  and  C_20
REMARK   10  A    between atoms: C_20  and  O_21
REMARK                            x       y       z     vdW  Elec       q    Type
REMARK                         _______ _______ _______ _____ _____    ______ ____
ROOT
ATOM      1  N   UNL     1       7.006   5.838  17.821  0.00  0.00    +0.000 NA
ATOM      2  C   UNL     1       6.750   5.494  19.229  0.00  0.00    +0.000 C 
ATOM      3  C   UNL     1       5.341   4.899  19.305  0.00  0.00    +0.000 C 
ATOM      4  C   UNL     1       4.609   5.669  18.196  0.00  0.00    +0.000 C 
ATOM      5  C   UNL     1       5.705   6.192  17.252  0.00  0.00    +0.000 C 
ENDROOT
BRANCH   1   6
ATOM      6  C   UNL     1       7.697   4.811  17.027  0.00  0.00    +0.000 C 
BRANCH   6  11
ATOM      7  N   UNL     1       6.064   3.533  11.882  0.00  0.00    +0.000 N 
ATOM      8  C   UNL     1       6.269   3.995  13.165  0.00  0.00    +0.000 A 
ATOM      9  N   UNL     1       5.658   3.401  14.198  0.00  0.00    +0.000 NA
ATOM     10  C   UNL     1       6.077   3.733  15.432  0.00  0.00    +0.000 A 
ATOM     11  C   UNL     1       7.086   4.634  15.673  0.00  0.00    +0.000 A 
ATOM     12  C   UNL     1       7.568   5.268  14.548  0.00  0.00    +0.000 A 
ATOM     13  N   UNL     1       7.163   4.983  13.294  0.00  0.00    +0.000 NA
ATOM     14  H   UNL     1       6.279   4.264  11.223  0.00  0.00    +0.000 HD
BRANCH   7  16
ATOM     15  C   UNL     1       3.832   3.494  10.960  0.00  0.00    +0.000 C 
ATOM     16  C   UNL     1       4.917   2.685  11.653  0.00  0.00    +0.000 C 
ENDBRANCH   7  16
ENDBRANCH   6  11
ENDBRANCH   1   6
BRANCH   3  17
ATOM     17  C   UNL     1       5.332   3.372  19.235  0.00  0.00    +0.000 C 
BRANCH  17  18
ATOM     18  O   UNL     1       4.957   2.826  20.501  0.00  0.00    +0.000 OA
ATOM     19  H   UNL     1       5.160   1.874  20.478  0.00  0.00    +0.000 HD
ENDBRANCH  17  18
ENDBRANCH   3  17
BRANCH   4  20
ATOM     20  C   UNL     1       3.491   4.968  17.408  0.00  0.00    +0.000 C 
BRANCH  20  21
ATOM     21  N   UNL     1       2.261   4.645  18.161  0.00  0.00    +0.000 NA
ATOM     22  C   UNL     1       2.135   3.198  18.412  0.00  0.00    +0.000 C 
ATOM     23  C   UNL     1       0.881   2.867  19.221  0.00  0.00    +0.000 C 
ATOM     24  C   UNL     1       0.841   3.608  20.561  0.00  0.00    +0.000 C 
ATOM     25  C   UNL     1       1.041   5.106  20.300  0.00  0.00    +0.000 C 
ATOM     26  C   UNL     1       2.273   5.392  19.438  0.00  0.00    +0.000 C 
BRANCH  24  27
ATOM     27  C   UNL     1       1.867   3.064  21.566  0.00  0.00    +0.000 C 
BRANCH  27  28
ATOM     28  O   UNL     1       1.279   2.076  22.403  0.00  0.00    +0.000 OA
ATOM     29  H   UNL     1       0.316   2.215  22.391  0.00  0.00    +0.000 HD
ENDBRANCH  27  28
ENDBRANCH  24  27
ENDBRANCH  20  21
ENDBRANCH   4  20
TORSDOF 9
ENDMDL
