MODEL 1
REMARK VINA RESULT:      -8.4      0.000      0.000
REMARK  Name = 
REMARK  4 active torsions:
REMARK  status: ('A' for Active; 'I' for Inactive)
REMARK    1  A    between atoms: C_1  and  C_2
REMARK    2  A    between atoms: C_2  and  N_3
REMARK    3  A    between atoms: C_6  and  C_7
REMARK    4  A    between atoms: C_11  and  C_12
REMARK                            x       y       z     vdW  Elec       q    Type
REMARK                         _______ _______ _______ _____ _____    ______ ____
ROOT
ATOM      1  C   UNL     1       1.722   7.547  20.500  0.00  0.00    +0.000 C 
ATOM      2  O   UNL     1       1.483   6.973  21.569  0.00  0.00    +0.000 OA
ATOM      3  N   UNL     1       2.415   6.849  19.498  0.00  0.00    +0.000 N 
ATOM      4  C   UNL     1       2.858   7.385  18.207  0.00  0.00    +0.000 C 
ATOM      5  C   UNL     1       3.356   6.135  17.423  0.00  0.00    +0.000 C 
ATOM      6  C   UNL     1       2.241   5.097  17.859  0.00  0.00    +0.000 C 
ATOM      7  C   UNL     1       1.989   5.474  19.326  0.00  0.00    +0.000 C 
ATOM      8  C   UNL     1       2.497   4.315  20.228  0.00  0.00    +0.000 C 
ATOM      9  C   UNL     1       1.345   3.296  20.099  0.00  0.00    +0.000 C 
ATOM     10  C   UNL     1       1.129   3.036  18.575  0.00  0.00    +0.000 C 
ATOM     11  N   UNL     1       2.238   3.608  17.719  0.00  0.00    +0.000 NA
ATOM     12  C   UNL     1       3.473   3.027  18.253  0.00  0.00    +0.000 C 
ATOM     13  C   UNL     1       3.707   3.495  19.697  0.00  0.00    +0.000 C 
ENDROOT
BRANCH   5  14
ATOM     14  C   UNL     1       4.834   5.832  17.683  0.00  0.00    +0.000 A 
ATOM     15  C   UNL     1       5.460   6.016  18.930  0.00  0.00    +0.000 A 
ATOM     16  C   UNL     1       6.751   5.526  19.174  0.00  0.00    +0.000 A 
ATOM     17  C   UNL     1       7.453   4.875  18.165  0.00  0.00    +0.000 A 
ATOM     18  C   UNL     1       6.888   4.776  16.900  0.00  0.00    +0.000 A 
ATOM     19  F   UNL     1       7.562   4.148  15.930  0.00  0.00    +0.000 F 
ATOM     20  C   UNL     1       5.597   5.267  16.656  0.00  0.00    +0.000 A 
ATOM     21  F   UNL     1       5.069   5.112  15.432  0.00  0.00    +0.000 F 
ENDBRANCH   5  14
BRANCH   1  25
ATOM     22  N   UNL     1       0.032  10.534  19.453  0.00  0.00    +0.000 N 
ATOM     23  C   UNL     1       0.393  10.955  20.697  0.00  0.00    +0.000 A 
ATOM     24  C   UNL     1       1.113   9.923  21.237  0.00  0.00    +0.000 A 
ATOM     25  C   UNL     1       1.126   8.885  20.254  0.00  0.00    +0.000 A 
ATOM     26  N   UNL     1       0.455   9.285  19.153  0.00  0.00    +0.000 NA
BRANCH  22  28
ATOM     27  C   UNL     1      -1.637  10.433  17.657  0.00  0.00    +0.000 C 
ATOM     28  C   UNL     1      -0.718  11.312  18.485  0.00  0.00    +0.000 C 
ENDBRANCH  22  28
ENDBRANCH   1  25
TORSDOF 3
ENDMDL
MODEL 2
REMARK VINA RESULT:      -8.2      0.846      1.300
REMARK  Name = 
REMARK  4 active torsions:
REMARK  status: ('A' for Active; 'I' for Inactive)
REMARK    1  A    between atoms: C_1  and  C_2
REMARK    2  A    between atoms: C_2  and  N_3
REMARK    3  A    between atoms: C_6  and  C_7
REMARK    4  A    between atoms: C_11  and  C_12
REMARK                            x       y       z     vdW  Elec       q    Type
REMARK                         _______ _______ _______ _____ _____    ______ ____
ROOT
ATOM      1  C   UNL     1       1.819   7.407  20.473  0.00  0.00    +0.000 C 
ATOM      2  O   UNL     1       1.591   6.813  21.535  0.00  0.00    +0.000 OA
ATOM      3  N   UNL     1       2.512   6.732  19.457  0.00  0.00    +0.000 N 
ATOM      4  C   UNL     1       2.943   7.292  18.171  0.00  0.00    +0.000 C 
ATOM      5  C   UNL     1       3.446   6.060  17.364  0.00  0.00    +0.000 C 
ATOM      6  C   UNL     1       2.343   5.005  17.789  0.00  0.00    +0.000 C 
ATOM      7  C   UNL     1       2.096   5.356  19.264  0.00  0.00    +0.000 C 
ATOM      8  C   UNL     1       2.619   4.186  20.144  0.00  0.00    +0.000 C 
ATOM      9  C   UNL     1       1.475   3.160  20.005  0.00  0.00    +0.000 C 
ATOM     10  C   UNL     1       1.253   2.924  18.477  0.00  0.00    +0.000 C 
ATOM     11  N   UNL     1       2.351   3.519  17.624  0.00  0.00    +0.000 NA
ATOM     12  C   UNL     1       3.594   2.940  18.141  0.00  0.00    +0.000 C 
ATOM     13  C   UNL     1       3.833   3.386  19.592  0.00  0.00    +0.000 C 
ENDROOT
BRANCH   5  14
ATOM     14  C   UNL     1       4.929   5.766  17.610  0.00  0.00    +0.000 A 
ATOM     15  C   UNL     1       5.568   5.969  18.847  0.00  0.00    +0.000 A 
ATOM     16  C   UNL     1       6.865   5.486  19.082  0.00  0.00    +0.000 A 
ATOM     17  C   UNL     1       7.556   4.823  18.073  0.00  0.00    +0.000 A 
ATOM     18  C   UNL     1       6.976   4.705  16.817  0.00  0.00    +0.000 A 
ATOM     19  F   UNL     1       7.640   4.064  15.848  0.00  0.00    +0.000 F 
ATOM     20  C   UNL     1       5.680   5.188  16.583  0.00  0.00    +0.000 A 
ATOM     21  F   UNL     1       5.139   5.014  15.367  0.00  0.00    +0.000 F 
ENDBRANCH   5  14
BRANCH   1  25
ATOM     22  N   UNL     1       0.349  10.680  20.514  0.00  0.00    +0.000 N 
ATOM     23  C   UNL     1       0.671  10.641  19.192  0.00  0.00    +0.000 A 
ATOM     24  C   UNL     1       1.215   9.401  18.984  0.00  0.00    +0.000 A 
ATOM     25  C   UNL     1       1.211   8.743  20.254  0.00  0.00    +0.000 A 
ATOM     26  N   UNL     1       0.665   9.550  21.188  0.00  0.00    +0.000 NA
BRANCH  22  28
ATOM     27  C   UNL     1      -0.806  11.384  22.562  0.00  0.00    +0.000 C 
ATOM     28  C   UNL     1      -0.293  11.790  21.193  0.00  0.00    +0.000 C 
ENDBRANCH  22  28
ENDBRANCH   1  25
TORSDOF 3
ENDMDL
MODEL 3
REMARK VINA RESULT:      -7.9      2.292      4.104
REMARK  Name = 
REMARK  4 active torsions:
REMARK  status: ('A' for Active; 'I' for Inactive)
REMARK    1  A    between atoms: C_1  and  C_2
REMARK    2  A    between atoms: C_2  and  N_3
REMARK    3  A    between atoms: C_6  and  C_7
REMARK    4  A    between atoms: C_11  and  C_12
REMARK                            x       y       z     vdW  Elec       q    Type
REMARK                         _______ _______ _______ _____ _____    ______ ____
ROOT
ATOM      1  C   UNL     1       2.167   8.408  18.157  0.00  0.00    +0.000 C 
ATOM      2  O   UNL     1       2.392   8.785  17.001  0.00  0.00    +0.000 OA
ATOM      3  N   UNL     1       2.710   7.187  18.588  0.00  0.00    +0.000 N 
ATOM      4  C   UNL     1       2.488   6.541  19.886  0.00  0.00    +0.000 C 
ATOM      5  C   UNL     1       3.499   5.357  19.903  0.00  0.00    +0.000 C 
ATOM      6  C   UNL     1       4.743   6.071  19.229  0.00  0.00    +0.000 C 
ATOM      7  C   UNL     1       4.081   6.966  18.170  0.00  0.00    +0.000 C 
ATOM      8  C   UNL     1       4.456   6.425  16.762  0.00  0.00    +0.000 C 
ATOM      9  C   UNL     1       5.890   6.970  16.594  0.00  0.00    +0.000 C 
ATOM     10  C   UNL     1       6.711   6.496  17.835  0.00  0.00    +0.000 C 
ATOM     11  N   UNL     1       5.982   5.458  18.659  0.00  0.00    +0.000 NA
ATOM     12  C   UNL     1       5.653   4.383  17.718  0.00  0.00    +0.000 C 
ATOM     13  C   UNL     1       4.683   4.891  16.640  0.00  0.00    +0.000 C 
ENDROOT
BRANCH   5  14
ATOM     14  C   UNL     1       2.916   4.081  19.289  0.00  0.00    +0.000 A 
ATOM     15  C   UNL     1       1.746   4.057  18.508  0.00  0.00    +0.000 A 
ATOM     16  C   UNL     1       1.373   2.908  17.793  0.00  0.00    +0.000 A 
ATOM     17  C   UNL     1       2.145   1.754  17.876  0.00  0.00    +0.000 A 
ATOM     18  C   UNL     1       3.246   1.733  18.723  0.00  0.00    +0.000 A 
ATOM     19  F   UNL     1       3.989   0.623  18.800  0.00  0.00    +0.000 F 
ATOM     20  C   UNL     1       3.617   2.881  19.437  0.00  0.00    +0.000 A 
ATOM     21  F   UNL     1       4.714   2.832  20.210  0.00  0.00    +0.000 F 
ENDBRANCH   5  14
BRANCH   1  25
ATOM     22  N   UNL     1       0.582  10.233  20.810  0.00  0.00    +0.000 N 
ATOM     23  C   UNL     1       0.697  11.261  19.924  0.00  0.00    +0.000 A 
ATOM     24  C   UNL     1       1.254  10.714  18.799  0.00  0.00    +0.000 A 
ATOM     25  C   UNL     1       1.475   9.331  19.092  0.00  0.00    +0.000 A 
ATOM     26  N   UNL     1       1.047   9.051  20.341  0.00  0.00    +0.000 NA
BRANCH  22  28
ATOM     27  C   UNL     1      -0.463   8.971  22.637  0.00  0.00    +0.000 C 
ATOM     28  C   UNL     1       0.007  10.326  22.139  0.00  0.00    +0.000 C 
ENDBRANCH  22  28
ENDBRANCH   1  25
TORSDOF 3
ENDMDL
MODEL 4
REMARK VINA RESULT:      -7.5      2.207      3.929
REMARK  Name = 
REMARK  4 active torsions:
REMARK  status: ('A' for Active; 'I' for Inactive)
REMARK    1  A    between atoms: C_1  and  C_2
REMARK    2  A    between atoms: C_2  and  N_3
REMARK    3  A    between atoms: C_6  and  C_7
REMARK    4  A    between atoms: C_11  and  C_12
REMARK                            x       y       z     vdW  Elec       q    Type
REMARK                         _______ _______ _______ _____ _____    ______ ____
ROOT
ATOM      1  C   UNL     1       2.173   8.380  18.236  0.00  0.00    +0.000 C 
ATOM      2  O   UNL     1       2.380   8.787  17.086  0.00  0.00    +0.000 OA
ATOM      3  N   UNL     1       2.732   7.154  18.630  0.00  0.00    +0.000 N 
ATOM      4  C   UNL     1       2.532   6.475  19.915  0.00  0.00    +0.000 C 
ATOM      5  C   UNL     1       3.553   5.300  19.891  0.00  0.00    +0.000 C 
ATOM      6  C   UNL     1       4.782   6.040  19.218  0.00  0.00    +0.000 C 
ATOM      7  C   UNL     1       4.099   6.954  18.190  0.00  0.00    +0.000 C 
ATOM      8  C   UNL     1       4.461   6.451  16.765  0.00  0.00    +0.000 C 
ATOM      9  C   UNL     1       5.888   7.013  16.592  0.00  0.00    +0.000 C 
ATOM     10  C   UNL     1       6.728   6.517  17.811  0.00  0.00    +0.000 C 
ATOM     11  N   UNL     1       6.020   5.452  18.619  0.00  0.00    +0.000 NA
ATOM     12  C   UNL     1       5.687   4.398  17.656  0.00  0.00    +0.000 C 
ATOM     13  C   UNL     1       4.700   4.923  16.603  0.00  0.00    +0.000 C 
ENDROOT
BRANCH   5  14
ATOM     14  C   UNL     1       2.973   4.034  19.253  0.00  0.00    +0.000 A 
ATOM     15  C   UNL     1       1.811   4.023  18.460  0.00  0.00    +0.000 A 
ATOM     16  C   UNL     1       1.443   2.885  17.726  0.00  0.00    +0.000 A 
ATOM     17  C   UNL     1       2.211   1.728  17.801  0.00  0.00    +0.000 A 
ATOM     18  C   UNL     1       3.303   1.693  18.658  0.00  0.00    +0.000 A 
ATOM     19  F   UNL     1       4.043   0.580  18.728  0.00  0.00    +0.000 F 
ATOM     20  C   UNL     1       3.670   2.830  19.392  0.00  0.00    +0.000 A 
ATOM     21  F   UNL     1       4.758   2.767  20.175  0.00  0.00    +0.000 F 
ENDBRANCH   5  14
BRANCH   1  25
ATOM     22  N   UNL     1       0.437  10.892  20.121  0.00  0.00    +0.000 N 
ATOM     23  C   UNL     1       0.368   9.892  21.043  0.00  0.00    +0.000 A 
ATOM     24  C   UNL     1       1.046   8.838  20.490  0.00  0.00    +0.000 A 
ATOM     25  C   UNL     1       1.486   9.274  19.201  0.00  0.00    +0.000 A 
ATOM     26  N   UNL     1       1.103  10.552  18.993  0.00  0.00    +0.000 NA
BRANCH  22  28
ATOM     27  C   UNL     1      -1.012  12.599  19.119  0.00  0.00    +0.000 C 
ATOM     28  C   UNL     1      -0.112  12.225  20.282  0.00  0.00    +0.000 C 
ENDBRANCH  22  28
ENDBRANCH   1  25
TORSDOF 3
ENDMDL
MODEL 5
REMARK VINA RESULT:      -7.3      1.360      1.645
REMARK  Name = 
REMARK  4 active torsions:
REMARK  status: ('A' for Active; 'I' for Inactive)
REMARK    1  A    between atoms: C_1  and  C_2
REMARK    2  A    between atoms: C_2  and  N_3
REMARK    3  A    between atoms: C_6  and  C_7
REMARK    4  A    between atoms: C_11  and  C_12
REMARK                            x       y       z     vdW  Elec       q    Type
REMARK                         _______ _______ _______ _____ _____    ______ ____
ROOT
ATOM      1  C   UNL     1       2.010   6.738  20.592  0.00  0.00    +0.000 C 
ATOM      2  O   UNL     1       1.819   6.113  21.643  0.00  0.00    +0.000 OA
ATOM      3  N   UNL     1       2.583   6.067  19.501  0.00  0.00    +0.000 N 
ATOM      4  C   UNL     1       2.957   6.656  18.211  0.00  0.00    +0.000 C 
ATOM      5  C   UNL     1       3.319   5.432  17.320  0.00  0.00    +0.000 C 
ATOM      6  C   UNL     1       2.181   4.431  17.783  0.00  0.00    +0.000 C 
ATOM      7  C   UNL     1       2.064   4.731  19.285  0.00  0.00    +0.000 C 
ATOM      8  C   UNL     1       2.569   3.492  20.076  0.00  0.00    +0.000 C 
ATOM      9  C   UNL     1       1.353   2.547  19.981  0.00  0.00    +0.000 C 
ATOM     10  C   UNL     1       1.007   2.393  18.466  0.00  0.00    +0.000 C 
ATOM     11  N   UNL     1       2.079   2.956  17.559  0.00  0.00    +0.000 NA
ATOM     12  C   UNL     1       3.315   2.277  17.959  0.00  0.00    +0.000 C 
ATOM     13  C   UNL     1       3.685   2.642  19.405  0.00  0.00    +0.000 C 
ENDROOT
BRANCH   5  14
ATOM     14  C   UNL     1       4.793   5.034  17.444  0.00  0.00    +0.000 A 
ATOM     15  C   UNL     1       5.528   4.435  16.405  0.00  0.00    +0.000 A 
ATOM     16  C   UNL     1       6.920   4.286  16.493  0.00  0.00    +0.000 A 
ATOM     17  C   UNL     1       7.596   4.701  17.635  0.00  0.00    +0.000 A 
ATOM     18  C   UNL     1       6.870   5.201  18.709  0.00  0.00    +0.000 A 
ATOM     19  F   UNL     1       7.521   5.602  19.807  0.00  0.00    +0.000 F 
ATOM     20  C   UNL     1       5.478   5.348  18.621  0.00  0.00    +0.000 A 
ATOM     21  F   UNL     1       4.820   5.877  19.664  0.00  0.00    +0.000 F 
ENDBRANCH   5  14
BRANCH   1  25
ATOM     22  N   UNL     1       0.632   9.943  19.751  0.00  0.00    +0.000 N 
ATOM     23  C   UNL     1       0.577  10.071  21.105  0.00  0.00    +0.000 A 
ATOM     24  C   UNL     1       1.128   8.920  21.604  0.00  0.00    +0.000 A 
ATOM     25  C   UNL     1       1.477   8.119  20.472  0.00  0.00    +0.000 A 
ATOM     26  N   UNL     1       1.168   8.773  19.332  0.00  0.00    +0.000 NA
BRANCH  22  28
ATOM     27  C   UNL     1      -1.036  10.478  18.033  0.00  0.00    +0.000 C 
ATOM     28  C   UNL     1       0.194  10.940  18.792  0.00  0.00    +0.000 C 
ENDBRANCH  22  28
ENDBRANCH   1  25
TORSDOF 3
ENDMDL
MODEL 6
REMARK VINA RESULT:      -7.1      1.582      2.051
REMARK  Name = 
REMARK  4 active torsions:
REMARK  status: ('A' for Active; 'I' for Inactive)
REMARK    1  A    between atoms: C_1  and  C_2
REMARK    2  A    between atoms: C_2  and  N_3
REMARK    3  A    between atoms: C_6  and  C_7
REMARK    4  A    between atoms: C_11  and  C_12
REMARK                            x       y       z     vdW  Elec       q    Type
REMARK                         _______ _______ _______ _____ _____    ______ ____
ROOT
ATOM      1  C   UNL     1       1.911   6.820  20.448  0.00  0.00    +0.000 C 
ATOM      2  O   UNL     1       1.708   6.252  21.528  0.00  0.00    +0.000 OA
ATOM      3  N   UNL     1       2.525   6.100  19.411  0.00  0.00    +0.000 N 
ATOM      4  C   UNL     1       2.918   6.623  18.098  0.00  0.00    +0.000 C 
ATOM      5  C   UNL     1       3.327   5.358  17.288  0.00  0.00    +0.000 C 
ATOM      6  C   UNL     1       2.200   4.360  17.782  0.00  0.00    +0.000 C 
ATOM      7  C   UNL     1       2.039   4.742  19.261  0.00  0.00    +0.000 C 
ATOM      8  C   UNL     1       2.551   3.562  20.134  0.00  0.00    +0.000 C 
ATOM      9  C   UNL     1       1.358   2.587  20.065  0.00  0.00    +0.000 C 
ATOM     10  C   UNL     1       1.052   2.339  18.554  0.00  0.00    +0.000 C 
ATOM     11  N   UNL     1       2.134   2.872  17.641  0.00  0.00    +0.000 NA
ATOM     12  C   UNL     1       3.374   2.245  18.108  0.00  0.00    +0.000 C 
ATOM     13  C   UNL     1       3.701   2.700  19.539  0.00  0.00    +0.000 C 
ENDROOT
BRANCH   5  14
ATOM     14  C   UNL     1       4.805   5.000  17.469  0.00  0.00    +0.000 A 
ATOM     15  C   UNL     1       5.581   4.371  16.479  0.00  0.00    +0.000 A 
ATOM     16  C   UNL     1       6.974   4.259  16.610  0.00  0.00    +0.000 A 
ATOM     17  C   UNL     1       7.609   4.742  17.749  0.00  0.00    +0.000 A 
ATOM     18  C   UNL     1       6.843   5.274  18.778  0.00  0.00    +0.000 A 
ATOM     19  F   UNL     1       7.455   5.741  19.873  0.00  0.00    +0.000 F 
ATOM     20  C   UNL     1       5.452   5.385  18.647  0.00  0.00    +0.000 A 
ATOM     21  F   UNL     1       4.754   5.946  19.647  0.00  0.00    +0.000 F 
ENDBRANCH   5  14
BRANCH   1  25
ATOM     22  N   UNL     1       0.469  10.105  20.500  0.00  0.00    +0.000 N 
ATOM     23  C   UNL     1       1.002  10.160  19.248  0.00  0.00    +0.000 A 
ATOM     24  C   UNL     1       1.567   8.930  19.038  0.00  0.00    +0.000 A 
ATOM     25  C   UNL     1       1.353   8.179  20.236  0.00  0.00    +0.000 A 
ATOM     26  N   UNL     1       0.666   8.923  21.128  0.00  0.00    +0.000 NA
BRANCH  22  28
ATOM     27  C   UNL     1      -0.621  10.816  22.581  0.00  0.00    +0.000 C 
ATOM     28  C   UNL     1      -0.270  11.173  21.148  0.00  0.00    +0.000 C 
ENDBRANCH  22  28
ENDBRANCH   1  25
TORSDOF 3
ENDMDL
MODEL 7
REMARK VINA RESULT:      -6.8      8.447     10.386
REMARK  Name = 
REMARK  4 active torsions:
REMARK  status: ('A' for Active; 'I' for Inactive)
REMARK    1  A    between atoms: C_1  and  C_2
REMARK    2  A    between atoms: C_2  and  N_3
REMARK    3  A    between atoms: C_6  and  C_7
REMARK    4  A    between atoms: C_11  and  C_12
REMARK                            x       y       z     vdW  Elec       q    Type
REMARK                         _______ _______ _______ _____ _____    ______ ____
ROOT
ATOM      1  C   UNL     1       6.156  13.076  23.087  0.00  0.00    +0.000 C 
ATOM      2  O   UNL     1       5.108  13.390  22.510  0.00  0.00    +0.000 OA
ATOM      3  N   UNL     1       7.376  13.251  22.414  0.00  0.00    +0.000 N 
ATOM      4  C   UNL     1       8.705  12.864  22.899  0.00  0.00    +0.000 C 
ATOM      5  C   UNL     1       9.688  13.493  21.870  0.00  0.00    +0.000 C 
ATOM      6  C   UNL     1       8.964  14.884  21.639  0.00  0.00    +0.000 C 
ATOM      7  C   UNL     1       7.477  14.497  21.680  0.00  0.00    +0.000 C 
ATOM      8  C   UNL     1       6.877  14.690  20.259  0.00  0.00    +0.000 C 
ATOM      9  C   UNL     1       6.669  16.218  20.217  0.00  0.00    +0.000 C 
ATOM     10  C   UNL     1       8.041  16.880  20.560  0.00  0.00    +0.000 C 
ATOM     11  N   UNL     1       9.187  15.892  20.556  0.00  0.00    +0.000 NA
ATOM     12  C   UNL     1       9.144  15.260  19.234  0.00  0.00    +0.000 C 
ATOM     13  C   UNL     1       7.840  14.467  19.058  0.00  0.00    +0.000 C 
ENDROOT
BRANCH   5  14
ATOM     14  C   UNL     1       9.968  12.565  20.685  0.00  0.00    +0.000 A 
ATOM     15  C   UNL     1       9.140  11.485  20.329  0.00  0.00    +0.000 A 
ATOM     16  C   UNL     1       9.320  10.800  19.117  0.00  0.00    +0.000 A 
ATOM     17  C   UNL     1      10.352  11.161  18.258  0.00  0.00    +0.000 A 
ATOM     18  C   UNL     1      11.239  12.158  18.644  0.00  0.00    +0.000 A 
ATOM     19  F   UNL     1      12.231  12.506  17.816  0.00  0.00    +0.000 F 
ATOM     20  C   UNL     1      11.059  12.842  19.856  0.00  0.00    +0.000 A 
ATOM     21  F   UNL     1      11.912  13.829  20.170  0.00  0.00    +0.000 F 
ENDBRANCH   5  14
BRANCH   1  25
ATOM     22  N   UNL     1       5.918  11.603  26.350  0.00  0.00    +0.000 N 
ATOM     23  C   UNL     1       6.467  12.791  26.726  0.00  0.00    +0.000 A 
ATOM     24  C   UNL     1       6.584  13.521  25.573  0.00  0.00    +0.000 A 
ATOM     25  C   UNL     1       6.099  12.685  24.518  0.00  0.00    +0.000 A 
ATOM     26  N   UNL     1       5.686  11.503  25.021  0.00  0.00    +0.000 NA
BRANCH  22  28
ATOM     27  C   UNL     1       6.526  10.439  28.424  0.00  0.00    +0.000 C 
ATOM     28  C   UNL     1       5.572  10.515  27.245  0.00  0.00    +0.000 C 
ENDBRANCH  22  28
ENDBRANCH   1  25
TORSDOF 3
ENDMDL
MODEL 8
REMARK VINA RESULT:      -6.8      3.625      7.006
REMARK  Name = 
REMARK  4 active torsions:
REMARK  status: ('A' for Active; 'I' for Inactive)
REMARK    1  A    between atoms: C_1  and  C_2
REMARK    2  A    between atoms: C_2  and  N_3
REMARK    3  A    between atoms: C_6  and  C_7
REMARK    4  A    between atoms: C_11  and  C_12
REMARK                            x       y       z     vdW  Elec       q    Type
REMARK                         _______ _______ _______ _____ _____    ______ ____
ROOT
ATOM      1  C   UNL     1       5.820   4.948  15.805  0.00  0.00    +0.000 C 
ATOM      2  O   UNL     1       6.529   5.888  16.184  0.00  0.00    +0.000 OA
ATOM      3  N   UNL     1       4.720   4.572  16.591  0.00  0.00    +0.000 N 
ATOM      4  C   UNL     1       3.820   3.439  16.349  0.00  0.00    +0.000 C 
ATOM      5  C   UNL     1       2.670   3.635  17.380  0.00  0.00    +0.000 C 
ATOM      6  C   UNL     1       2.507   5.209  17.288  0.00  0.00    +0.000 C 
ATOM      7  C   UNL     1       3.958   5.686  17.120  0.00  0.00    +0.000 C 
ATOM      8  C   UNL     1       4.374   6.460  18.402  0.00  0.00    +0.000 C 
ATOM      9  C   UNL     1       3.702   7.829  18.169  0.00  0.00    +0.000 C 
ATOM     10  C   UNL     1       2.188   7.558  17.901  0.00  0.00    +0.000 C 
ATOM     11  N   UNL     1       1.782   6.135  18.212  0.00  0.00    +0.000 NA
ATOM     12  C   UNL     1       2.189   5.915  19.603  0.00  0.00    +0.000 C 
ATOM     13  C   UNL     1       3.717   6.006  19.736  0.00  0.00    +0.000 C 
ENDROOT
BRANCH   5  14
ATOM     14  C   UNL     1       2.971   2.970  18.726  0.00  0.00    +0.000 A 
ATOM     15  C   UNL     1       4.263   2.590  19.135  0.00  0.00    +0.000 A 
ATOM     16  C   UNL     1       4.517   2.184  20.454  0.00  0.00    +0.000 A 
ATOM     17  C   UNL     1       3.478   2.118  21.376  0.00  0.00    +0.000 A 
ATOM     18  C   UNL     1       2.182   2.393  20.959  0.00  0.00    +0.000 A 
ATOM     19  F   UNL     1       1.183   2.332  21.848  0.00  0.00    +0.000 F 
ATOM     20  C   UNL     1       1.928   2.798  19.641  0.00  0.00    +0.000 A 
ATOM     21  F   UNL     1       0.668   3.098  19.291  0.00  0.00    +0.000 F 
ENDBRANCH   5  14
BRANCH   1  25
ATOM     22  N   UNL     1       5.839   3.415  12.561  0.00  0.00    +0.000 N 
ATOM     23  C   UNL     1       7.058   4.016  12.485  0.00  0.00    +0.000 A 
ATOM     24  C   UNL     1       7.241   4.626  13.698  0.00  0.00    +0.000 A 
ATOM     25  C   UNL     1       6.059   4.365  14.460  0.00  0.00    +0.000 A 
ATOM     26  N   UNL     1       5.205   3.608  13.740  0.00  0.00    +0.000 NA
BRANCH  22  28
ATOM     27  C   UNL     1       3.884   3.172  11.098  0.00  0.00    +0.000 C 
ATOM     28  C   UNL     1       5.230   2.611  11.517  0.00  0.00    +0.000 C 
ENDBRANCH  22  28
ENDBRANCH   1  25
TORSDOF 3
ENDMDL
MODEL 9
REMARK VINA RESULT:      -6.7      2.467      4.311
REMARK  Name = 
REMARK  4 active torsions:
REMARK  status: ('A' for Active; 'I' for Inactive)
REMARK    1  A    between atoms: C_1  and  C_2
REMARK    2  A    between atoms: C_2  and  N_3
REMARK    3  A    between atoms: C_6  and  C_7
REMARK    4  A    between atoms: C_11  and  C_12
REMARK                            x       y       z     vdW  Elec       q    Type
REMARK                         _______ _______ _______ _____ _____    ______ ____
ROOT
ATOM      1  C   UNL     1       2.189   8.096  18.349  0.00  0.00    +0.000 C 
ATOM      2  O   UNL     1       2.320   8.539  17.201  0.00  0.00    +0.000 OA
ATOM      3  N   UNL     1       2.841   6.901  18.690  0.00  0.00    +0.000 N 
ATOM      4  C   UNL     1       2.740   6.184  19.965  0.00  0.00    +0.000 C 
ATOM      5  C   UNL     1       3.831   5.077  19.871  0.00  0.00    +0.000 C 
ATOM      6  C   UNL     1       4.981   5.908  19.164  0.00  0.00    +0.000 C 
ATOM      7  C   UNL     1       4.197   6.798  18.188  0.00  0.00    +0.000 C 
ATOM      8  C   UNL     1       4.527   6.348  16.737  0.00  0.00    +0.000 C 
ATOM      9  C   UNL     1       5.907   7.003  16.517  0.00  0.00    +0.000 C 
ATOM     10  C   UNL     1       6.830   6.536  17.687  0.00  0.00    +0.000 C 
ATOM     11  N   UNL     1       6.225   5.412  18.499  0.00  0.00    +0.000 NA
ATOM     12  C   UNL     1       5.918   4.359  17.527  0.00  0.00    +0.000 C 
ATOM     13  C   UNL     1       4.854   4.842  16.529  0.00  0.00    +0.000 C 
ENDROOT
BRANCH   5  14
ATOM     14  C   UNL     1       3.305   3.790  19.229  0.00  0.00    +0.000 A 
ATOM     15  C   UNL     1       4.123   2.696  18.893  0.00  0.00    +0.000 A 
ATOM     16  C   UNL     1       3.569   1.466  18.508  0.00  0.00    +0.000 A 
ATOM     17  C   UNL     1       2.189   1.319  18.419  0.00  0.00    +0.000 A 
ATOM     18  C   UNL     1       1.373   2.420  18.649  0.00  0.00    +0.000 A 
ATOM     19  F   UNL     1       0.046   2.278  18.565  0.00  0.00    +0.000 F 
ATOM     20  C   UNL     1       1.928   3.650  19.033  0.00  0.00    +0.000 A 
ATOM     21  F   UNL     1       1.102   4.676  19.289  0.00  0.00    +0.000 F 
ENDBRANCH   5  14
BRANCH   1  25
ATOM     22  N   UNL     1       0.663   9.697  21.174  0.00  0.00    +0.000 N 
ATOM     23  C   UNL     1       0.590  10.746  20.309  0.00  0.00    +0.000 A 
ATOM     24  C   UNL     1       1.100  10.280  19.126  0.00  0.00    +0.000 A 
ATOM     25  C   UNL     1       1.490   8.925  19.363  0.00  0.00    +0.000 A 
ATOM     26  N   UNL     1       1.206   8.580  20.637  0.00  0.00    +0.000 NA
BRANCH  22  28
ATOM     27  C   UNL     1      -0.791  10.828  22.795  0.00  0.00    +0.000 C 
ATOM     28  C   UNL     1       0.201   9.706  22.550  0.00  0.00    +0.000 C 
ENDBRANCH  22  28
ENDBRANCH   1  25
TORSDOF 3
ENDMDL
