MODEL 1
REMARK VINA RESULT:      -6.4      0.000      0.000
REMARK  Name = 
REMARK  20 active torsions:
REMARK  status: ('A' for Active; 'I' for Inactive)
REMARK    1  A    between atoms: C_1  and  C_2
REMARK    2  A    between atoms: C_2  and  C_3
REMARK    3  A    between atoms: C_3  and  C_4
REMARK    4  A    between atoms: C_4  and  C_5
REMARK    5  A    between atoms: C_5  and  C_6
REMARK    6  A    between atoms: C_6  and  C_7
REMARK    7  A    between atoms: C_7  and  C_8
REMARK    8  A    between atoms: C_8  and  C_9
REMARK    9  A    between atoms: C_10  and  C_11
REMARK   10  A    between atoms: C_12  and  C_13
REMARK   11  A    between atoms: C_14  and  C_15
REMARK   12  A    between atoms: C_16  and  C_17
REMARK   13  A    between atoms: C_17  and  C_18
REMARK   14  A    between atoms: C_18  and  C_19
REMARK   15  A    between atoms: C_19  and  C_20
REMARK   16  A    between atoms: C_20  and  C_21
REMARK   17  A    between atoms: C_21  and  C_22
REMARK   18  A    between atoms: C_22  and  C_23
REMARK   19  A    between atoms: C_23  and  C_24
REMARK   20  A    between atoms: C_27  and  C_28
REMARK                            x       y       z     vdW  Elec       q    Type
REMARK                         _______ _______ _______ _____ _____    ______ ____
ROOT
ATOM      1  C   UNL     1       3.038   6.866  18.538  0.00  0.00    +0.000 A 
ATOM      2  C   UNL     1       3.766   6.368  17.446  0.00  0.00    +0.000 A 
ATOM      3  C   UNL     1       4.659   7.267  16.615  0.00  0.00    +0.000 C 
ATOM      4  C   UNL     1       3.703   4.991  17.165  0.00  0.00    +0.000 A 
ATOM      5  C   UNL     1       2.981   4.123  18.031  0.00  0.00    +0.000 A 
ATOM      6  N   UNL     1       2.297   4.637  19.107  0.00  0.00    +0.000 N 
ATOM      7  C   UNL     1       2.350   5.981  19.402  0.00  0.00    +0.000 A 
ATOM      8  C   UNL     1       1.698   6.537  20.657  0.00  0.00    +0.000 C 
ATOM      9  C   UNL     1       1.513   3.749  20.018  0.00  0.00    +0.000 C 
ATOM     10  C   UNL     1       1.148   2.420  19.400  0.00  0.00    +0.000 C 
ATOM     11  C   UNL     1       2.398   1.772  18.864  0.00  0.00    +0.000 C 
ATOM     12  C   UNL     1       2.972   2.633  17.750  0.00  0.00    +0.000 C 
ENDROOT
BRANCH   4  13
ATOM     13  C   UNL     1       4.475   4.482  16.000  0.00  0.00    +0.000 C 
ATOM     14  C   UNL     1       5.762   4.087  15.938  0.00  0.00    +0.000 C 
BRANCH  14  15
ATOM     15  C   UNL     1       6.840   4.161  16.989  0.00  0.00    +0.000 C 
BRANCH  15  16
ATOM     16  C   UNL     1       7.535   5.522  17.209  0.00  0.00    +0.000 C 
BRANCH  16  17
ATOM     17  C   UNL     1       7.578   6.045  18.659  0.00  0.00    +0.000 C 
BRANCH  17  18
ATOM     18  C   UNL     1       8.313   7.398  18.732  0.00  0.00    +0.000 C 
BRANCH  18  19
ATOM     19  C   UNL     1       7.764   8.457  17.763  0.00  0.00    +0.000 C 
BRANCH  19  20
ATOM     20  C   UNL     1       8.572   9.759  17.871  0.00  0.00    +0.000 C 
BRANCH  20  21
ATOM     21  C   UNL     1       9.174   9.983  19.261  0.00  0.00    +0.000 C 
ATOM     22  C   UNL     1       9.665  11.417  19.418  0.00  0.00    +0.000 C 
ENDBRANCH  20  21
ENDBRANCH  19  20
ENDBRANCH  18  19
ENDBRANCH  17  18
ENDBRANCH  16  17
ENDBRANCH  15  16
ENDBRANCH  14  15
ENDBRANCH   4  13
BRANCH   1  24
ATOM     23  C   UNL     1       2.008   9.143  18.330  0.00  0.00    +0.000 C 
ATOM     24  C   UNL     1       2.970   8.320  18.775  0.00  0.00    +0.000 C 
BRANCH  23  25
ATOM     25  C   UNL     1       0.827   8.777  17.480  0.00  0.00    +0.000 C 
BRANCH  25  26
ATOM     26  C   UNL     1      -0.359   9.708  17.724  0.00  0.00    +0.000 C 
BRANCH  26  27
ATOM     27  C   UNL     1      -0.093  10.583  18.948  0.00  0.00    +0.000 C 
BRANCH  27  28
ATOM     28  C   UNL     1      -1.373  11.237  19.458  0.00  0.00    +0.000 C 
BRANCH  28  29
ATOM     29  C   UNL     1      -2.081  11.998  18.338  0.00  0.00    +0.000 C 
BRANCH  29  30
ATOM     30  C   UNL     1      -3.562  11.629  18.283  0.00  0.00    +0.000 C 
BRANCH  30  32
ATOM     31  C   UNL     1      -3.754  10.509  16.044  0.00  0.00    +0.000 C 
ATOM     32  C   UNL     1      -3.784  10.308  17.550  0.00  0.00    +0.000 C 
ENDBRANCH  30  32
ENDBRANCH  29  30
ENDBRANCH  28  29
ENDBRANCH  27  28
ENDBRANCH  26  27
ENDBRANCH  25  26
ENDBRANCH  23  25
ENDBRANCH   1  24
TORSDOF 16
ENDMDL
MODEL 2
REMARK VINA RESULT:      -6.1      1.468      7.628
REMARK  Name = 
REMARK  20 active torsions:
REMARK  status: ('A' for Active; 'I' for Inactive)
REMARK    1  A    between atoms: C_1  and  C_2
REMARK    2  A    between atoms: C_2  and  C_3
REMARK    3  A    between atoms: C_3  and  C_4
REMARK    4  A    between atoms: C_4  and  C_5
REMARK    5  A    between atoms: C_5  and  C_6
REMARK    6  A    between atoms: C_6  and  C_7
REMARK    7  A    between atoms: C_7  and  C_8
REMARK    8  A    between atoms: C_8  and  C_9
REMARK    9  A    between atoms: C_10  and  C_11
REMARK   10  A    between atoms: C_12  and  C_13
REMARK   11  A    between atoms: C_14  and  C_15
REMARK   12  A    between atoms: C_16  and  C_17
REMARK   13  A    between atoms: C_17  and  C_18
REMARK   14  A    between atoms: C_18  and  C_19
REMARK   15  A    between atoms: C_19  and  C_20
REMARK   16  A    between atoms: C_20  and  C_21
REMARK   17  A    between atoms: C_21  and  C_22
REMARK   18  A    between atoms: C_22  and  C_23
REMARK   19  A    between atoms: C_23  and  C_24
REMARK   20  A    between atoms: C_27  and  C_28
REMARK                            x       y       z     vdW  Elec       q    Type
REMARK                         _______ _______ _______ _____ _____    ______ ____
ROOT
ATOM      1  C   UNL     1       4.236   5.608  17.357  0.00  0.00    +0.000 A 
ATOM      2  C   UNL     1       3.700   6.713  18.037  0.00  0.00    +0.000 A 
ATOM      3  C   UNL     1       4.060   8.133  17.647  0.00  0.00    +0.000 C 
ATOM      4  C   UNL     1       2.763   6.485  19.062  0.00  0.00    +0.000 A 
ATOM      5  C   UNL     1       2.316   5.162  19.331  0.00  0.00    +0.000 A 
ATOM      6  N   UNL     1       2.842   4.101  18.631  0.00  0.00    +0.000 N 
ATOM      7  C   UNL     1       3.756   4.304  17.622  0.00  0.00    +0.000 A 
ATOM      8  C   UNL     1       4.249   3.150  16.765  0.00  0.00    +0.000 C 
ATOM      9  C   UNL     1       2.405   2.700  18.912  0.00  0.00    +0.000 C 
ATOM     10  C   UNL     1       1.770   2.525  20.271  0.00  0.00    +0.000 C 
ATOM     11  C   UNL     1       0.666   3.538  20.429  0.00  0.00    +0.000 C 
ATOM     12  C   UNL     1       1.260   4.937  20.396  0.00  0.00    +0.000 C 
ENDROOT
BRANCH   4  13
ATOM     13  C   UNL     1       2.211   7.666  19.775  0.00  0.00    +0.000 C 
ATOM     14  C   UNL     1       1.389   8.633  19.317  0.00  0.00    +0.000 C 
BRANCH  14  15
ATOM     15  C   UNL     1       0.888   8.880  17.917  0.00  0.00    +0.000 C 
BRANCH  15  16
ATOM     16  C   UNL     1      -0.410   9.700  17.755  0.00  0.00    +0.000 C 
BRANCH  16  17
ATOM     17  C   UNL     1      -1.055  10.229  19.052  0.00  0.00    +0.000 C 
BRANCH  17  18
ATOM     18  C   UNL     1      -1.569  11.669  18.861  0.00  0.00    +0.000 C 
BRANCH  18  19
ATOM     19  C   UNL     1      -0.609  12.573  18.071  0.00  0.00    +0.000 C 
BRANCH  19  20
ATOM     20  C   UNL     1      -0.322  13.867  18.848  0.00  0.00    +0.000 C 
BRANCH  20  21
ATOM     21  C   UNL     1       1.160  14.249  18.861  0.00  0.00    +0.000 C 
ATOM     22  C   UNL     1       2.006  13.173  18.191  0.00  0.00    +0.000 C 
ENDBRANCH  20  21
ENDBRANCH  19  20
ENDBRANCH  18  19
ENDBRANCH  17  18
ENDBRANCH  16  17
ENDBRANCH  15  16
ENDBRANCH  14  15
ENDBRANCH   4  13
BRANCH   1  24
ATOM     23  C   UNL     1       6.636   5.788  16.649  0.00  0.00    +0.000 C 
ATOM     24  C   UNL     1       5.321   5.803  16.377  0.00  0.00    +0.000 C 
BRANCH  23  25
ATOM     25  C   UNL     1       7.279   5.603  17.993  0.00  0.00    +0.000 C 
BRANCH  25  26
ATOM     26  C   UNL     1       7.988   6.872  18.462  0.00  0.00    +0.000 C 
BRANCH  26  27
ATOM     27  C   UNL     1       7.963   7.924  17.354  0.00  0.00    +0.000 C 
BRANCH  27  28
ATOM     28  C   UNL     1       7.733   9.324  17.915  0.00  0.00    +0.000 C 
BRANCH  28  29
ATOM     29  C   UNL     1       8.891   9.746  18.819  0.00  0.00    +0.000 C 
BRANCH  29  30
ATOM     30  C   UNL     1       9.799  10.746  18.106  0.00  0.00    +0.000 C 
BRANCH  30  32
ATOM     31  C   UNL     1       8.988  13.121  18.199  0.00  0.00    +0.000 C 
ATOM     32  C   UNL     1       9.872  12.073  18.857  0.00  0.00    +0.000 C 
ENDBRANCH  30  32
ENDBRANCH  29  30
ENDBRANCH  28  29
ENDBRANCH  27  28
ENDBRANCH  26  27
ENDBRANCH  25  26
ENDBRANCH  23  25
ENDBRANCH   1  24
TORSDOF 16
ENDMDL
MODEL 3
REMARK VINA RESULT:      -6.1      1.605      7.869
REMARK  Name = 
REMARK  20 active torsions:
REMARK  status: ('A' for Active; 'I' for Inactive)
REMARK    1  A    between atoms: C_1  and  C_2
REMARK    2  A    between atoms: C_2  and  C_3
REMARK    3  A    between atoms: C_3  and  C_4
REMARK    4  A    between atoms: C_4  and  C_5
REMARK    5  A    between atoms: C_5  and  C_6
REMARK    6  A    between atoms: C_6  and  C_7
REMARK    7  A    between atoms: C_7  and  C_8
REMARK    8  A    between atoms: C_8  and  C_9
REMARK    9  A    between atoms: C_10  and  C_11
REMARK   10  A    between atoms: C_12  and  C_13
REMARK   11  A    between atoms: C_14  and  C_15
REMARK   12  A    between atoms: C_16  and  C_17
REMARK   13  A    between atoms: C_17  and  C_18
REMARK   14  A    between atoms: C_18  and  C_19
REMARK   15  A    between atoms: C_19  and  C_20
REMARK   16  A    between atoms: C_20  and  C_21
REMARK   17  A    between atoms: C_21  and  C_22
REMARK   18  A    between atoms: C_22  and  C_23
REMARK   19  A    between atoms: C_23  and  C_24
REMARK   20  A    between atoms: C_27  and  C_28
REMARK                            x       y       z     vdW  Elec       q    Type
REMARK                         _______ _______ _______ _____ _____    ______ ____
ROOT
ATOM      1  C   UNL     1       4.343   4.694  16.812  0.00  0.00    +0.000 A 
ATOM      2  C   UNL     1       4.273   6.096  16.808  0.00  0.00    +0.000 A 
ATOM      3  C   UNL     1       4.806   6.911  15.647  0.00  0.00    +0.000 C 
ATOM      4  C   UNL     1       3.638   6.743  17.884  0.00  0.00    +0.000 A 
ATOM      5  C   UNL     1       3.011   5.974  18.903  0.00  0.00    +0.000 A 
ATOM      6  N   UNL     1       3.075   4.600  18.867  0.00  0.00    +0.000 N 
ATOM      7  C   UNL     1       3.688   3.949  17.821  0.00  0.00    +0.000 A 
ATOM      8  C   UNL     1       3.657   2.433  17.713  0.00  0.00    +0.000 C 
ATOM      9  C   UNL     1       2.443   3.771  19.938  0.00  0.00    +0.000 C 
ATOM     10  C   UNL     1       2.198   4.527  21.223  0.00  0.00    +0.000 C 
ATOM     11  C   UNL     1       1.429   5.784  20.910  0.00  0.00    +0.000 C 
ATOM     12  C   UNL     1       2.277   6.684  20.024  0.00  0.00    +0.000 C 
ENDROOT
BRANCH   4  13
ATOM     13  C   UNL     1       3.579   8.228  17.867  0.00  0.00    +0.000 C 
ATOM     14  C   UNL     1       2.503   9.040  17.920  0.00  0.00    +0.000 C 
BRANCH  14  15
ATOM     15  C   UNL     1       1.037   8.691  17.883  0.00  0.00    +0.000 C 
BRANCH  15  16
ATOM     16  C   UNL     1       0.028   9.800  18.250  0.00  0.00    +0.000 C 
BRANCH  16  17
ATOM     17  C   UNL     1       0.605  11.216  18.451  0.00  0.00    +0.000 C 
BRANCH  17  18
ATOM     18  C   UNL     1      -0.068  11.918  19.647  0.00  0.00    +0.000 C 
BRANCH  18  19
ATOM     19  C   UNL     1       0.117  11.184  20.985  0.00  0.00    +0.000 C 
BRANCH  19  20
ATOM     20  C   UNL     1      -0.480  12.004  22.138  0.00  0.00    +0.000 C 
BRANCH  20  21
ATOM     21  C   UNL     1      -1.523  11.234  22.951  0.00  0.00    +0.000 C 
ATOM     22  C   UNL     1      -2.701  12.130  23.315  0.00  0.00    +0.000 C 
ENDBRANCH  20  21
ENDBRANCH  19  20
ENDBRANCH  18  19
ENDBRANCH  17  18
ENDBRANCH  16  17
ENDBRANCH  15  16
ENDBRANCH  14  15
ENDBRANCH   4  13
BRANCH   1  24
ATOM     23  C   UNL     1       6.453   4.060  15.614  0.00  0.00    +0.000 C 
ATOM     24  C   UNL     1       5.122   3.994  15.775  0.00  0.00    +0.000 C 
BRANCH  23  25
ATOM     25  C   UNL     1       7.422   4.874  16.422  0.00  0.00    +0.000 C 
BRANCH  25  26
ATOM     26  C   UNL     1       7.281   4.603  17.918  0.00  0.00    +0.000 C 
BRANCH  26  27
ATOM     27  C   UNL     1       7.843   5.779  18.717  0.00  0.00    +0.000 C 
BRANCH  27  28
ATOM     28  C   UNL     1       7.691   7.094  17.959  0.00  0.00    +0.000 C 
BRANCH  28  29
ATOM     29  C   UNL     1       8.455   8.218  18.658  0.00  0.00    +0.000 C 
BRANCH  29  30
ATOM     30  C   UNL     1       8.270   9.542  17.918  0.00  0.00    +0.000 C 
BRANCH  30  32
ATOM     31  C   UNL     1       9.034  11.692  18.965  0.00  0.00    +0.000 C 
ATOM     32  C   UNL     1       9.451  10.482  18.145  0.00  0.00    +0.000 C 
ENDBRANCH  30  32
ENDBRANCH  29  30
ENDBRANCH  28  29
ENDBRANCH  27  28
ENDBRANCH  26  27
ENDBRANCH  25  26
ENDBRANCH  23  25
ENDBRANCH   1  24
TORSDOF 16
ENDMDL
MODEL 4
REMARK VINA RESULT:      -6.0      1.030      8.434
REMARK  Name = 
REMARK  20 active torsions:
REMARK  status: ('A' for Active; 'I' for Inactive)
REMARK    1  A    between atoms: C_1  and  C_2
REMARK    2  A    between atoms: C_2  and  C_3
REMARK    3  A    between atoms: C_3  and  C_4
REMARK    4  A    between atoms: C_4  and  C_5
REMARK    5  A    between atoms: C_5  and  C_6
REMARK    6  A    between atoms: C_6  and  C_7
REMARK    7  A    between atoms: C_7  and  C_8
REMARK    8  A    between atoms: C_8  and  C_9
REMARK    9  A    between atoms: C_10  and  C_11
REMARK   10  A    between atoms: C_12  and  C_13
REMARK   11  A    between atoms: C_14  and  C_15
REMARK   12  A    between atoms: C_16  and  C_17
REMARK   13  A    between atoms: C_17  and  C_18
REMARK   14  A    between atoms: C_18  and  C_19
REMARK   15  A    between atoms: C_19  and  C_20
REMARK   16  A    between atoms: C_20  and  C_21
REMARK   17  A    between atoms: C_21  and  C_22
REMARK   18  A    between atoms: C_22  and  C_23
REMARK   19  A    between atoms: C_23  and  C_24
REMARK   20  A    between atoms: C_27  and  C_28
REMARK                            x       y       z     vdW  Elec       q    Type
REMARK                         _______ _______ _______ _____ _____    ______ ____
ROOT
ATOM      1  C   UNL     1       4.151   5.862  17.325  0.00  0.00    +0.000 A 
ATOM      2  C   UNL     1       3.574   6.880  18.101  0.00  0.00    +0.000 A 
ATOM      3  C   UNL     1       3.830   8.343  17.803  0.00  0.00    +0.000 C 
ATOM      4  C   UNL     1       2.692   6.520  19.136  0.00  0.00    +0.000 A 
ATOM      5  C   UNL     1       2.338   5.155  19.323  0.00  0.00    +0.000 A 
ATOM      6  N   UNL     1       2.903   4.182  18.532  0.00  0.00    +0.000 N 
ATOM      7  C   UNL     1       3.764   4.514  17.510  0.00  0.00    +0.000 A 
ATOM      8  C   UNL     1       4.295   3.458  16.556  0.00  0.00    +0.000 C 
ATOM      9  C   UNL     1       2.564   2.739  18.724  0.00  0.00    +0.000 C 
ATOM     10  C   UNL     1       1.994   2.428  20.088  0.00  0.00    +0.000 C 
ATOM     11  C   UNL     1       0.835   3.354  20.355  0.00  0.00    +0.000 C 
ATOM     12  C   UNL     1       1.339   4.788  20.405  0.00  0.00    +0.000 C 
ENDROOT
BRANCH   4  13
ATOM     13  C   UNL     1       2.094   7.610  19.952  0.00  0.00    +0.000 C 
ATOM     14  C   UNL     1       1.314   8.638  19.561  0.00  0.00    +0.000 C 
BRANCH  14  15
ATOM     15  C   UNL     1       0.920   9.067  18.171  0.00  0.00    +0.000 C 
BRANCH  15  16
ATOM     16  C   UNL     1      -0.478   9.695  17.985  0.00  0.00    +0.000 C 
BRANCH  16  17
ATOM     17  C   UNL     1      -0.846  10.848  18.940  0.00  0.00    +0.000 C 
BRANCH  17  18
ATOM     18  C   UNL     1      -2.226  11.436  18.585  0.00  0.00    +0.000 C 
BRANCH  18  19
ATOM     19  C   UNL     1      -2.456  11.618  17.076  0.00  0.00    +0.000 C 
BRANCH  19  20
ATOM     20  C   UNL     1      -3.939  11.424  16.728  0.00  0.00    +0.000 C 
BRANCH  20  21
ATOM     21  C   UNL     1      -4.158  10.639  15.432  0.00  0.00    +0.000 C 
ATOM     22  C   UNL     1      -2.828  10.237  14.806  0.00  0.00    +0.000 C 
ENDBRANCH  20  21
ENDBRANCH  19  20
ENDBRANCH  18  19
ENDBRANCH  17  18
ENDBRANCH  16  17
ENDBRANCH  15  16
ENDBRANCH  14  15
ENDBRANCH   4  13
BRANCH   1  24
ATOM     23  C   UNL     1       6.506   6.260  16.556  0.00  0.00    +0.000 C 
ATOM     24  C   UNL     1       5.185   6.195  16.327  0.00  0.00    +0.000 C 
BRANCH  23  25
ATOM     25  C   UNL     1       7.207   6.042  17.865  0.00  0.00    +0.000 C 
BRANCH  25  26
ATOM     26  C   UNL     1       8.137   7.202  18.212  0.00  0.00    +0.000 C 
BRANCH  26  27
ATOM     27  C   UNL     1       7.495   8.527  17.801  0.00  0.00    +0.000 C 
BRANCH  27  28
ATOM     28  C   UNL     1       8.507   9.668  17.811  0.00  0.00    +0.000 C 
BRANCH  28  29
ATOM     29  C   UNL     1       9.125   9.837  19.198  0.00  0.00    +0.000 C 
BRANCH  29  30
ATOM     30  C   UNL     1       9.399  11.311  19.493  0.00  0.00    +0.000 C 
BRANCH  30  32
ATOM     31  C   UNL     1      11.052  13.068  18.796  0.00  0.00    +0.000 C 
ATOM     32  C   UNL     1      10.877  11.652  19.321  0.00  0.00    +0.000 C 
ENDBRANCH  30  32
ENDBRANCH  29  30
ENDBRANCH  28  29
ENDBRANCH  27  28
ENDBRANCH  26  27
ENDBRANCH  25  26
ENDBRANCH  23  25
ENDBRANCH   1  24
TORSDOF 16
ENDMDL
MODEL 5
REMARK VINA RESULT:      -6.0      1.167      1.504
REMARK  Name = 
REMARK  20 active torsions:
REMARK  status: ('A' for Active; 'I' for Inactive)
REMARK    1  A    between atoms: C_1  and  C_2
REMARK    2  A    between atoms: C_2  and  C_3
REMARK    3  A    between atoms: C_3  and  C_4
REMARK    4  A    between atoms: C_4  and  C_5
REMARK    5  A    between atoms: C_5  and  C_6
REMARK    6  A    between atoms: C_6  and  C_7
REMARK    7  A    between atoms: C_7  and  C_8
REMARK    8  A    between atoms: C_8  and  C_9
REMARK    9  A    between atoms: C_10  and  C_11
REMARK   10  A    between atoms: C_12  and  C_13
REMARK   11  A    between atoms: C_14  and  C_15
REMARK   12  A    between atoms: C_16  and  C_17
REMARK   13  A    between atoms: C_17  and  C_18
REMARK   14  A    between atoms: C_18  and  C_19
REMARK   15  A    between atoms: C_19  and  C_20
REMARK   16  A    between atoms: C_20  and  C_21
REMARK   17  A    between atoms: C_21  and  C_22
REMARK   18  A    between atoms: C_22  and  C_23
REMARK   19  A    between atoms: C_23  and  C_24
REMARK   20  A    between atoms: C_27  and  C_28
REMARK                            x       y       z     vdW  Elec       q    Type
REMARK                         _______ _______ _______ _____ _____    ______ ____
ROOT
ATOM      1  C   UNL     1       2.533   7.486  18.930  0.00  0.00    +0.000 A 
ATOM      2  C   UNL     1       3.288   6.915  17.894  0.00  0.00    +0.000 A 
ATOM      3  C   UNL     1       4.157   7.763  16.988  0.00  0.00    +0.000 C 
ATOM      4  C   UNL     1       3.276   5.515  17.743  0.00  0.00    +0.000 A 
ATOM      5  C   UNL     1       2.576   4.708  18.682  0.00  0.00    +0.000 A 
ATOM      6  N   UNL     1       1.864   5.296  19.701  0.00  0.00    +0.000 N 
ATOM      7  C   UNL     1       1.867   6.662  19.869  0.00  0.00    +0.000 A 
ATOM      8  C   UNL     1       1.185   7.309  21.062  0.00  0.00    +0.000 C 
ATOM      9  C   UNL     1       1.103   4.469  20.686  0.00  0.00    +0.000 C 
ATOM     10  C   UNL     1       0.791   3.076  20.193  0.00  0.00    +0.000 C 
ATOM     11  C   UNL     1       2.068   2.425  19.728  0.00  0.00    +0.000 C 
ATOM     12  C   UNL     1       2.622   3.198  18.542  0.00  0.00    +0.000 C 
ENDROOT
BRANCH   4  13
ATOM     13  C   UNL     1       4.076   4.928  16.636  0.00  0.00    +0.000 C 
ATOM     14  C   UNL     1       5.259   4.284  16.689  0.00  0.00    +0.000 C 
BRANCH  14  15
ATOM     15  C   UNL     1       6.188   4.079  17.858  0.00  0.00    +0.000 C 
BRANCH  15  16
ATOM     16  C   UNL     1       6.561   5.316  18.703  0.00  0.00    +0.000 C 
BRANCH  16  17
ATOM     17  C   UNL     1       8.065   5.621  18.847  0.00  0.00    +0.000 C 
BRANCH  17  18
ATOM     18  C   UNL     1       8.315   7.142  18.893  0.00  0.00    +0.000 C 
BRANCH  18  19
ATOM     19  C   UNL     1       7.766   7.899  17.674  0.00  0.00    +0.000 C 
BRANCH  19  20
ATOM     20  C   UNL     1       8.132   9.389  17.753  0.00  0.00    +0.000 C 
BRANCH  20  21
ATOM     21  C   UNL     1       9.134   9.706  18.866  0.00  0.00    +0.000 C 
ATOM     22  C   UNL     1       9.179  11.203  19.150  0.00  0.00    +0.000 C 
ENDBRANCH  20  21
ENDBRANCH  19  20
ENDBRANCH  18  19
ENDBRANCH  17  18
ENDBRANCH  16  17
ENDBRANCH  15  16
ENDBRANCH  14  15
ENDBRANCH   4  13
BRANCH   1  24
ATOM     23  C   UNL     1       1.405   9.692  18.538  0.00  0.00    +0.000 C 
ATOM     24  C   UNL     1       2.412   8.952  19.030  0.00  0.00    +0.000 C 
BRANCH  23  25
ATOM     25  C   UNL     1       0.217   9.200  17.764  0.00  0.00    +0.000 C 
BRANCH  25  26
ATOM     26  C   UNL     1      -0.846  10.285  17.604  0.00  0.00    +0.000 C 
BRANCH  26  27
ATOM     27  C   UNL     1      -2.221   9.727  17.967  0.00  0.00    +0.000 C 
BRANCH  27  28
ATOM     28  C   UNL     1      -3.188   9.807  16.790  0.00  0.00    +0.000 C 
BRANCH  28  29
ATOM     29  C   UNL     1      -3.755  11.219  16.644  0.00  0.00    +0.000 C 
BRANCH  29  30
ATOM     30  C   UNL     1      -4.556  11.612  17.884  0.00  0.00    +0.000 C 
BRANCH  30  32
ATOM     31  C   UNL     1      -7.022  11.352  18.274  0.00  0.00    +0.000 C 
ATOM     32  C   UNL     1      -5.949  12.116  17.516  0.00  0.00    +0.000 C 
ENDBRANCH  30  32
ENDBRANCH  29  30
ENDBRANCH  28  29
ENDBRANCH  27  28
ENDBRANCH  26  27
ENDBRANCH  25  26
ENDBRANCH  23  25
ENDBRANCH   1  24
TORSDOF 16
ENDMDL
MODEL 6
REMARK VINA RESULT:      -6.0      3.500     10.054
REMARK  Name = 
REMARK  20 active torsions:
REMARK  status: ('A' for Active; 'I' for Inactive)
REMARK    1  A    between atoms: C_1  and  C_2
REMARK    2  A    between atoms: C_2  and  C_3
REMARK    3  A    between atoms: C_3  and  C_4
REMARK    4  A    between atoms: C_4  and  C_5
REMARK    5  A    between atoms: C_5  and  C_6
REMARK    6  A    between atoms: C_6  and  C_7
REMARK    7  A    between atoms: C_7  and  C_8
REMARK    8  A    between atoms: C_8  and  C_9
REMARK    9  A    between atoms: C_10  and  C_11
REMARK   10  A    between atoms: C_12  and  C_13
REMARK   11  A    between atoms: C_14  and  C_15
REMARK   12  A    between atoms: C_16  and  C_17
REMARK   13  A    between atoms: C_17  and  C_18
REMARK   14  A    between atoms: C_18  and  C_19
REMARK   15  A    between atoms: C_19  and  C_20
REMARK   16  A    between atoms: C_20  and  C_21
REMARK   17  A    between atoms: C_21  and  C_22
REMARK   18  A    between atoms: C_22  and  C_23
REMARK   19  A    between atoms: C_23  and  C_24
REMARK   20  A    between atoms: C_27  and  C_28
REMARK                            x       y       z     vdW  Elec       q    Type
REMARK                         _______ _______ _______ _____ _____    ______ ____
ROOT
ATOM      1  C   UNL     1       0.792  10.969  19.039  0.00  0.00    +0.000 A 
ATOM      2  C   UNL     1      -0.048  10.811  20.153  0.00  0.00    +0.000 A 
ATOM      3  C   UNL     1      -0.823   9.529  20.383  0.00  0.00    +0.000 C 
ATOM      4  C   UNL     1      -0.117  11.851  21.098  0.00  0.00    +0.000 A 
ATOM      5  C   UNL     1       0.719  12.993  20.957  0.00  0.00    +0.000 A 
ATOM      6  N   UNL     1       1.550  13.108  19.868  0.00  0.00    +0.000 N 
ATOM      7  C   UNL     1       1.635  12.100  18.934  0.00  0.00    +0.000 A 
ATOM      8  C   UNL     1       2.639  12.166  17.795  0.00  0.00    +0.000 C 
ATOM      9  C   UNL     1       2.421  14.309  19.686  0.00  0.00    +0.000 C 
ATOM     10  C   UNL     1       1.960  15.515  20.471  0.00  0.00    +0.000 C 
ATOM     11  C   UNL     1       1.782  15.119  21.914  0.00  0.00    +0.000 C 
ATOM     12  C   UNL     1       0.678  14.078  22.017  0.00  0.00    +0.000 C 
ENDROOT
BRANCH   4  13
ATOM     13  C   UNL     1      -1.017  11.669  22.267  0.00  0.00    +0.000 C 
ATOM     14  C   UNL     1      -2.253  12.167  22.477  0.00  0.00    +0.000 C 
BRANCH  14  15
ATOM     15  C   UNL     1      -3.041  13.154  21.655  0.00  0.00    +0.000 C 
BRANCH  15  16
ATOM     16  C   UNL     1      -4.495  12.784  21.289  0.00  0.00    +0.000 C 
BRANCH  16  17
ATOM     17  C   UNL     1      -4.769  12.461  19.807  0.00  0.00    +0.000 C 
BRANCH  17  18
ATOM     18  C   UNL     1      -3.466  12.073  19.079  0.00  0.00    +0.000 C 
BRANCH  18  19
ATOM     19  C   UNL     1      -3.653  10.988  18.007  0.00  0.00    +0.000 C 
BRANCH  19  20
ATOM     20  C   UNL     1      -2.369  10.821  17.179  0.00  0.00    +0.000 C 
BRANCH  20  21
ATOM     21  C   UNL     1      -2.546   9.901  15.969  0.00  0.00    +0.000 C 
ATOM     22  C   UNL     1      -3.595  10.454  15.011  0.00  0.00    +0.000 C 
ENDBRANCH  20  21
ENDBRANCH  19  20
ENDBRANCH  18  19
ENDBRANCH  17  18
ENDBRANCH  16  17
ENDBRANCH  15  16
ENDBRANCH  14  15
ENDBRANCH   4  13
BRANCH   1  24
ATOM     23  C   UNL     1       1.428   8.786  17.979  0.00  0.00    +0.000 C 
ATOM     24  C   UNL     1       0.781   9.962  17.961  0.00  0.00    +0.000 C 
BRANCH  23  25
ATOM     25  C   UNL     1       2.316   8.259  19.068  0.00  0.00    +0.000 C 
BRANCH  25  26
ATOM     26  C   UNL     1       3.101   7.029  18.616  0.00  0.00    +0.000 C 
BRANCH  26  27
ATOM     27  C   UNL     1       2.136   5.910  18.224  0.00  0.00    +0.000 C 
BRANCH  27  28
ATOM     28  C   UNL     1       2.669   4.541  18.633  0.00  0.00    +0.000 C 
BRANCH  28  29
ATOM     29  C   UNL     1       1.753   3.426  18.130  0.00  0.00    +0.000 C 
BRANCH  29  30
ATOM     30  C   UNL     1       0.801   2.968  19.233  0.00  0.00    +0.000 C 
BRANCH  30  32
ATOM     31  C   UNL     1       1.541   2.563  21.597  0.00  0.00    +0.000 C 
ATOM     32  C   UNL     1       1.143   3.613  20.574  0.00  0.00    +0.000 C 
ENDBRANCH  30  32
ENDBRANCH  29  30
ENDBRANCH  28  29
ENDBRANCH  27  28
ENDBRANCH  26  27
ENDBRANCH  25  26
ENDBRANCH  23  25
ENDBRANCH   1  24
TORSDOF 16
ENDMDL
MODEL 7
REMARK VINA RESULT:      -6.0      1.533      7.865
REMARK  Name = 
REMARK  20 active torsions:
REMARK  status: ('A' for Active; 'I' for Inactive)
REMARK    1  A    between atoms: C_1  and  C_2
REMARK    2  A    between atoms: C_2  and  C_3
REMARK    3  A    between atoms: C_3  and  C_4
REMARK    4  A    between atoms: C_4  and  C_5
REMARK    5  A    between atoms: C_5  and  C_6
REMARK    6  A    between atoms: C_6  and  C_7
REMARK    7  A    between atoms: C_7  and  C_8
REMARK    8  A    between atoms: C_8  and  C_9
REMARK    9  A    between atoms: C_10  and  C_11
REMARK   10  A    between atoms: C_12  and  C_13
REMARK   11  A    between atoms: C_14  and  C_15
REMARK   12  A    between atoms: C_16  and  C_17
REMARK   13  A    between atoms: C_17  and  C_18
REMARK   14  A    between atoms: C_18  and  C_19
REMARK   15  A    between atoms: C_19  and  C_20
REMARK   16  A    between atoms: C_20  and  C_21
REMARK   17  A    between atoms: C_21  and  C_22
REMARK   18  A    between atoms: C_22  and  C_23
REMARK   19  A    between atoms: C_23  and  C_24
REMARK   20  A    between atoms: C_27  and  C_28
REMARK                            x       y       z     vdW  Elec       q    Type
REMARK                         _______ _______ _______ _____ _____    ______ ____
ROOT
ATOM      1  C   UNL     1       4.015   5.077  17.198  0.00  0.00    +0.000 A 
ATOM      2  C   UNL     1       3.663   6.270  17.848  0.00  0.00    +0.000 A 
ATOM      3  C   UNL     1       3.966   7.623  17.237  0.00  0.00    +0.000 C 
ATOM      4  C   UNL     1       2.962   6.192  19.066  0.00  0.00    +0.000 A 
ATOM      5  C   UNL     1       2.551   4.926  19.567  0.00  0.00    +0.000 A 
ATOM      6  N   UNL     1       2.890   3.775  18.894  0.00  0.00    +0.000 N 
ATOM      7  C   UNL     1       3.572   3.830  17.700  0.00  0.00    +0.000 A 
ATOM      8  C   UNL     1       3.843   2.573  16.891  0.00  0.00    +0.000 C 
ATOM      9  C   UNL     1       2.490   2.432  19.414  0.00  0.00    +0.000 C 
ATOM     10  C   UNL     1       2.157   2.428  20.887  0.00  0.00    +0.000 C 
ATOM     11  C   UNL     1       1.136   3.502  21.160  0.00  0.00    +0.000 C 
ATOM     12  C   UNL     1       1.742   4.862  20.849  0.00  0.00    +0.000 C 
ENDROOT
BRANCH   4  13
ATOM     13  C   UNL     1       2.603   7.465  19.745  0.00  0.00    +0.000 C 
ATOM     14  C   UNL     1       1.744   8.428  19.353  0.00  0.00    +0.000 C 
BRANCH  14  15
ATOM     15  C   UNL     1       0.989   8.569  18.056  0.00  0.00    +0.000 C 
BRANCH  15  16
ATOM     16  C   UNL     1       0.195   9.873  17.827  0.00  0.00    +0.000 C 
BRANCH  16  17
ATOM     17  C   UNL     1      -0.965  10.151  18.805  0.00  0.00    +0.000 C 
BRANCH  17  18
ATOM     18  C   UNL     1      -0.722  11.457  19.586  0.00  0.00    +0.000 C 
BRANCH  18  19
ATOM     19  C   UNL     1       0.110  11.272  20.865  0.00  0.00    +0.000 C 
BRANCH  19  20
ATOM     20  C   UNL     1      -0.423  10.091  21.690  0.00  0.00    +0.000 C 
BRANCH  20  21
ATOM     21  C   UNL     1      -0.802  10.477  23.122  0.00  0.00    +0.000 C 
ATOM     22  C   UNL     1      -1.840  11.593  23.129  0.00  0.00    +0.000 C 
ENDBRANCH  20  21
ENDBRANCH  19  20
ENDBRANCH  18  19
ENDBRANCH  17  18
ENDBRANCH  16  17
ENDBRANCH  15  16
ENDBRANCH  14  15
ENDBRANCH   4  13
BRANCH   1  24
ATOM     23  C   UNL     1       6.196   5.329  15.984  0.00  0.00    +0.000 C 
ATOM     24  C   UNL     1       4.870   5.119  15.997  0.00  0.00    +0.000 C 
BRANCH  23  25
ATOM     25  C   UNL     1       7.080   5.595  17.168  0.00  0.00    +0.000 C 
BRANCH  25  26
ATOM     26  C   UNL     1       7.894   6.876  16.993  0.00  0.00    +0.000 C 
BRANCH  26  27
ATOM     27  C   UNL     1       7.564   7.862  18.113  0.00  0.00    +0.000 C 
BRANCH  27  28
ATOM     28  C   UNL     1       8.112   9.253  17.814  0.00  0.00    +0.000 C 
BRANCH  28  29
ATOM     29  C   UNL     1       9.069   9.711  18.914  0.00  0.00    +0.000 C 
BRANCH  29  30
ATOM     30  C   UNL     1       9.371  11.203  18.783  0.00  0.00    +0.000 C 
BRANCH  30  32
ATOM     31  C   UNL     1      10.598  12.955  17.469  0.00  0.00    +0.000 C 
ATOM     32  C   UNL     1      10.458  11.467  17.744  0.00  0.00    +0.000 C 
ENDBRANCH  30  32
ENDBRANCH  29  30
ENDBRANCH  28  29
ENDBRANCH  27  28
ENDBRANCH  26  27
ENDBRANCH  25  26
ENDBRANCH  23  25
ENDBRANCH   1  24
TORSDOF 16
ENDMDL
MODEL 8
REMARK VINA RESULT:      -5.9      3.060      7.965
REMARK  Name = 
REMARK  20 active torsions:
REMARK  status: ('A' for Active; 'I' for Inactive)
REMARK    1  A    between atoms: C_1  and  C_2
REMARK    2  A    between atoms: C_2  and  C_3
REMARK    3  A    between atoms: C_3  and  C_4
REMARK    4  A    between atoms: C_4  and  C_5
REMARK    5  A    between atoms: C_5  and  C_6
REMARK    6  A    between atoms: C_6  and  C_7
REMARK    7  A    between atoms: C_7  and  C_8
REMARK    8  A    between atoms: C_8  and  C_9
REMARK    9  A    between atoms: C_10  and  C_11
REMARK   10  A    between atoms: C_12  and  C_13
REMARK   11  A    between atoms: C_14  and  C_15
REMARK   12  A    between atoms: C_16  and  C_17
REMARK   13  A    between atoms: C_17  and  C_18
REMARK   14  A    between atoms: C_18  and  C_19
REMARK   15  A    between atoms: C_19  and  C_20
REMARK   16  A    between atoms: C_20  and  C_21
REMARK   17  A    between atoms: C_21  and  C_22
REMARK   18  A    between atoms: C_22  and  C_23
REMARK   19  A    between atoms: C_23  and  C_24
REMARK   20  A    between atoms: C_27  and  C_28
REMARK                            x       y       z     vdW  Elec       q    Type
REMARK                         _______ _______ _______ _____ _____    ______ ____
ROOT
ATOM      1  C   UNL     1       4.512   5.917  18.242  0.00  0.00    +0.000 A 
ATOM      2  C   UNL     1       3.451   6.822  18.401  0.00  0.00    +0.000 A 
ATOM      3  C   UNL     1       3.405   8.128  17.633  0.00  0.00    +0.000 C 
ATOM      4  C   UNL     1       2.384   6.471  19.249  0.00  0.00    +0.000 A 
ATOM      5  C   UNL     1       2.357   5.185  19.856  0.00  0.00    +0.000 A 
ATOM      6  N   UNL     1       3.400   4.309  19.663  0.00  0.00    +0.000 N 
ATOM      7  C   UNL     1       4.450   4.633  18.834  0.00  0.00    +0.000 A 
ATOM      8  C   UNL     1       5.543   3.625  18.520  0.00  0.00    +0.000 C 
ATOM      9  C   UNL     1       3.405   2.962  20.310  0.00  0.00    +0.000 C 
ATOM     10  C   UNL     1       2.488   2.861  21.506  0.00  0.00    +0.000 C 
ATOM     11  C   UNL     1       1.112   3.327  21.106  0.00  0.00    +0.000 C 
ATOM     12  C   UNL     1       1.171   4.796  20.719  0.00  0.00    +0.000 C 
ENDROOT
BRANCH   4  13
ATOM     13  C   UNL     1       1.273   7.444  19.410  0.00  0.00    +0.000 C 
ATOM     14  C   UNL     1       1.035   8.307  20.418  0.00  0.00    +0.000 C 
BRANCH  14  15
ATOM     15  C   UNL     1       1.745   8.457  21.740  0.00  0.00    +0.000 C 
BRANCH  15  16
ATOM     16  C   UNL     1       1.152   9.448  22.764  0.00  0.00    +0.000 C 
BRANCH  16  17
ATOM     17  C   UNL     1      -0.377   9.401  22.960  0.00  0.00    +0.000 C 
BRANCH  17  18
ATOM     18  C   UNL     1      -0.991  10.808  22.825  0.00  0.00    +0.000 C 
BRANCH  18  19
ATOM     19  C   UNL     1      -0.913  11.388  21.404  0.00  0.00    +0.000 C 
BRANCH  19  20
ATOM     20  C   UNL     1       0.208  12.434  21.309  0.00  0.00    +0.000 C 
BRANCH  20  21
ATOM     21  C   UNL     1      -0.165  13.779  21.940  0.00  0.00    +0.000 C 
ATOM     22  C   UNL     1       0.123  14.929  20.982  0.00  0.00    +0.000 C 
ENDBRANCH  20  21
ENDBRANCH  19  20
ENDBRANCH  18  19
ENDBRANCH  17  18
ENDBRANCH  16  17
ENDBRANCH  15  16
ENDBRANCH  14  15
ENDBRANCH   4  13
BRANCH   1  24
ATOM     23  C   UNL     1       5.974   5.968  16.205  0.00  0.00    +0.000 C 
ATOM     24  C   UNL     1       5.708   6.311  17.475  0.00  0.00    +0.000 C 
BRANCH  23  25
ATOM     25  C   UNL     1       5.142   5.094  15.311  0.00  0.00    +0.000 C 
BRANCH  25  26
ATOM     26  C   UNL     1       5.995   4.367  14.274  0.00  0.00    +0.000 C 
BRANCH  26  27
ATOM     27  C   UNL     1       5.254   4.307  12.939  0.00  0.00    +0.000 C 
BRANCH  27  28
ATOM     28  C   UNL     1       5.912   3.323  11.977  0.00  0.00    +0.000 C 
BRANCH  28  29
ATOM     29  C   UNL     1       4.877   2.374  11.373  0.00  0.00    +0.000 C 
BRANCH  29  30
ATOM     30  C   UNL     1       3.597   3.126  11.013  0.00  0.00    +0.000 C 
BRANCH  30  32
ATOM     31  C   UNL     1       2.472   4.615   9.333  0.00  0.00    +0.000 C 
ATOM     32  C   UNL     1       3.674   3.727   9.612  0.00  0.00    +0.000 C 
ENDBRANCH  30  32
ENDBRANCH  29  30
ENDBRANCH  28  29
ENDBRANCH  27  28
ENDBRANCH  26  27
ENDBRANCH  25  26
ENDBRANCH  23  25
ENDBRANCH   1  24
TORSDOF 16
ENDMDL
MODEL 9
REMARK VINA RESULT:      -5.8      1.995      4.196
REMARK  Name = 
REMARK  20 active torsions:
REMARK  status: ('A' for Active; 'I' for Inactive)
REMARK    1  A    between atoms: C_1  and  C_2
REMARK    2  A    between atoms: C_2  and  C_3
REMARK    3  A    between atoms: C_3  and  C_4
REMARK    4  A    between atoms: C_4  and  C_5
REMARK    5  A    between atoms: C_5  and  C_6
REMARK    6  A    between atoms: C_6  and  C_7
REMARK    7  A    between atoms: C_7  and  C_8
REMARK    8  A    between atoms: C_8  and  C_9
REMARK    9  A    between atoms: C_10  and  C_11
REMARK   10  A    between atoms: C_12  and  C_13
REMARK   11  A    between atoms: C_14  and  C_15
REMARK   12  A    between atoms: C_16  and  C_17
REMARK   13  A    between atoms: C_17  and  C_18
REMARK   14  A    between atoms: C_18  and  C_19
REMARK   15  A    between atoms: C_19  and  C_20
REMARK   16  A    between atoms: C_20  and  C_21
REMARK   17  A    between atoms: C_21  and  C_22
REMARK   18  A    between atoms: C_22  and  C_23
REMARK   19  A    between atoms: C_23  and  C_24
REMARK   20  A    between atoms: C_27  and  C_28
REMARK                            x       y       z     vdW  Elec       q    Type
REMARK                         _______ _______ _______ _____ _____    ______ ____
ROOT
ATOM      1  C   UNL     1       1.546   8.851  19.518  0.00  0.00    +0.000 A 
ATOM      2  C   UNL     1       2.312   8.714  18.350  0.00  0.00    +0.000 A 
ATOM      3  C   UNL     1       2.656   9.910  17.485  0.00  0.00    +0.000 C 
ATOM      4  C   UNL     1       2.816   7.442  18.019  0.00  0.00    +0.000 A 
ATOM      5  C   UNL     1       2.615   6.348  18.906  0.00  0.00    +0.000 A 
ATOM      6  N   UNL     1       1.880   6.519  20.056  0.00  0.00    +0.000 N 
ATOM      7  C   UNL     1       1.383   7.756  20.400  0.00  0.00    +0.000 A 
ATOM      8  C   UNL     1       0.676   7.978  21.726  0.00  0.00    +0.000 C 
ATOM      9  C   UNL     1       1.637   5.379  20.992  0.00  0.00    +0.000 C 
ATOM     10  C   UNL     1       1.817   4.023  20.353  0.00  0.00    +0.000 C 
ATOM     11  C   UNL     1       3.169   3.972  19.688  0.00  0.00    +0.000 C 
ATOM     12  C   UNL     1       3.216   4.997  18.566  0.00  0.00    +0.000 C 
ENDROOT
BRANCH   4  13
ATOM     13  C   UNL     1       3.619   7.314  16.775  0.00  0.00    +0.000 C 
ATOM     14  C   UNL     1       4.942   7.093  16.633  0.00  0.00    +0.000 C 
BRANCH  14  15
ATOM     15  C   UNL     1       6.022   7.037  17.682  0.00  0.00    +0.000 C 
BRANCH  15  16
ATOM     16  C   UNL     1       7.341   6.324  17.316  0.00  0.00    +0.000 C 
BRANCH  16  17
ATOM     17  C   UNL     1       7.338   4.785  17.406  0.00  0.00    +0.000 C 
BRANCH  17  18
ATOM     18  C   UNL     1       6.415   4.174  16.333  0.00  0.00    +0.000 C 
BRANCH  18  19
ATOM     19  C   UNL     1       6.829   4.511  14.892  0.00  0.00    +0.000 C 
BRANCH  19  20
ATOM     20  C   UNL     1       5.771   4.014  13.895  0.00  0.00    +0.000 C 
BRANCH  20  21
ATOM     21  C   UNL     1       6.359   3.604  12.543  0.00  0.00    +0.000 C 
ATOM     22  C   UNL     1       5.388   2.719  11.771  0.00  0.00    +0.000 C 
ENDBRANCH  20  21
ENDBRANCH  19  20
ENDBRANCH  18  19
ENDBRANCH  17  18
ENDBRANCH  16  17
ENDBRANCH  15  16
ENDBRANCH  14  15
ENDBRANCH   4  13
BRANCH   1  24
ATOM     23  C   UNL     1      -0.162  10.652  19.162  0.00  0.00    +0.000 C 
ATOM     24  C   UNL     1       0.888  10.136  19.819  0.00  0.00    +0.000 C 
BRANCH  23  25
ATOM     25  C   UNL     1      -0.866  10.061  17.976  0.00  0.00    +0.000 C 
BRANCH  25  26
ATOM     26  C   UNL     1      -2.314   9.697  18.298  0.00  0.00    +0.000 C 
BRANCH  26  27
ATOM     27  C   UNL     1      -3.231  10.150  17.162  0.00  0.00    +0.000 C 
BRANCH  27  28
ATOM     28  C   UNL     1      -3.727  11.576  17.378  0.00  0.00    +0.000 C 
BRANCH  28  29
ATOM     29  C   UNL     1      -5.240  11.664  17.181  0.00  0.00    +0.000 C 
BRANCH  29  30
ATOM     30  C   UNL     1      -5.974  10.889  18.273  0.00  0.00    +0.000 C 
BRANCH  30  32
ATOM     31  C   UNL     1      -7.454  11.992  19.975  0.00  0.00    +0.000 C 
ATOM     32  C   UNL     1      -6.021  11.672  19.583  0.00  0.00    +0.000 C 
ENDBRANCH  30  32
ENDBRANCH  29  30
ENDBRANCH  28  29
ENDBRANCH  27  28
ENDBRANCH  26  27
ENDBRANCH  25  26
ENDBRANCH  23  25
ENDBRANCH   1  24
TORSDOF 16
ENDMDL
