MODEL 1
REMARK VINA RESULT:      -7.8      0.000      0.000
REMARK  Name = 
REMARK  9 active torsions:
REMARK  status: ('A' for Active; 'I' for Inactive)
REMARK    1  A    between atoms: N_1  and  C_2
REMARK    2  A    between atoms: C_4  and  O_5
REMARK    3  A    between atoms: O_5  and  C_6
REMARK    4  A    between atoms: C_6  and  C_7
REMARK    5  A    between atoms: C_7  and  C_8
REMARK    6  A    between atoms: C_8  and  N_9
REMARK    7  A    between atoms: N_9  and  C_10
REMARK    8  A    between atoms: C_10  and  C_11
REMARK    9  A    between atoms: C_17  and  O_18
REMARK                            x       y       z     vdW  Elec       q    Type
REMARK                         _______ _______ _______ _____ _____    ______ ____
ROOT
ATOM      1  N   UNL     1       7.300   4.796  18.614  0.00  0.00    +0.000 NA
ATOM      2  H   UNL     1       6.733   4.468  19.397  0.00  0.00    +0.000 HD
ENDROOT
BRANCH   1   3
ATOM      3  C   UNL     1       7.658   6.209  18.757  0.00  0.00    +0.000 C 
BRANCH   3   4
ATOM      4  C   UNL     1       7.579   7.133  17.509  0.00  0.00    +0.000 C 
BRANCH   4   5
ATOM      5  C   UNL     1       7.920   8.602  17.748  0.00  0.00    +0.000 C 
BRANCH   5   6
ATOM      6  O   UNL     1       8.846   8.865  18.818  0.00  0.00    +0.000 OA
BRANCH   6   9
ATOM      7  C   UNL     1       9.749  11.999  20.657  0.00  0.00    +0.000 A 
ATOM      8  C   UNL     1       9.245  10.697  20.418  0.00  0.00    +0.000 A 
ATOM      9  C   UNL     1       9.226  10.150  19.131  0.00  0.00    +0.000 A 
ATOM     10  C   UNL     1       9.750  10.909  18.076  0.00  0.00    +0.000 A 
ATOM     11  C   UNL     1      10.326  12.168  18.295  0.00  0.00    +0.000 A 
ATOM     12  C   UNL     1      10.351  12.701  19.589  0.00  0.00    +0.000 A 
ATOM     13 CL   UNL     1      11.095  14.238  19.842  0.00  0.00    +0.000 Cl
BRANCH   7  14
ATOM     14  N   UNL     1       9.846  12.475  21.974  0.00  0.00    +0.000 N 
ATOM     15  H   UNL     1       9.774  13.481  22.056  0.00  0.00    +0.000 HD
ATOM     16  H   UNL     1      10.656  12.100  22.460  0.00  0.00    +0.000 HD
ENDBRANCH   7  14
ENDBRANCH   6   9
ENDBRANCH   5   6
ENDBRANCH   4   5
ENDBRANCH   3   4
ENDBRANCH   1   3
BRANCH   1  17
ATOM     17  C   UNL     1       6.670   4.459  17.338  0.00  0.00    +0.000 C 
BRANCH  17  18
ATOM     18  C   UNL     1       5.260   3.858  17.525  0.00  0.00    +0.000 C 
ATOM     19  C   UNL     1       4.237   4.683  16.743  0.00  0.00    +0.000 C 
ATOM     20  C   UNL     1       2.880   4.003  16.851  0.00  0.00    +0.000 C 
ATOM     21  C   UNL     1       2.611   3.574  18.264  0.00  0.00    +0.000 A 
ATOM     22  C   UNL     1       1.319   3.183  18.642  0.00  0.00    +0.000 A 
ATOM     23  C   UNL     1       1.060   2.774  19.952  0.00  0.00    +0.000 A 
ATOM     24  C   UNL     1       2.096   2.757  20.881  0.00  0.00    +0.000 A 
ATOM     25  C   UNL     1       3.384   3.135  20.522  0.00  0.00    +0.000 A 
ATOM     26  C   UNL     1       3.646   3.526  19.210  0.00  0.00    +0.000 A 
ATOM     27  O   UNL     1       4.939   3.882  18.929  0.00  0.00    +0.000 OA
BRANCH  24  28
ATOM     28  O   UNL     1       1.883   2.364  22.170  0.00  0.00    +0.000 OA
ATOM     29  H   UNL     1       1.195   2.929  22.558  0.00  0.00    +0.000 HD
ENDBRANCH  24  28
ENDBRANCH  17  18
ENDBRANCH   1  17
TORSDOF 9
ENDMDL
MODEL 2
REMARK VINA RESULT:      -7.8      4.361      7.137
REMARK  Name = 
REMARK  9 active torsions:
REMARK  status: ('A' for Active; 'I' for Inactive)
REMARK    1  A    between atoms: N_1  and  C_2
REMARK    2  A    between atoms: C_4  and  O_5
REMARK    3  A    between atoms: O_5  and  C_6
REMARK    4  A    between atoms: C_6  and  C_7
REMARK    5  A    between atoms: C_7  and  C_8
REMARK    6  A    between atoms: C_8  and  N_9
REMARK    7  A    between atoms: N_9  and  C_10
REMARK    8  A    between atoms: C_10  and  C_11
REMARK    9  A    between atoms: C_17  and  O_18
REMARK                            x       y       z     vdW  Elec       q    Type
REMARK                         _______ _______ _______ _____ _____    ______ ____
ROOT
ATOM      1  N   UNL     1       2.316   2.144  19.632  0.00  0.00    +0.000 NA
ATOM      2  H   UNL     1       1.794   2.666  18.925  0.00  0.00    +0.000 HD
ENDROOT
BRANCH   1   3
ATOM      3  C   UNL     1       1.956   2.561  20.990  0.00  0.00    +0.000 C 
BRANCH   3   4
ATOM      4  C   UNL     1       2.174   4.045  21.399  0.00  0.00    +0.000 C 
BRANCH   4   5
ATOM      5  C   UNL     1       1.475   5.084  20.524  0.00  0.00    +0.000 C 
BRANCH   5   6
ATOM      6  O   UNL     1       2.324   6.098  19.956  0.00  0.00    +0.000 OA
BRANCH   6   9
ATOM      7  C   UNL     1       1.562   9.602  18.876  0.00  0.00    +0.000 A 
ATOM      8  C   UNL     1       2.083   8.285  18.845  0.00  0.00    +0.000 A 
ATOM      9  C   UNL     1       1.936   7.419  19.932  0.00  0.00    +0.000 A 
ATOM     10  C   UNL     1       1.227   7.870  21.054  0.00  0.00    +0.000 A 
ATOM     11  C   UNL     1       0.633   9.140  21.082  0.00  0.00    +0.000 A 
ATOM     12  C   UNL     1       0.777   9.995  19.983  0.00  0.00    +0.000 A 
ATOM     13 CL   UNL     1       0.010  11.541  20.025  0.00  0.00    +0.000 Cl
BRANCH   7  14
ATOM     14  N   UNL     1       1.640  10.407  17.729  0.00  0.00    +0.000 N 
ATOM     15  H   UNL     1       2.316  11.157  17.797  0.00  0.00    +0.000 HD
ATOM     16  H   UNL     1       0.727  10.729  17.423  0.00  0.00    +0.000 HD
ENDBRANCH   7  14
ENDBRANCH   6   9
ENDBRANCH   5   6
ENDBRANCH   4   5
ENDBRANCH   3   4
ENDBRANCH   1   3
BRANCH   1  17
ATOM     17  C   UNL     1       3.750   2.176  19.350  0.00  0.00    +0.000 C 
BRANCH  17  18
ATOM     18  C   UNL     1       4.175   3.477  18.636  0.00  0.00    +0.000 C 
ATOM     19  C   UNL     1       4.236   3.246  17.126  0.00  0.00    +0.000 C 
ATOM     20  C   UNL     1       4.543   4.570  16.443  0.00  0.00    +0.000 C 
ATOM     21  C   UNL     1       5.645   5.295  17.160  0.00  0.00    +0.000 A 
ATOM     22  C   UNL     1       6.273   6.390  16.551  0.00  0.00    +0.000 A 
ATOM     23  C   UNL     1       7.293   7.077  17.212  0.00  0.00    +0.000 A 
ATOM     24  C   UNL     1       7.683   6.665  18.484  0.00  0.00    +0.000 A 
ATOM     25  C   UNL     1       7.067   5.586  19.105  0.00  0.00    +0.000 A 
ATOM     26  C   UNL     1       6.037   4.911  18.451  0.00  0.00    +0.000 A 
ATOM     27  O   UNL     1       5.475   3.860  19.126  0.00  0.00    +0.000 OA
BRANCH  24  28
ATOM     28  O   UNL     1       8.676   7.310  19.162  0.00  0.00    +0.000 OA
ATOM     29  H   UNL     1       9.532   6.957  18.869  0.00  0.00    +0.000 HD
ENDBRANCH  24  28
ENDBRANCH  17  18
ENDBRANCH   1  17
TORSDOF 9
ENDMDL
MODEL 3
REMARK VINA RESULT:      -7.7      4.551      6.857
REMARK  Name = 
REMARK  9 active torsions:
REMARK  status: ('A' for Active; 'I' for Inactive)
REMARK    1  A    between atoms: N_1  and  C_2
REMARK    2  A    between atoms: C_4  and  O_5
REMARK    3  A    between atoms: O_5  and  C_6
REMARK    4  A    between atoms: C_6  and  C_7
REMARK    5  A    between atoms: C_7  and  C_8
REMARK    6  A    between atoms: C_8  and  N_9
REMARK    7  A    between atoms: N_9  and  C_10
REMARK    8  A    between atoms: C_10  and  C_11
REMARK    9  A    between atoms: C_17  and  O_18
REMARK                            x       y       z     vdW  Elec       q    Type
REMARK                         _______ _______ _______ _____ _____    ______ ____
ROOT
ATOM      1  N   UNL     1       2.627   3.862  20.242  0.00  0.00    +0.000 NA
ATOM      2  H   UNL     1       3.413   4.082  19.628  0.00  0.00    +0.000 HD
ENDROOT
BRANCH   1   3
ATOM      3  C   UNL     1       1.534   3.213  19.512  0.00  0.00    +0.000 C 
BRANCH   3   4
ATOM      4  C   UNL     1       1.843   2.537  18.146  0.00  0.00    +0.000 C 
BRANCH   4   5
ATOM      5  C   UNL     1       2.789   3.305  17.225  0.00  0.00    +0.000 C 
BRANCH   5   6
ATOM      6  O   UNL     1       4.192   3.167  17.512  0.00  0.00    +0.000 OA
BRANCH   6   9
ATOM      7  C   UNL     1       6.796   5.575  18.716  0.00  0.00    +0.000 A 
ATOM      8  C   UNL     1       5.936   4.449  18.692  0.00  0.00    +0.000 A 
ATOM      9  C   UNL     1       4.999   4.271  17.670  0.00  0.00    +0.000 A 
ATOM     10  C   UNL     1       4.947   5.221  16.640  0.00  0.00    +0.000 A 
ATOM     11  C   UNL     1       5.837   6.303  16.596  0.00  0.00    +0.000 A 
ATOM     12  C   UNL     1       6.779   6.465  17.618  0.00  0.00    +0.000 A 
ATOM     13 CL   UNL     1       7.887   7.785  17.528  0.00  0.00    +0.000 Cl
BRANCH   7  14
ATOM     14  N   UNL     1       7.791   5.668  19.700  0.00  0.00    +0.000 N 
ATOM     15  H   UNL     1       7.649   6.421  20.361  0.00  0.00    +0.000 HD
ATOM     16  H   UNL     1       8.726   5.667  19.303  0.00  0.00    +0.000 HD
ENDBRANCH   7  14
ENDBRANCH   6   9
ENDBRANCH   5   6
ENDBRANCH   4   5
ENDBRANCH   3   4
ENDBRANCH   1   3
BRANCH   1  17
ATOM     17  C   UNL     1       2.225   5.036  21.014  0.00  0.00    +0.000 C 
BRANCH  17  18
ATOM     18  C   UNL     1       1.812   6.216  20.108  0.00  0.00    +0.000 C 
ATOM     19  C   UNL     1       2.959   6.572  19.163  0.00  0.00    +0.000 C 
ATOM     20  C   UNL     1       2.485   7.657  18.208  0.00  0.00    +0.000 C 
ATOM     21  C   UNL     1       1.732   8.725  18.948  0.00  0.00    +0.000 A 
ATOM     22  C   UNL     1       1.450   9.945  18.318  0.00  0.00    +0.000 A 
ATOM     23  C   UNL     1       0.743  10.941  18.994  0.00  0.00    +0.000 A 
ATOM     24  C   UNL     1       0.320  10.714  20.301  0.00  0.00    +0.000 A 
ATOM     25  C   UNL     1       0.587   9.509  20.938  0.00  0.00    +0.000 A 
ATOM     26  C   UNL     1       1.277   8.508  20.257  0.00  0.00    +0.000 A 
ATOM     27  O   UNL     1       1.500   7.345  20.947  0.00  0.00    +0.000 OA
BRANCH  24  28
ATOM     28  O   UNL     1      -0.372  11.664  20.995  0.00  0.00    +0.000 OA
ATOM     29  H   UNL     1      -1.195  11.858  20.519  0.00  0.00    +0.000 HD
ENDBRANCH  24  28
ENDBRANCH  17  18
ENDBRANCH   1  17
TORSDOF 9
ENDMDL
MODEL 4
REMARK VINA RESULT:      -7.5      1.218      1.503
REMARK  Name = 
REMARK  9 active torsions:
REMARK  status: ('A' for Active; 'I' for Inactive)
REMARK    1  A    between atoms: N_1  and  C_2
REMARK    2  A    between atoms: C_4  and  O_5
REMARK    3  A    between atoms: O_5  and  C_6
REMARK    4  A    between atoms: C_6  and  C_7
REMARK    5  A    between atoms: C_7  and  C_8
REMARK    6  A    between atoms: C_8  and  N_9
REMARK    7  A    between atoms: N_9  and  C_10
REMARK    8  A    between atoms: C_10  and  C_11
REMARK    9  A    between atoms: C_17  and  O_18
REMARK                            x       y       z     vdW  Elec       q    Type
REMARK                         _______ _______ _______ _____ _____    ______ ____
ROOT
ATOM      1  N   UNL     1       7.396   4.752  18.435  0.00  0.00    +0.000 NA
ATOM      2  H   UNL     1       6.998   4.279  19.249  0.00  0.00    +0.000 HD
ENDROOT
BRANCH   1   3
ATOM      3  C   UNL     1       7.709   6.154  18.722  0.00  0.00    +0.000 C 
BRANCH   3   4
ATOM      4  C   UNL     1       7.791   7.161  17.540  0.00  0.00    +0.000 C 
BRANCH   4   5
ATOM      5  C   UNL     1       7.587   8.630  17.905  0.00  0.00    +0.000 C 
BRANCH   5   6
ATOM      6  O   UNL     1       8.619   9.533  17.468  0.00  0.00    +0.000 OA
BRANCH   6   9
ATOM      7  C   UNL     1       9.611  12.871  18.848  0.00  0.00    +0.000 A 
ATOM      8  C   UNL     1       9.233  11.880  17.909  0.00  0.00    +0.000 A 
ATOM      9  C   UNL     1       9.074  10.544  18.286  0.00  0.00    +0.000 A 
ATOM     10  C   UNL     1       9.265  10.203  19.632  0.00  0.00    +0.000 A 
ATOM     11  C   UNL     1       9.563  11.174  20.597  0.00  0.00    +0.000 A 
ATOM     12  C   UNL     1       9.709  12.511  20.211  0.00  0.00    +0.000 A 
ATOM     13 CL   UNL     1      10.043  13.696  21.420  0.00  0.00    +0.000 Cl
BRANCH   7  14
ATOM     14  N   UNL     1       9.663  14.216  18.454  0.00  0.00    +0.000 N 
ATOM     15  H   UNL     1       9.488  14.873  19.204  0.00  0.00    +0.000 HD
ATOM     16  H   UNL     1       9.091  14.399  17.634  0.00  0.00    +0.000 HD
ENDBRANCH   7  14
ENDBRANCH   6   9
ENDBRANCH   5   6
ENDBRANCH   4   5
ENDBRANCH   3   4
ENDBRANCH   1   3
BRANCH   1  17
ATOM     17  C   UNL     1       6.558   4.550  17.254  0.00  0.00    +0.000 C 
BRANCH  17  18
ATOM     18  C   UNL     1       5.066   4.389  17.619  0.00  0.00    +0.000 C 
ATOM     19  C   UNL     1       4.360   5.742  17.529  0.00  0.00    +0.000 C 
ATOM     20  C   UNL     1       2.874   5.533  17.779  0.00  0.00    +0.000 C 
ATOM     21  C   UNL     1       2.655   4.622  18.953  0.00  0.00    +0.000 A 
ATOM     22  C   UNL     1       1.381   4.516  19.527  0.00  0.00    +0.000 A 
ATOM     23  C   UNL     1       1.164   3.666  20.613  0.00  0.00    +0.000 A 
ATOM     24  C   UNL     1       2.226   2.922  21.122  0.00  0.00    +0.000 A 
ATOM     25  C   UNL     1       3.494   3.010  20.561  0.00  0.00    +0.000 A 
ATOM     26  C   UNL     1       3.705   3.846  19.466  0.00  0.00    +0.000 A 
ATOM     27  O   UNL     1       4.979   3.879  18.963  0.00  0.00    +0.000 OA
BRANCH  24  28
ATOM     28  O   UNL     1       2.054   2.080  22.182  0.00  0.00    +0.000 OA
ATOM     29  H   UNL     1       1.270   1.532  22.020  0.00  0.00    +0.000 HD
ENDBRANCH  24  28
ENDBRANCH  17  18
ENDBRANCH   1  17
TORSDOF 9
ENDMDL
MODEL 5
REMARK VINA RESULT:      -7.5      4.597      7.034
REMARK  Name = 
REMARK  9 active torsions:
REMARK  status: ('A' for Active; 'I' for Inactive)
REMARK    1  A    between atoms: N_1  and  C_2
REMARK    2  A    between atoms: C_4  and  O_5
REMARK    3  A    between atoms: O_5  and  C_6
REMARK    4  A    between atoms: C_6  and  C_7
REMARK    5  A    between atoms: C_7  and  C_8
REMARK    6  A    between atoms: C_8  and  N_9
REMARK    7  A    between atoms: N_9  and  C_10
REMARK    8  A    between atoms: C_10  and  C_11
REMARK    9  A    between atoms: C_17  and  O_18
REMARK                            x       y       z     vdW  Elec       q    Type
REMARK                         _______ _______ _______ _____ _____    ______ ____
ROOT
ATOM      1  N   UNL     1       1.821   2.506  18.246  0.00  0.00    +0.000 NA
ATOM      2  H   UNL     1       1.099   1.811  18.043  0.00  0.00    +0.000 HD
ENDROOT
BRANCH   1   3
ATOM      3  C   UNL     1       1.239   3.808  18.582  0.00  0.00    +0.000 C 
BRANCH   3   4
ATOM      4  C   UNL     1       1.168   4.234  20.076  0.00  0.00    +0.000 C 
BRANCH   4   5
ATOM      5  C   UNL     1       2.395   4.965  20.616  0.00  0.00    +0.000 C 
BRANCH   5   6
ATOM      6  O   UNL     1       2.880   6.055  19.811  0.00  0.00    +0.000 OA
BRANCH   6   9
ATOM      7  C   UNL     1       1.410   9.343  18.785  0.00  0.00    +0.000 A 
ATOM      8  C   UNL     1       2.171   8.150  18.723  0.00  0.00    +0.000 A 
ATOM      9  C   UNL     1       2.247   7.278  19.812  0.00  0.00    +0.000 A 
ATOM     10  C   UNL     1       1.522   7.592  20.970  0.00  0.00    +0.000 A 
ATOM     11  C   UNL     1       0.700   8.724  21.033  0.00  0.00    +0.000 A 
ATOM     12  C   UNL     1       0.622   9.585  19.933  0.00  0.00    +0.000 A 
ATOM     13 CL   UNL     1      -0.423  10.957  20.020  0.00  0.00    +0.000 Cl
BRANCH   7  14
ATOM     14  N   UNL     1       1.275  10.142  17.640  0.00  0.00    +0.000 N 
ATOM     15  H   UNL     1       0.385  10.616  17.569  0.00  0.00    +0.000 HD
ATOM     16  H   UNL     1       1.519   9.640  16.790  0.00  0.00    +0.000 HD
ENDBRANCH   7  14
ENDBRANCH   6   9
ENDBRANCH   5   6
ENDBRANCH   4   5
ENDBRANCH   3   4
ENDBRANCH   1   3
BRANCH   1  17
ATOM     17  C   UNL     1       2.818   2.547  17.178  0.00  0.00    +0.000 C 
BRANCH  17  18
ATOM     18  C   UNL     1       3.706   3.808  17.257  0.00  0.00    +0.000 C 
ATOM     19  C   UNL     1       4.315   4.102  15.886  0.00  0.00    +0.000 C 
ATOM     20  C   UNL     1       5.088   5.410  15.967  0.00  0.00    +0.000 C 
ATOM     21  C   UNL     1       5.926   5.455  17.212  0.00  0.00    +0.000 A 
ATOM     22  C   UNL     1       6.921   6.433  17.350  0.00  0.00    +0.000 A 
ATOM     23  C   UNL     1       7.700   6.490  18.507  0.00  0.00    +0.000 A 
ATOM     24  C   UNL     1       7.481   5.566  19.526  0.00  0.00    +0.000 A 
ATOM     25  C   UNL     1       6.496   4.594  19.408  0.00  0.00    +0.000 A 
ATOM     26  C   UNL     1       5.707   4.549  18.260  0.00  0.00    +0.000 A 
ATOM     27  O   UNL     1       4.753   3.566  18.217  0.00  0.00    +0.000 OA
BRANCH  24  28
ATOM     28  O   UNL     1       8.222   5.589  20.671  0.00  0.00    +0.000 OA
ATOM     29  H   UNL     1       7.942   6.348  21.208  0.00  0.00    +0.000 HD
ENDBRANCH  24  28
ENDBRANCH  17  18
ENDBRANCH   1  17
TORSDOF 9
ENDMDL
MODEL 6
REMARK VINA RESULT:      -7.5      1.709      2.194
REMARK  Name = 
REMARK  9 active torsions:
REMARK  status: ('A' for Active; 'I' for Inactive)
REMARK    1  A    between atoms: N_1  and  C_2
REMARK    2  A    between atoms: C_4  and  O_5
REMARK    3  A    between atoms: O_5  and  C_6
REMARK    4  A    between atoms: C_6  and  C_7
REMARK    5  A    between atoms: C_7  and  C_8
REMARK    6  A    between atoms: C_8  and  N_9
REMARK    7  A    between atoms: N_9  and  C_10
REMARK    8  A    between atoms: C_10  and  C_11
REMARK    9  A    between atoms: C_17  and  O_18
REMARK                            x       y       z     vdW  Elec       q    Type
REMARK                         _______ _______ _______ _____ _____    ______ ____
ROOT
ATOM      1  N   UNL     1       7.784   6.013  17.574  0.00  0.00    +0.000 NA
ATOM      2  H   UNL     1       8.739   5.657  17.493  0.00  0.00    +0.000 HD
ENDROOT
BRANCH   1   3
ATOM      3  C   UNL     1       7.739   7.474  17.476  0.00  0.00    +0.000 C 
BRANCH   3   4
ATOM      4  C   UNL     1       8.272   8.321  18.667  0.00  0.00    +0.000 C 
BRANCH   4   5
ATOM      5  C   UNL     1       8.808   9.705  18.309  0.00  0.00    +0.000 C 
BRANCH   5   6
ATOM      6  O   UNL     1       9.689  10.305  19.276  0.00  0.00    +0.000 OA
BRANCH   6   9
ATOM      7  C   UNL     1      11.310  13.168  17.486  0.00  0.00    +0.000 A 
ATOM      8  C   UNL     1      10.654  11.929  17.692  0.00  0.00    +0.000 A 
ATOM      9  C   UNL     1      10.401  11.446  18.979  0.00  0.00    +0.000 A 
ATOM     10  C   UNL     1      10.781  12.234  20.074  0.00  0.00    +0.000 A 
ATOM     11  C   UNL     1      11.361  13.498  19.900  0.00  0.00    +0.000 A 
ATOM     12  C   UNL     1      11.600  13.977  18.607  0.00  0.00    +0.000 A 
ATOM     13 CL   UNL     1      12.284  15.550  18.415  0.00  0.00    +0.000 Cl
BRANCH   7  14
ATOM     14  N   UNL     1      11.456  13.667  16.183  0.00  0.00    +0.000 N 
ATOM     15  H   UNL     1      12.200  13.230  15.654  0.00  0.00    +0.000 HD
ATOM     16  H   UNL     1      11.507  14.682  16.163  0.00  0.00    +0.000 HD
ENDBRANCH   7  14
ENDBRANCH   6   9
ENDBRANCH   5   6
ENDBRANCH   4   5
ENDBRANCH   3   4
ENDBRANCH   1   3
BRANCH   1  17
ATOM     17  C   UNL     1       7.124   5.465  18.758  0.00  0.00    +0.000 C 
BRANCH  17  18
ATOM     18  C   UNL     1       5.999   4.473  18.393  0.00  0.00    +0.000 C 
ATOM     19  C   UNL     1       5.433   4.814  17.015  0.00  0.00    +0.000 C 
ATOM     20  C   UNL     1       4.410   3.754  16.634  0.00  0.00    +0.000 C 
ATOM     21  C   UNL     1       3.501   3.451  17.791  0.00  0.00    +0.000 A 
ATOM     22  C   UNL     1       2.325   2.719  17.582  0.00  0.00    +0.000 A 
ATOM     23  C   UNL     1       1.477   2.424  18.652  0.00  0.00    +0.000 A 
ATOM     24  C   UNL     1       1.811   2.864  19.930  0.00  0.00    +0.000 A 
ATOM     25  C   UNL     1       2.976   3.586  20.156  0.00  0.00    +0.000 A 
ATOM     26  C   UNL     1       3.830   3.864  19.090  0.00  0.00    +0.000 A 
ATOM     27  O   UNL     1       4.962   4.577  19.389  0.00  0.00    +0.000 OA
BRANCH  24  28
ATOM     28  O   UNL     1       1.008   2.597  21.001  0.00  0.00    +0.000 OA
ATOM     29  H   UNL     1       1.349   1.810  21.455  0.00  0.00    +0.000 HD
ENDBRANCH  24  28
ENDBRANCH  17  18
ENDBRANCH   1  17
TORSDOF 9
ENDMDL
MODEL 7
REMARK VINA RESULT:      -7.5      2.176      2.709
REMARK  Name = 
REMARK  9 active torsions:
REMARK  status: ('A' for Active; 'I' for Inactive)
REMARK    1  A    between atoms: N_1  and  C_2
REMARK    2  A    between atoms: C_4  and  O_5
REMARK    3  A    between atoms: O_5  and  C_6
REMARK    4  A    between atoms: C_6  and  C_7
REMARK    5  A    between atoms: C_7  and  C_8
REMARK    6  A    between atoms: C_8  and  N_9
REMARK    7  A    between atoms: N_9  and  C_10
REMARK    8  A    between atoms: C_10  and  C_11
REMARK    9  A    between atoms: C_17  and  O_18
REMARK                            x       y       z     vdW  Elec       q    Type
REMARK                         _______ _______ _______ _____ _____    ______ ____
ROOT
ATOM      1  N   UNL     1       7.569   6.709  18.052  0.00  0.00    +0.000 NA
ATOM      2  H   UNL     1       7.979   6.310  17.205  0.00  0.00    +0.000 HD
ENDROOT
BRANCH   1   3
ATOM      3  C   UNL     1       8.398   7.786  18.600  0.00  0.00    +0.000 C 
BRANCH   3   4
ATOM      4  C   UNL     1       8.280   9.210  17.987  0.00  0.00    +0.000 C 
BRANCH   4   5
ATOM      5  C   UNL     1       9.084  10.302  18.687  0.00  0.00    +0.000 C 
BRANCH   5   6
ATOM      6  O   UNL     1       9.929  11.101  17.838  0.00  0.00    +0.000 OA
BRANCH   6   9
ATOM      7  C   UNL     1      10.551  14.740  17.211  0.00  0.00    +0.000 A 
ATOM      8  C   UNL     1      10.708  13.334  17.143  0.00  0.00    +0.000 A 
ATOM      9  C   UNL     1       9.914  12.476  17.909  0.00  0.00    +0.000 A 
ATOM     10  C   UNL     1       8.926  13.037  18.730  0.00  0.00    +0.000 A 
ATOM     11  C   UNL     1       8.696  14.419  18.759  0.00  0.00    +0.000 A 
ATOM     12  C   UNL     1       9.489  15.268  17.980  0.00  0.00    +0.000 A 
ATOM     13 CL   UNL     1       9.167  16.964  18.004  0.00  0.00    +0.000 Cl
BRANCH   7  14
ATOM     14  N   UNL     1      11.296  15.564  16.354  0.00  0.00    +0.000 N 
ATOM     15  H   UNL     1      10.931  15.617  15.412  0.00  0.00    +0.000 HD
ATOM     16  H   UNL     1      12.288  15.346  16.377  0.00  0.00    +0.000 HD
ENDBRANCH   7  14
ENDBRANCH   6   9
ENDBRANCH   5   6
ENDBRANCH   4   5
ENDBRANCH   3   4
ENDBRANCH   1   3
BRANCH   1  17
ATOM     17  C   UNL     1       7.230   5.659  19.011  0.00  0.00    +0.000 C 
BRANCH  17  18
ATOM     18  C   UNL     1       6.039   4.799  18.537  0.00  0.00    +0.000 C 
ATOM     19  C   UNL     1       5.633   5.207  17.121  0.00  0.00    +0.000 C 
ATOM     20  C   UNL     1       4.537   4.268  16.639  0.00  0.00    +0.000 C 
ATOM     21  C   UNL     1       3.506   4.061  17.710  0.00  0.00    +0.000 A 
ATOM     22  C   UNL     1       2.278   3.464  17.391  0.00  0.00    +0.000 A 
ATOM     23  C   UNL     1       1.315   3.259  18.381  0.00  0.00    +0.000 A 
ATOM     24  C   UNL     1       1.583   3.652  19.689  0.00  0.00    +0.000 A 
ATOM     25  C   UNL     1       2.797   4.240  20.024  0.00  0.00    +0.000 A 
ATOM     26  C   UNL     1       3.765   4.429  19.038  0.00  0.00    +0.000 A 
ATOM     27  O   UNL     1       4.938   5.010  19.442  0.00  0.00    +0.000 OA
BRANCH  24  28
ATOM     28  O   UNL     1       0.668   3.469  20.684  0.00  0.00    +0.000 OA
ATOM     29  H   UNL     1       1.048   3.785  21.519  0.00  0.00    +0.000 HD
ENDBRANCH  24  28
ENDBRANCH  17  18
ENDBRANCH   1  17
TORSDOF 9
ENDMDL
MODEL 8
REMARK VINA RESULT:      -7.4      5.510      8.187
REMARK  Name = 
REMARK  9 active torsions:
REMARK  status: ('A' for Active; 'I' for Inactive)
REMARK    1  A    between atoms: N_1  and  C_2
REMARK    2  A    between atoms: C_4  and  O_5
REMARK    3  A    between atoms: O_5  and  C_6
REMARK    4  A    between atoms: C_6  and  C_7
REMARK    5  A    between atoms: C_7  and  C_8
REMARK    6  A    between atoms: C_8  and  N_9
REMARK    7  A    between atoms: N_9  and  C_10
REMARK    8  A    between atoms: C_10  and  C_11
REMARK    9  A    between atoms: C_17  and  O_18
REMARK                            x       y       z     vdW  Elec       q    Type
REMARK                         _______ _______ _______ _____ _____    ______ ____
ROOT
ATOM      1  N   UNL     1       4.025   7.020  17.112  0.00  0.00    +0.000 NA
ATOM      2  H   UNL     1       3.599   6.475  16.360  0.00  0.00    +0.000 HD
ENDROOT
BRANCH   1   3
ATOM      3  C   UNL     1       5.488   6.942  17.075  0.00  0.00    +0.000 C 
BRANCH   3   4
ATOM      4  C   UNL     1       6.157   5.608  16.637  0.00  0.00    +0.000 C 
BRANCH   4   5
ATOM      5  C   UNL     1       5.247   4.617  15.914  0.00  0.00    +0.000 C 
BRANCH   5   6
ATOM      6  O   UNL     1       5.047   3.354  16.574  0.00  0.00    +0.000 OA
BRANCH   6   9
ATOM      7  C   UNL     1       3.131   2.811  19.746  0.00  0.00    +0.000 A 
ATOM      8  C   UNL     1       4.224   2.865  18.846  0.00  0.00    +0.000 A 
ATOM      9  C   UNL     1       4.040   3.184  17.497  0.00  0.00    +0.000 A 
ATOM     10  C   UNL     1       2.745   3.485  17.054  0.00  0.00    +0.000 A 
ATOM     11  C   UNL     1       1.657   3.515  17.937  0.00  0.00    +0.000 A 
ATOM     12  C   UNL     1       1.854   3.205  19.287  0.00  0.00    +0.000 A 
ATOM     13 CL   UNL     1       0.508   3.281  20.365  0.00  0.00    +0.000 Cl
BRANCH   7  14
ATOM     14  N   UNL     1       3.367   2.587  21.111  0.00  0.00    +0.000 N 
ATOM     15  H   UNL     1       4.298   2.841  21.416  0.00  0.00    +0.000 HD
ATOM     16  H   UNL     1       3.103   1.649  21.398  0.00  0.00    +0.000 HD
ENDBRANCH   7  14
ENDBRANCH   6   9
ENDBRANCH   5   6
ENDBRANCH   4   5
ENDBRANCH   3   4
ENDBRANCH   1   3
BRANCH   1  17
ATOM     17  C   UNL     1       3.434   6.675  18.404  0.00  0.00    +0.000 C 
BRANCH  17  18
ATOM     18  C   UNL     1       2.209   7.553  18.738  0.00  0.00    +0.000 C 
ATOM     19  C   UNL     1       2.267   8.852  17.935  0.00  0.00    +0.000 C 
ATOM     20  C   UNL     1       0.992   9.643  18.196  0.00  0.00    +0.000 C 
ATOM     21  C   UNL     1       0.664   9.652  19.661  0.00  0.00    +0.000 A 
ATOM     22  C   UNL     1      -0.299  10.542  20.155  0.00  0.00    +0.000 A 
ATOM     23  C   UNL     1      -0.619  10.554  21.514  0.00  0.00    +0.000 A 
ATOM     24  C   UNL     1       0.027   9.673  22.376  0.00  0.00    +0.000 A 
ATOM     25  C   UNL     1       0.980   8.779  21.902  0.00  0.00    +0.000 A 
ATOM     26  C   UNL     1       1.286   8.757  20.543  0.00  0.00    +0.000 A 
ATOM     27  O   UNL     1       2.232   7.847  20.148  0.00  0.00    +0.000 OA
BRANCH  24  28
ATOM     28  O   UNL     1      -0.257   9.654  23.711  0.00  0.00    +0.000 OA
ATOM     29  H   UNL     1      -0.119  10.545  24.070  0.00  0.00    +0.000 HD
ENDBRANCH  24  28
ENDBRANCH  17  18
ENDBRANCH   1  17
TORSDOF 9
ENDMDL
MODEL 9
REMARK VINA RESULT:      -7.3      5.172      7.153
REMARK  Name = 
REMARK  9 active torsions:
REMARK  status: ('A' for Active; 'I' for Inactive)
REMARK    1  A    between atoms: N_1  and  C_2
REMARK    2  A    between atoms: C_4  and  O_5
REMARK    3  A    between atoms: O_5  and  C_6
REMARK    4  A    between atoms: C_6  and  C_7
REMARK    5  A    between atoms: C_7  and  C_8
REMARK    6  A    between atoms: C_8  and  N_9
REMARK    7  A    between atoms: N_9  and  C_10
REMARK    8  A    between atoms: C_10  and  C_11
REMARK    9  A    between atoms: C_17  and  O_18
REMARK                            x       y       z     vdW  Elec       q    Type
REMARK                         _______ _______ _______ _____ _____    ______ ____
ROOT
ATOM      1  N   UNL     1       1.891   5.035  20.409  0.00  0.00    +0.000 NA
ATOM      2  H   UNL     1       1.519   5.363  21.302  0.00  0.00    +0.000 HD
ENDROOT
BRANCH   1   3
ATOM      3  C   UNL     1       2.641   3.785  20.561  0.00  0.00    +0.000 C 
BRANCH   3   4
ATOM      4  C   UNL     1       2.476   2.677  19.483  0.00  0.00    +0.000 C 
BRANCH   4   5
ATOM      5  C   UNL     1       3.742   2.304  18.715  0.00  0.00    +0.000 C 
BRANCH   5   6
ATOM      6  O   UNL     1       4.072   3.152  17.600  0.00  0.00    +0.000 OA
BRANCH   6   9
ATOM      7  C   UNL     1       6.720   5.535  18.754  0.00  0.00    +0.000 A 
ATOM      8  C   UNL     1       5.872   4.401  18.730  0.00  0.00    +0.000 A 
ATOM      9  C   UNL     1       4.876   4.258  17.760  0.00  0.00    +0.000 A 
ATOM     10  C   UNL     1       4.753   5.253  16.779  0.00  0.00    +0.000 A 
ATOM     11  C   UNL     1       5.628   6.346  16.732  0.00  0.00    +0.000 A 
ATOM     12  C   UNL     1       6.628   6.474  17.702  0.00  0.00    +0.000 A 
ATOM     13 CL   UNL     1       7.717   7.810  17.606  0.00  0.00    +0.000 Cl
BRANCH   7  14
ATOM     14  N   UNL     1       7.772   5.595  19.681  0.00  0.00    +0.000 N 
ATOM     15  H   UNL     1       8.617   5.129  19.377  0.00  0.00    +0.000 HD
ATOM     16  H   UNL     1       7.481   5.310  20.612  0.00  0.00    +0.000 HD
ENDBRANCH   7  14
ENDBRANCH   6   9
ENDBRANCH   5   6
ENDBRANCH   4   5
ENDBRANCH   3   4
ENDBRANCH   1   3
BRANCH   1  17
ATOM     17  C   UNL     1       2.624   6.101  19.727  0.00  0.00    +0.000 C 
BRANCH  17  18
ATOM     18  C   UNL     1       1.746   7.346  19.479  0.00  0.00    +0.000 C 
ATOM     19  C   UNL     1       2.362   8.204  18.374  0.00  0.00    +0.000 C 
ATOM     20  C   UNL     1       1.419   9.359  18.072  0.00  0.00    +0.000 C 
ATOM     21  C   UNL     1       0.914   9.980  19.343  0.00  0.00    +0.000 A 
ATOM     22  C   UNL     1       0.261  11.219  19.304  0.00  0.00    +0.000 A 
ATOM     23  C   UNL     1      -0.219  11.801  20.479  0.00  0.00    +0.000 A 
ATOM     24  C   UNL     1      -0.046  11.139  21.692  0.00  0.00    +0.000 A 
ATOM     25  C   UNL     1       0.593   9.907  21.747  0.00  0.00    +0.000 A 
ATOM     26  C   UNL     1       1.058   9.319  20.572  0.00  0.00    +0.000 A 
ATOM     27  O   UNL     1       1.674   8.102  20.704  0.00  0.00    +0.000 OA
BRANCH  24  28
ATOM     28  O   UNL     1      -0.501  11.675  22.861  0.00  0.00    +0.000 OA
ATOM     29  H   UNL     1      -0.363  12.635  22.837  0.00  0.00    +0.000 HD
ENDBRANCH  24  28
ENDBRANCH  17  18
ENDBRANCH   1  17
TORSDOF 9
ENDMDL
