MODEL 1
REMARK VINA RESULT:      -7.6      0.000      0.000
REMARK  Name = 
REMARK  8 active torsions:
REMARK  status: ('A' for Active; 'I' for Inactive)
REMARK    1  A    between atoms: C_2  and  C_3
REMARK    2  A    between atoms: C_3  and  C_4
REMARK    3  A    between atoms: C_4  and  N_5
REMARK    4  A    between atoms: N_5  and  S_6
REMARK    5  A    between atoms: S_6  and  C_9
REMARK    6  A    between atoms: N_19  and  C_20
REMARK    7  A    between atoms: C_20  and  C_21
REMARK    8  A    between atoms: C_24  and  O_25
REMARK                            x       y       z     vdW  Elec       q    Type
REMARK                         _______ _______ _______ _____ _____    ______ ____
ROOT
ATOM      1  N   UNL     1       1.794   4.047  19.263  0.00  0.00    +0.000 NA
ATOM      2  H   UNL     1       0.820   4.385  19.204  0.00  0.00    +0.000 HD
ENDROOT
BRANCH   1   3
ATOM      3  S   UNL     1       2.666   5.072  20.282  0.00  0.00    +0.000 S 
ATOM      4  O   UNL     1       1.950   5.112  21.538  0.00  0.00    +0.000 OA
ATOM      5  O   UNL     1       4.065   4.711  20.218  0.00  0.00    +0.000 OA
BRANCH   3   6
ATOM      6  C   UNL     1       2.472   6.665  19.512  0.00  0.00    +0.000 A 
ATOM      7  C   UNL     1       2.829   6.827  18.152  0.00  0.00    +0.000 A 
ATOM      8  C   UNL     1       2.531   8.016  17.476  0.00  0.00    +0.000 A 
ATOM      9  C   UNL     1       1.882   8.989  18.199  0.00  0.00    +0.000 A 
ATOM     10  N   UNL     1       1.411  10.212  17.819  0.00  0.00    +0.000 N 
ATOM     11  C   UNL     1       0.794  10.783  18.910  0.00  0.00    +0.000 A 
ATOM     12  O   UNL     1       0.247  11.875  18.910  0.00  0.00    +0.000 OA
ATOM     13  O   UNL     1       0.870   9.945  20.030  0.00  0.00    +0.000 OA
ATOM     14  C   UNL     1       1.543   8.842  19.528  0.00  0.00    +0.000 A 
ATOM     15  C   UNL     1       1.824   7.686  20.222  0.00  0.00    +0.000 A 
ATOM     16  H   UNL     1       1.445  10.642  16.910  0.00  0.00    +0.000 HD
ENDBRANCH   3   6
ENDBRANCH   1   3
BRANCH   1  17
ATOM     17  C   UNL     1       1.901   2.598  19.521  0.00  0.00    +0.000 C 
BRANCH  17  18
ATOM     18  C   UNL     1       2.754   1.898  18.467  0.00  0.00    +0.000 C 
BRANCH  18  20
ATOM     19  O   UNL     1       2.379   3.271  16.525  0.00  0.00    +0.000 OA
ATOM     20  C   UNL     1       3.175   2.848  17.360  0.00  0.00    +0.000 C 
ATOM     21  N   UNL     1       4.488   3.244  17.422  0.00  0.00    +0.000 N 
ATOM     22  H   UNL     1       5.110   2.841  18.111  0.00  0.00    +0.000 HD
BRANCH  21  23
ATOM     23  C   UNL     1       5.057   4.171  16.469  0.00  0.00    +0.000 C 
BRANCH  23  24
ATOM     24  C   UNL     1       6.016   5.122  17.139  0.00  0.00    +0.000 A 
ATOM     25  C   UNL     1       6.770   4.704  18.246  0.00  0.00    +0.000 A 
ATOM     26  C   UNL     1       7.675   5.577  18.861  0.00  0.00    +0.000 A 
ATOM     27  C   UNL     1       7.810   6.873  18.376  0.00  0.00    +0.000 A 
ATOM     28  C   UNL     1       7.056   7.311  17.294  0.00  0.00    +0.000 A 
ATOM     29  C   UNL     1       6.158   6.440  16.678  0.00  0.00    +0.000 A 
BRANCH  27  30
ATOM     30  O   UNL     1       8.684   7.755  18.939  0.00  0.00    +0.000 OA
ATOM     31  H   UNL     1       9.574   7.365  18.920  0.00  0.00    +0.000 HD
ENDBRANCH  27  30
ENDBRANCH  23  24
ENDBRANCH  21  23
ENDBRANCH  18  20
ENDBRANCH  17  18
ENDBRANCH   1  17
TORSDOF 8
ENDMDL
MODEL 2
REMARK VINA RESULT:      -7.6      2.149      5.922
REMARK  Name = 
REMARK  8 active torsions:
REMARK  status: ('A' for Active; 'I' for Inactive)
REMARK    1  A    between atoms: C_2  and  C_3
REMARK    2  A    between atoms: C_3  and  C_4
REMARK    3  A    between atoms: C_4  and  N_5
REMARK    4  A    between atoms: N_5  and  S_6
REMARK    5  A    between atoms: S_6  and  C_9
REMARK    6  A    between atoms: N_19  and  C_20
REMARK    7  A    between atoms: C_20  and  C_21
REMARK    8  A    between atoms: C_24  and  O_25
REMARK                            x       y       z     vdW  Elec       q    Type
REMARK                         _______ _______ _______ _____ _____    ______ ____
ROOT
ATOM      1  N   UNL     1       3.075   2.263  18.897  0.00  0.00    +0.000 NA
ATOM      2  H   UNL     1       3.000   2.795  18.015  0.00  0.00    +0.000 HD
ENDROOT
BRANCH   1   3
ATOM      3  S   UNL     1       4.300   2.940  19.841  0.00  0.00    +0.000 S 
ATOM      4  O   UNL     1       3.655   3.838  20.772  0.00  0.00    +0.000 OA
ATOM      5  O   UNL     1       5.178   1.882  20.292  0.00  0.00    +0.000 OA
BRANCH   3   6
ATOM      6  C   UNL     1       5.198   3.942  18.676  0.00  0.00    +0.000 A 
ATOM      7  C   UNL     1       6.139   4.886  19.154  0.00  0.00    +0.000 A 
ATOM      8  C   UNL     1       6.979   5.565  18.263  0.00  0.00    +0.000 A 
ATOM      9  C   UNL     1       6.838   5.260  16.930  0.00  0.00    +0.000 A 
ATOM     10  N   UNL     1       7.533   5.698  15.840  0.00  0.00    +0.000 N 
ATOM     11  C   UNL     1       7.031   5.052  14.733  0.00  0.00    +0.000 A 
ATOM     12  O   UNL     1       7.441   5.200  13.593  0.00  0.00    +0.000 OA
ATOM     13  O   UNL     1       5.981   4.191  15.082  0.00  0.00    +0.000 OA
ATOM     14  C   UNL     1       5.914   4.350  16.457  0.00  0.00    +0.000 A 
ATOM     15  C   UNL     1       5.073   3.668  17.308  0.00  0.00    +0.000 A 
ATOM     16  H   UNL     1       8.306   6.340  15.807  0.00  0.00    +0.000 HD
ENDBRANCH   3   6
ENDBRANCH   1   3
BRANCH   1  17
ATOM     17  C   UNL     1       1.776   2.028  19.555  0.00  0.00    +0.000 C 
BRANCH  17  18
ATOM     18  C   UNL     1       0.731   3.054  19.126  0.00  0.00    +0.000 C 
BRANCH  18  20
ATOM     19  O   UNL     1       1.180   4.090  16.999  0.00  0.00    +0.000 OA
ATOM     20  C   UNL     1       1.325   4.117  18.219  0.00  0.00    +0.000 C 
ATOM     21  N   UNL     1       1.964   5.135  18.882  0.00  0.00    +0.000 N 
ATOM     22  H   UNL     1       2.083   5.094  19.886  0.00  0.00    +0.000 HD
BRANCH  21  23
ATOM     23  C   UNL     1       2.563   6.250  18.183  0.00  0.00    +0.000 C 
BRANCH  23  24
ATOM     24  C   UNL     1       2.036   7.565  18.700  0.00  0.00    +0.000 A 
ATOM     25  C   UNL     1       1.855   8.648  17.826  0.00  0.00    +0.000 A 
ATOM     26  C   UNL     1       1.349   9.864  18.297  0.00  0.00    +0.000 A 
ATOM     27  C   UNL     1       1.040   9.999  19.646  0.00  0.00    +0.000 A 
ATOM     28  C   UNL     1       1.233   8.945  20.529  0.00  0.00    +0.000 A 
ATOM     29  C   UNL     1       1.733   7.731  20.060  0.00  0.00    +0.000 A 
BRANCH  27  30
ATOM     30  O   UNL     1       0.538  11.164  20.147  0.00  0.00    +0.000 OA
ATOM     31  H   UNL     1      -0.359  10.997  20.481  0.00  0.00    +0.000 HD
ENDBRANCH  27  30
ENDBRANCH  23  24
ENDBRANCH  21  23
ENDBRANCH  18  20
ENDBRANCH  17  18
ENDBRANCH   1  17
TORSDOF 8
ENDMDL
MODEL 3
REMARK VINA RESULT:      -7.5      2.460      6.810
REMARK  Name = 
REMARK  8 active torsions:
REMARK  status: ('A' for Active; 'I' for Inactive)
REMARK    1  A    between atoms: C_2  and  C_3
REMARK    2  A    between atoms: C_3  and  C_4
REMARK    3  A    between atoms: C_4  and  N_5
REMARK    4  A    between atoms: N_5  and  S_6
REMARK    5  A    between atoms: S_6  and  C_9
REMARK    6  A    between atoms: N_19  and  C_20
REMARK    7  A    between atoms: C_20  and  C_21
REMARK    8  A    between atoms: C_24  and  O_25
REMARK                            x       y       z     vdW  Elec       q    Type
REMARK                         _______ _______ _______ _____ _____    ______ ____
ROOT
ATOM      1  N   UNL     1       3.022   2.725  19.870  0.00  0.00    +0.000 NA
ATOM      2  H   UNL     1       3.167   1.843  20.388  0.00  0.00    +0.000 HD
ENDROOT
BRANCH   1   3
ATOM      3  S   UNL     1       3.197   2.424  18.219  0.00  0.00    +0.000 S 
ATOM      4  O   UNL     1       3.785   1.108  18.099  0.00  0.00    +0.000 OA
ATOM      5  O   UNL     1       1.960   2.765  17.550  0.00  0.00    +0.000 OA
BRANCH   3   6
ATOM      6  C   UNL     1       4.435   3.603  17.723  0.00  0.00    +0.000 A 
ATOM      7  C   UNL     1       4.407   4.126  16.408  0.00  0.00    +0.000 A 
ATOM      8  C   UNL     1       5.259   5.176  16.043  0.00  0.00    +0.000 A 
ATOM      9  C   UNL     1       6.098   5.656  17.021  0.00  0.00    +0.000 A 
ATOM     10  N   UNL     1       6.988   6.690  16.999  0.00  0.00    +0.000 N 
ATOM     11  C   UNL     1       7.546   6.793  18.253  0.00  0.00    +0.000 A 
ATOM     12  O   UNL     1       8.372   7.629  18.583  0.00  0.00    +0.000 OA
ATOM     13  O   UNL     1       7.041   5.809  19.114  0.00  0.00    +0.000 OA
ATOM     14  C   UNL     1       6.138   5.142  18.301  0.00  0.00    +0.000 A 
ATOM     15  C   UNL     1       5.314   4.109  18.691  0.00  0.00    +0.000 A 
ATOM     16  H   UNL     1       7.199   7.319  16.242  0.00  0.00    +0.000 HD
ENDBRANCH   3   6
ENDBRANCH   1   3
BRANCH   1  17
ATOM     17  C   UNL     1       1.815   3.463  20.292  0.00  0.00    +0.000 C 
BRANCH  17  18
ATOM     18  C   UNL     1       2.170   4.726  21.073  0.00  0.00    +0.000 C 
BRANCH  18  20
ATOM     19  O   UNL     1       2.210   5.929  18.988  0.00  0.00    +0.000 OA
ATOM     20  C   UNL     1       2.072   5.970  20.208  0.00  0.00    +0.000 C 
ATOM     21  N   UNL     1       1.745   7.113  20.895  0.00  0.00    +0.000 N 
ATOM     22  H   UNL     1       1.673   7.098  21.903  0.00  0.00    +0.000 HD
BRANCH  21  23
ATOM     23  C   UNL     1       1.578   8.386  20.231  0.00  0.00    +0.000 C 
BRANCH  23  24
ATOM     24  C   UNL     1       0.685   9.304  21.027  0.00  0.00    +0.000 A 
ATOM     25  C   UNL     1       0.034  10.378  20.401  0.00  0.00    +0.000 A 
ATOM     26  C   UNL     1      -0.810  11.221  21.131  0.00  0.00    +0.000 A 
ATOM     27  C   UNL     1      -0.987  10.998  22.492  0.00  0.00    +0.000 A 
ATOM     28  C   UNL     1      -0.334   9.953  23.133  0.00  0.00    +0.000 A 
ATOM     29  C   UNL     1       0.504   9.109  22.405  0.00  0.00    +0.000 A 
BRANCH  27  30
ATOM     30  O   UNL     1      -1.805  11.791  23.242  0.00  0.00    +0.000 OA
ATOM     31  H   UNL     1      -1.420  12.681  23.286  0.00  0.00    +0.000 HD
ENDBRANCH  27  30
ENDBRANCH  23  24
ENDBRANCH  21  23
ENDBRANCH  18  20
ENDBRANCH  17  18
ENDBRANCH   1  17
TORSDOF 8
ENDMDL
MODEL 4
REMARK VINA RESULT:      -7.5      2.309      6.070
REMARK  Name = 
REMARK  8 active torsions:
REMARK  status: ('A' for Active; 'I' for Inactive)
REMARK    1  A    between atoms: C_2  and  C_3
REMARK    2  A    between atoms: C_3  and  C_4
REMARK    3  A    between atoms: C_4  and  N_5
REMARK    4  A    between atoms: N_5  and  S_6
REMARK    5  A    between atoms: S_6  and  C_9
REMARK    6  A    between atoms: N_19  and  C_20
REMARK    7  A    between atoms: C_20  and  C_21
REMARK    8  A    between atoms: C_24  and  O_25
REMARK                            x       y       z     vdW  Elec       q    Type
REMARK                         _______ _______ _______ _____ _____    ______ ____
ROOT
ATOM      1  N   UNL     1       3.145   3.183  20.636  0.00  0.00    +0.000 NA
ATOM      2  H   UNL     1       3.647   3.246  21.537  0.00  0.00    +0.000 HD
ENDROOT
BRANCH   1   3
ATOM      3  S   UNL     1       4.069   2.270  19.559  0.00  0.00    +0.000 S 
ATOM      4  O   UNL     1       5.079   1.599  20.347  0.00  0.00    +0.000 OA
ATOM      5  O   UNL     1       3.177   1.537  18.687  0.00  0.00    +0.000 OA
BRANCH   3   6
ATOM      6  C   UNL     1       4.895   3.510  18.585  0.00  0.00    +0.000 A 
ATOM      7  C   UNL     1       5.490   4.619  19.234  0.00  0.00    +0.000 A 
ATOM      8  C   UNL     1       6.288   5.517  18.516  0.00  0.00    +0.000 A 
ATOM      9  C   UNL     1       6.457   5.256  17.176  0.00  0.00    +0.000 A 
ATOM     10  N   UNL     1       7.209   5.897  16.234  0.00  0.00    +0.000 N 
ATOM     11  C   UNL     1       7.073   5.209  15.049  0.00  0.00    +0.000 A 
ATOM     12  O   UNL     1       7.629   5.506  14.003  0.00  0.00    +0.000 OA
ATOM     13  O   UNL     1       6.211   4.114  15.195  0.00  0.00    +0.000 OA
ATOM     14  C   UNL     1       5.870   4.184  16.536  0.00  0.00    +0.000 A 
ATOM     15  C   UNL     1       5.078   3.283  17.214  0.00  0.00    +0.000 A 
ATOM     16  H   UNL     1       7.803   6.700  16.348  0.00  0.00    +0.000 HD
ENDBRANCH   3   6
ENDBRANCH   1   3
BRANCH   1  17
ATOM     17  C   UNL     1       1.724   2.813  20.779  0.00  0.00    +0.000 C 
BRANCH  17  18
ATOM     18  C   UNL     1       0.800   3.893  20.224  0.00  0.00    +0.000 C 
BRANCH  18  20
ATOM     19  O   UNL     1       1.528   4.420  17.991  0.00  0.00    +0.000 OA
ATOM     20  C   UNL     1       1.494   4.744  19.175  0.00  0.00    +0.000 C 
ATOM     21  N   UNL     1       2.006   5.925  19.653  0.00  0.00    +0.000 N 
ATOM     22  H   UNL     1       1.978   6.130  20.643  0.00  0.00    +0.000 HD
BRANCH  21  23
ATOM     23  C   UNL     1       2.673   6.876  18.792  0.00  0.00    +0.000 C 
BRANCH  23  24
ATOM     24  C   UNL     1       2.057   8.247  18.912  0.00  0.00    +0.000 A 
ATOM     25  C   UNL     1       1.354   8.608  20.071  0.00  0.00    +0.000 A 
ATOM     26  C   UNL     1       0.796   9.885  20.196  0.00  0.00    +0.000 A 
ATOM     27  C   UNL     1       0.928  10.793  19.151  0.00  0.00    +0.000 A 
ATOM     28  C   UNL     1       1.602  10.446  17.987  0.00  0.00    +0.000 A 
ATOM     29  C   UNL     1       2.163   9.175  17.865  0.00  0.00    +0.000 A 
BRANCH  27  30
ATOM     30  O   UNL     1       0.406  12.050  19.232  0.00  0.00    +0.000 OA
ATOM     31  H   UNL     1       0.948  12.646  18.689  0.00  0.00    +0.000 HD
ENDBRANCH  27  30
ENDBRANCH  23  24
ENDBRANCH  21  23
ENDBRANCH  18  20
ENDBRANCH  17  18
ENDBRANCH   1  17
TORSDOF 8
ENDMDL
MODEL 5
REMARK VINA RESULT:      -7.1      3.434      4.939
REMARK  Name = 
REMARK  8 active torsions:
REMARK  status: ('A' for Active; 'I' for Inactive)
REMARK    1  A    between atoms: C_2  and  C_3
REMARK    2  A    between atoms: C_3  and  C_4
REMARK    3  A    between atoms: C_4  and  N_5
REMARK    4  A    between atoms: N_5  and  S_6
REMARK    5  A    between atoms: S_6  and  C_9
REMARK    6  A    between atoms: N_19  and  C_20
REMARK    7  A    between atoms: C_20  and  C_21
REMARK    8  A    between atoms: C_24  and  O_25
REMARK                            x       y       z     vdW  Elec       q    Type
REMARK                         _______ _______ _______ _____ _____    ______ ____
ROOT
ATOM      1  N   UNL     1       5.996   4.008  19.015  0.00  0.00    +0.000 NA
ATOM      2  H   UNL     1       5.992   4.450  19.948  0.00  0.00    +0.000 HD
ENDROOT
BRANCH   1   3
ATOM      3  S   UNL     1       4.435   3.474  18.658  0.00  0.00    +0.000 S 
ATOM      4  O   UNL     1       4.431   3.121  17.255  0.00  0.00    +0.000 OA
ATOM      5  O   UNL     1       4.019   2.536  19.677  0.00  0.00    +0.000 OA
BRANCH   3   6
ATOM      6  C   UNL     1       3.455   4.949  18.834  0.00  0.00    +0.000 A 
ATOM      7  C   UNL     1       2.792   5.200  20.060  0.00  0.00    +0.000 A 
ATOM      8  C   UNL     1       2.156   6.427  20.286  0.00  0.00    +0.000 A 
ATOM      9  C   UNL     1       2.220   7.350  19.269  0.00  0.00    +0.000 A 
ATOM     10  N   UNL     1       1.760   8.633  19.203  0.00  0.00    +0.000 N 
ATOM     11  C   UNL     1       2.121   9.147  17.978  0.00  0.00    +0.000 A 
ATOM     12  O   UNL     1       1.879  10.283  17.601  0.00  0.00    +0.000 OA
ATOM     13  O   UNL     1       2.809   8.197  17.213  0.00  0.00    +0.000 OA
ATOM     14  C   UNL     1       2.854   7.107  18.067  0.00  0.00    +0.000 A 
ATOM     15  C   UNL     1       3.487   5.909  17.813  0.00  0.00    +0.000 A 
ATOM     16  H   UNL     1       1.280   9.162  19.911  0.00  0.00    +0.000 HD
ENDBRANCH   3   6
ENDBRANCH   1   3
BRANCH   1  17
ATOM     17  C   UNL     1       6.681   4.812  17.985  0.00  0.00    +0.000 C 
BRANCH  17  18
ATOM     18  C   UNL     1       7.493   5.947  18.602  0.00  0.00    +0.000 C 
BRANCH  18  20
ATOM     19  O   UNL     1       6.914   7.213  16.637  0.00  0.00    +0.000 OA
ATOM     20  C   UNL     1       7.512   7.176  17.709  0.00  0.00    +0.000 C 
ATOM     21  N   UNL     1       8.187   8.249  18.237  0.00  0.00    +0.000 N 
ATOM     22  H   UNL     1       8.689   8.155  19.110  0.00  0.00    +0.000 HD
BRANCH  21  23
ATOM     23  C   UNL     1       8.282   9.513  17.542  0.00  0.00    +0.000 C 
BRANCH  23  24
ATOM     24  C   UNL     1       8.936  10.562  18.406  0.00  0.00    +0.000 A 
ATOM     25  C   UNL     1       9.168  11.851  17.901  0.00  0.00    +0.000 A 
ATOM     26  C   UNL     1       9.758  12.833  18.703  0.00  0.00    +0.000 A 
ATOM     27  C   UNL     1      10.130  12.519  20.006  0.00  0.00    +0.000 A 
ATOM     28  C   UNL     1       9.927  11.242  20.515  0.00  0.00    +0.000 A 
ATOM     29  C   UNL     1       9.335  10.264  19.717  0.00  0.00    +0.000 A 
BRANCH  27  30
ATOM     30  O   UNL     1      10.701  13.447  20.826  0.00  0.00    +0.000 OA
ATOM     31  H   UNL     1      10.047  13.719  21.490  0.00  0.00    +0.000 HD
ENDBRANCH  27  30
ENDBRANCH  23  24
ENDBRANCH  21  23
ENDBRANCH  18  20
ENDBRANCH  17  18
ENDBRANCH   1  17
TORSDOF 8
ENDMDL
MODEL 6
REMARK VINA RESULT:      -7.1      2.850      7.175
REMARK  Name = 
REMARK  8 active torsions:
REMARK  status: ('A' for Active; 'I' for Inactive)
REMARK    1  A    between atoms: C_2  and  C_3
REMARK    2  A    between atoms: C_3  and  C_4
REMARK    3  A    between atoms: C_4  and  N_5
REMARK    4  A    between atoms: N_5  and  S_6
REMARK    5  A    between atoms: S_6  and  C_9
REMARK    6  A    between atoms: N_19  and  C_20
REMARK    7  A    between atoms: C_20  and  C_21
REMARK    8  A    between atoms: C_24  and  O_25
REMARK                            x       y       z     vdW  Elec       q    Type
REMARK                         _______ _______ _______ _____ _____    ______ ____
ROOT
ATOM      1  N   UNL     1       3.463   3.824  20.559  0.00  0.00    +0.000 NA
ATOM      2  H   UNL     1       4.197   4.009  21.262  0.00  0.00    +0.000 HD
ENDROOT
BRANCH   1   3
ATOM      3  S   UNL     1       4.068   2.748  19.409  0.00  0.00    +0.000 S 
ATOM      4  O   UNL     1       5.010   1.893  20.097  0.00  0.00    +0.000 OA
ATOM      5  O   UNL     1       2.960   2.202  18.655  0.00  0.00    +0.000 OA
BRANCH   3   6
ATOM      6  C   UNL     1       5.005   3.803  18.324  0.00  0.00    +0.000 A 
ATOM      7  C   UNL     1       5.888   4.760  18.880  0.00  0.00    +0.000 A 
ATOM      8  C   UNL     1       6.760   5.483  18.057  0.00  0.00    +0.000 A 
ATOM      9  C   UNL     1       6.709   5.207  16.711  0.00  0.00    +0.000 A 
ATOM     10  N   UNL     1       7.455   5.690  15.676  0.00  0.00    +0.000 N 
ATOM     11  C   UNL     1       7.038   5.058  14.526  0.00  0.00    +0.000 A 
ATOM     12  O   UNL     1       7.512   5.245  13.416  0.00  0.00    +0.000 OA
ATOM     13  O   UNL     1       5.995   4.160  14.791  0.00  0.00    +0.000 OA
ATOM     14  C   UNL     1       5.841   4.284  16.162  0.00  0.00    +0.000 A 
ATOM     15  C   UNL     1       4.970   3.558  16.944  0.00  0.00    +0.000 A 
ATOM     16  H   UNL     1       8.210   6.354  15.705  0.00  0.00    +0.000 HD
ENDBRANCH   3   6
ENDBRANCH   1   3
BRANCH   1  17
ATOM     17  C   UNL     1       2.149   3.502  21.151  0.00  0.00    +0.000 C 
BRANCH  17  18
ATOM     18  C   UNL     1       1.053   4.426  20.629  0.00  0.00    +0.000 C 
BRANCH  18  20
ATOM     19  O   UNL     1       2.218   5.862  19.087  0.00  0.00    +0.000 OA
ATOM     20  C   UNL     1       1.614   5.754  20.151  0.00  0.00    +0.000 C 
ATOM     21  N   UNL     1       1.325   6.818  20.969  0.00  0.00    +0.000 N 
ATOM     22  H   UNL     1       0.852   6.669  21.851  0.00  0.00    +0.000 HD
BRANCH  21  23
ATOM     23  C   UNL     1       1.752   8.164  20.658  0.00  0.00    +0.000 C 
BRANCH  23  24
ATOM     24  C   UNL     1       0.830   9.185  21.276  0.00  0.00    +0.000 A 
ATOM     25  C   UNL     1       0.432  10.314  20.544  0.00  0.00    +0.000 A 
ATOM     26  C   UNL     1      -0.438  11.255  21.105  0.00  0.00    +0.000 A 
ATOM     27  C   UNL     1      -0.894  11.072  22.406  0.00  0.00    +0.000 A 
ATOM     28  C   UNL     1      -0.493   9.972  23.153  0.00  0.00    +0.000 A 
ATOM     29  C   UNL     1       0.370   9.031  22.592  0.00  0.00    +0.000 A 
BRANCH  27  30
ATOM     30  O   UNL     1      -1.748  11.960  22.991  0.00  0.00    +0.000 OA
ATOM     31  H   UNL     1      -1.674  12.812  22.530  0.00  0.00    +0.000 HD
ENDBRANCH  27  30
ENDBRANCH  23  24
ENDBRANCH  21  23
ENDBRANCH  18  20
ENDBRANCH  17  18
ENDBRANCH   1  17
TORSDOF 8
ENDMDL
MODEL 7
REMARK VINA RESULT:      -7.1      2.499      7.615
REMARK  Name = 
REMARK  8 active torsions:
REMARK  status: ('A' for Active; 'I' for Inactive)
REMARK    1  A    between atoms: C_2  and  C_3
REMARK    2  A    between atoms: C_3  and  C_4
REMARK    3  A    between atoms: C_4  and  N_5
REMARK    4  A    between atoms: N_5  and  S_6
REMARK    5  A    between atoms: S_6  and  C_9
REMARK    6  A    between atoms: N_19  and  C_20
REMARK    7  A    between atoms: C_20  and  C_21
REMARK    8  A    between atoms: C_24  and  O_25
REMARK                            x       y       z     vdW  Elec       q    Type
REMARK                         _______ _______ _______ _____ _____    ______ ____
ROOT
ATOM      1  N   UNL     1       1.658   4.419  19.221  0.00  0.00    +0.000 NA
ATOM      2  H   UNL     1       1.458   4.814  18.288  0.00  0.00    +0.000 HD
ENDROOT
BRANCH   1   3
ATOM      3  S   UNL     1       2.777   3.167  19.057  0.00  0.00    +0.000 S 
ATOM      4  O   UNL     1       3.178   2.794  20.396  0.00  0.00    +0.000 OA
ATOM      5  O   UNL     1       2.252   2.194  18.125  0.00  0.00    +0.000 OA
BRANCH   3   6
ATOM      6  C   UNL     1       4.170   3.968  18.292  0.00  0.00    +0.000 A 
ATOM      7  C   UNL     1       5.259   4.384  19.095  0.00  0.00    +0.000 A 
ATOM      8  C   UNL     1       6.435   4.861  18.505  0.00  0.00    +0.000 A 
ATOM      9  C   UNL     1       6.465   4.893  17.131  0.00  0.00    +0.000 A 
ATOM     10  N   UNL     1       7.467   5.243  16.272  0.00  0.00    +0.000 N 
ATOM     11  C   UNL     1       7.005   5.057  14.988  0.00  0.00    +0.000 A 
ATOM     12  O   UNL     1       7.657   5.259  13.976  0.00  0.00    +0.000 OA
ATOM     13  O   UNL     1       5.681   4.597  14.988  0.00  0.00    +0.000 OA
ATOM     14  C   UNL     1       5.402   4.501  16.342  0.00  0.00    +0.000 A 
ATOM     15  C   UNL     1       4.231   4.030  16.893  0.00  0.00    +0.000 A 
ATOM     16  H   UNL     1       8.401   5.545  16.489  0.00  0.00    +0.000 HD
ENDBRANCH   3   6
ENDBRANCH   1   3
BRANCH   1  17
ATOM     17  C   UNL     1       1.945   5.444  20.244  0.00  0.00    +0.000 C 
BRANCH  17  18
ATOM     18  C   UNL     1       2.292   6.790  19.613  0.00  0.00    +0.000 C 
BRANCH  18  20
ATOM     19  O   UNL     1       1.420   7.914  21.556  0.00  0.00    +0.000 OA
ATOM     20  C   UNL     1       1.629   7.943  20.346  0.00  0.00    +0.000 C 
ATOM     21  N   UNL     1       1.357   9.033  19.557  0.00  0.00    +0.000 N 
ATOM     22  H   UNL     1       1.520   8.994  18.560  0.00  0.00    +0.000 HD
BRANCH  21  23
ATOM     23  C   UNL     1       0.755  10.236  20.090  0.00  0.00    +0.000 C 
BRANCH  23  24
ATOM     24  C   UNL     1      -0.431  10.664  19.264  0.00  0.00    +0.000 A 
ATOM     25  C   UNL     1      -0.718  10.021  18.051  0.00  0.00    +0.000 A 
ATOM     26  C   UNL     1      -1.828  10.402  17.289  0.00  0.00    +0.000 A 
ATOM     27  C   UNL     1      -2.641  11.437  17.737  0.00  0.00    +0.000 A 
ATOM     28  C   UNL     1      -2.360  12.099  18.926  0.00  0.00    +0.000 A 
ATOM     29  C   UNL     1      -1.257  11.717  19.687  0.00  0.00    +0.000 A 
BRANCH  27  30
ATOM     30  O   UNL     1      -3.737  11.837  17.031  0.00  0.00    +0.000 OA
ATOM     31  H   UNL     1      -4.372  12.240  17.646  0.00  0.00    +0.000 HD
ENDBRANCH  27  30
ENDBRANCH  23  24
ENDBRANCH  21  23
ENDBRANCH  18  20
ENDBRANCH  17  18
ENDBRANCH   1  17
TORSDOF 8
ENDMDL
MODEL 8
REMARK VINA RESULT:      -7.1      1.951      5.914
REMARK  Name = 
REMARK  8 active torsions:
REMARK  status: ('A' for Active; 'I' for Inactive)
REMARK    1  A    between atoms: C_2  and  C_3
REMARK    2  A    between atoms: C_3  and  C_4
REMARK    3  A    between atoms: C_4  and  N_5
REMARK    4  A    between atoms: N_5  and  S_6
REMARK    5  A    between atoms: S_6  and  C_9
REMARK    6  A    between atoms: N_19  and  C_20
REMARK    7  A    between atoms: C_20  and  C_21
REMARK    8  A    between atoms: C_24  and  O_25
REMARK                            x       y       z     vdW  Elec       q    Type
REMARK                         _______ _______ _______ _____ _____    ______ ____
ROOT
ATOM      1  N   UNL     1       3.118   2.715  19.799  0.00  0.00    +0.000 NA
ATOM      2  H   UNL     1       3.857   2.399  20.447  0.00  0.00    +0.000 HD
ENDROOT
BRANCH   1   3
ATOM      3  S   UNL     1       3.489   2.176  18.243  0.00  0.00    +0.000 S 
ATOM      4  O   UNL     1       4.244   0.952  18.399  0.00  0.00    +0.000 OA
ATOM      5  O   UNL     1       2.292   2.229  17.434  0.00  0.00    +0.000 OA
BRANCH   3   6
ATOM      6  C   UNL     1       4.615   3.418  17.644  0.00  0.00    +0.000 A 
ATOM      7  C   UNL     1       4.541   3.826  16.290  0.00  0.00    +0.000 A 
ATOM      8  C   UNL     1       5.294   4.916  15.835  0.00  0.00    +0.000 A 
ATOM      9  C   UNL     1       6.084   5.549  16.765  0.00  0.00    +0.000 A 
ATOM     10  N   UNL     1       6.877   6.655  16.652  0.00  0.00    +0.000 N 
ATOM     11  C   UNL     1       7.422   6.910  17.890  0.00  0.00    +0.000 A 
ATOM     12  O   UNL     1       8.168   7.843  18.144  0.00  0.00    +0.000 OA
ATOM     13  O   UNL     1       7.008   5.959  18.832  0.00  0.00    +0.000 OA
ATOM     14  C   UNL     1       6.170   5.148  18.083  0.00  0.00    +0.000 A 
ATOM     15  C   UNL     1       5.444   4.079  18.561  0.00  0.00    +0.000 A 
ATOM     16  H   UNL     1       7.030   7.235  15.845  0.00  0.00    +0.000 HD
ENDBRANCH   3   6
ENDBRANCH   1   3
BRANCH   1  17
ATOM     17  C   UNL     1       1.752   2.450  20.290  0.00  0.00    +0.000 C 
BRANCH  17  18
ATOM     18  C   UNL     1       0.912   3.724  20.338  0.00  0.00    +0.000 C 
BRANCH  18  20
ATOM     19  O   UNL     1       1.337   4.918  18.291  0.00  0.00    +0.000 OA
ATOM     20  C   UNL     1       1.524   4.834  19.502  0.00  0.00    +0.000 C 
ATOM     21  N   UNL     1       2.231   5.763  20.225  0.00  0.00    +0.000 N 
ATOM     22  H   UNL     1       2.382   5.630  21.216  0.00  0.00    +0.000 HD
BRANCH  21  23
ATOM     23  C   UNL     1       2.858   6.907  19.600  0.00  0.00    +0.000 C 
BRANCH  23  24
ATOM     24  C   UNL     1       1.928   8.094  19.581  0.00  0.00    +0.000 A 
ATOM     25  C   UNL     1       1.773   8.852  18.410  0.00  0.00    +0.000 A 
ATOM     26  C   UNL     1       0.899   9.944  18.381  0.00  0.00    +0.000 A 
ATOM     27  C   UNL     1       0.192  10.284  19.529  0.00  0.00    +0.000 A 
ATOM     28  C   UNL     1       0.350   9.558  20.703  0.00  0.00    +0.000 A 
ATOM     29  C   UNL     1       1.217   8.467  20.731  0.00  0.00    +0.000 A 
BRANCH  27  30
ATOM     30  O   UNL     1      -0.676  11.336  19.545  0.00  0.00    +0.000 OA
ATOM     31  H   UNL     1      -0.423  11.957  18.843  0.00  0.00    +0.000 HD
ENDBRANCH  27  30
ENDBRANCH  23  24
ENDBRANCH  21  23
ENDBRANCH  18  20
ENDBRANCH  17  18
ENDBRANCH   1  17
TORSDOF 8
ENDMDL
MODEL 9
REMARK VINA RESULT:      -7.1      2.586      7.809
REMARK  Name = 
REMARK  8 active torsions:
REMARK  status: ('A' for Active; 'I' for Inactive)
REMARK    1  A    between atoms: C_2  and  C_3
REMARK    2  A    between atoms: C_3  and  C_4
REMARK    3  A    between atoms: C_4  and  N_5
REMARK    4  A    between atoms: N_5  and  S_6
REMARK    5  A    between atoms: S_6  and  C_9
REMARK    6  A    between atoms: N_19  and  C_20
REMARK    7  A    between atoms: C_20  and  C_21
REMARK    8  A    between atoms: C_24  and  O_25
REMARK                            x       y       z     vdW  Elec       q    Type
REMARK                         _______ _______ _______ _____ _____    ______ ____
ROOT
ATOM      1  N   UNL     1       2.202   5.281  21.297  0.00  0.00    +0.000 NA
ATOM      2  H   UNL     1       1.899   5.396  22.278  0.00  0.00    +0.000 HD
ENDROOT
BRANCH   1   3
ATOM      3  S   UNL     1       2.125   3.645  20.890  0.00  0.00    +0.000 S 
ATOM      4  O   UNL     1       2.757   2.920  21.971  0.00  0.00    +0.000 OA
ATOM      5  O   UNL     1       0.781   3.336  20.454  0.00  0.00    +0.000 OA
BRANCH   3   6
ATOM      6  C   UNL     1       3.203   3.531  19.477  0.00  0.00    +0.000 A 
ATOM      7  C   UNL     1       2.655   3.213  18.211  0.00  0.00    +0.000 A 
ATOM      8  C   UNL     1       3.446   3.283  17.058  0.00  0.00    +0.000 A 
ATOM      9  C   UNL     1       4.753   3.674  17.230  0.00  0.00    +0.000 A 
ATOM     10  N   UNL     1       5.743   3.891  16.316  0.00  0.00    +0.000 N 
ATOM     11  C   UNL     1       6.860   4.318  16.999  0.00  0.00    +0.000 A 
ATOM     12  O   UNL     1       7.923   4.619  16.479  0.00  0.00    +0.000 OA
ATOM     13  O   UNL     1       6.621   4.369  18.379  0.00  0.00    +0.000 OA
ATOM     14  C   UNL     1       5.295   3.972  18.463  0.00  0.00    +0.000 A 
ATOM     15  C   UNL     1       4.544   3.912  19.617  0.00  0.00    +0.000 A 
ATOM     16  H   UNL     1       5.699   3.809  15.315  0.00  0.00    +0.000 HD
ENDBRANCH   3   6
ENDBRANCH   1   3
BRANCH   1  17
ATOM     17  C   UNL     1       1.561   6.232  20.368  0.00  0.00    +0.000 C 
BRANCH  17  18
ATOM     18  C   UNL     1       1.514   7.643  20.947  0.00  0.00    +0.000 C 
BRANCH  18  20
ATOM     19  O   UNL     1       2.012   8.551  18.774  0.00  0.00    +0.000 OA
ATOM     20  C   UNL     1       1.452   8.699  19.857  0.00  0.00    +0.000 C 
ATOM     21  N   UNL     1       0.664   9.781  20.161  0.00  0.00    +0.000 N 
ATOM     22  H   UNL     1       0.251   9.869  21.079  0.00  0.00    +0.000 HD
BRANCH  21  23
ATOM     23  C   UNL     1       0.463  10.869  19.230  0.00  0.00    +0.000 C 
BRANCH  23  24
ATOM     24  C   UNL     1      -0.951  10.883  18.705  0.00  0.00    +0.000 A 
ATOM     25  C   UNL     1      -1.332  10.011  17.675  0.00  0.00    +0.000 A 
ATOM     26  C   UNL     1      -2.647  10.006  17.196  0.00  0.00    +0.000 A 
ATOM     27  C   UNL     1      -3.574  10.888  17.740  0.00  0.00    +0.000 A 
ATOM     28  C   UNL     1      -3.209  11.774  18.746  0.00  0.00    +0.000 A 
ATOM     29  C   UNL     1      -1.900  11.775  19.227  0.00  0.00    +0.000 A 
BRANCH  27  30
ATOM     30  O   UNL     1      -4.868  10.914  17.310  0.00  0.00    +0.000 OA
ATOM     31  H   UNL     1      -5.219  10.009  17.327  0.00  0.00    +0.000 HD
ENDBRANCH  27  30
ENDBRANCH  23  24
ENDBRANCH  21  23
ENDBRANCH  18  20
ENDBRANCH  17  18
ENDBRANCH   1  17
TORSDOF 8
ENDMDL
