MODEL 1
REMARK VINA RESULT:      -7.6      0.000      0.000
REMARK  Name = 
REMARK  12 active torsions:
REMARK  status: ('A' for Active; 'I' for Inactive)
REMARK    1  A    between atoms: C_1  and  C_2
REMARK    2  A    between atoms: C_2  and  C_3
REMARK    3  A    between atoms: C_8  and  C_9
REMARK    4  A    between atoms: C_9  and  C_10
REMARK    5  A    between atoms: C_9  and  N_20
REMARK    6  A    between atoms: C_13  and  O_14
REMARK    7  A    between atoms: O_14  and  C_15
REMARK    8  A    between atoms: C_16  and  O_17
REMARK    9  A    between atoms: O_17  and  C_18
REMARK   10  A    between atoms: C_22  and  C_23
REMARK   11  A    between atoms: C_23  and  C_24
REMARK   12  A    between atoms: C_24  and  N_25
REMARK                            x       y       z     vdW  Elec       q    Type
REMARK                         _______ _______ _______ _____ _____    ______ ____
ROOT
ATOM      1  C   UNL     1       0.141  10.795  20.138  0.00  0.00    +0.000 C 
ENDROOT
BRANCH   1   7
ATOM      2  C   UNL     1       4.120  15.564  19.432  0.00  0.00    +0.000 A 
ATOM      3  C   UNL     1       4.247  15.265  20.791  0.00  0.00    +0.000 A 
ATOM      4  C   UNL     1       3.484  14.250  21.377  0.00  0.00    +0.000 A 
ATOM      5  C   UNL     1       2.573  13.518  20.591  0.00  0.00    +0.000 A 
ATOM      6  N   UNL     1       1.733  12.519  21.047  0.00  0.00    +0.000 NA
ATOM      7  C   UNL     1       1.053  11.997  20.044  0.00  0.00    +0.000 A 
ATOM      8  S   UNL     1       1.338  12.733  18.512  0.00  0.00    +0.000 S 
ATOM      9  C   UNL     1       2.483  13.797  19.229  0.00  0.00    +0.000 A 
ATOM     10  C   UNL     1       3.250  14.809  18.628  0.00  0.00    +0.000 A 
BRANCH   2  12
ATOM     11  C   UNL     1       6.406  16.400  18.781  0.00  0.00    +0.000 C 
ATOM     12  C   UNL     1       4.916  16.692  18.822  0.00  0.00    +0.000 C 
ENDBRANCH   2  12
ENDBRANCH   1   7
BRANCH   1  13
ATOM     13  C   UNL     1      -0.962  10.752  19.070  0.00  0.00    +0.000 A 
ATOM     14  C   UNL     1      -0.859   9.992  17.900  0.00  0.00    +0.000 A 
ATOM     15  C   UNL     1      -1.890   9.989  16.965  0.00  0.00    +0.000 A 
ATOM     16  C   UNL     1      -3.056  10.735  17.167  0.00  0.00    +0.000 A 
ATOM     17  C   UNL     1      -3.196  11.484  18.346  0.00  0.00    +0.000 A 
ATOM     18  C   UNL     1      -2.156  11.467  19.291  0.00  0.00    +0.000 A 
BRANCH  16  19
ATOM     19  O   UNL     1      -3.927  10.599  16.118  0.00  0.00    +0.000 OA
ATOM     20  C   UNL     1      -3.412  10.327  14.826  0.00  0.00    +0.000 C 
ENDBRANCH  16  19
BRANCH  17  21
ATOM     21  O   UNL     1      -4.344  12.211  18.523  0.00  0.00    +0.000 OA
ATOM     22  C   UNL     1      -4.738  12.547  19.846  0.00  0.00    +0.000 C 
ENDBRANCH  17  21
ENDBRANCH   1  13
BRANCH   1  23
ATOM     23  N   UNL     1       0.923   9.557  20.141  0.00  0.00    +0.000 N 
ATOM     24  C   UNL     1       1.681   9.024  19.140  0.00  0.00    +0.000 A 
ATOM     25  C   UNL     1       1.994   7.758  19.579  0.00  0.00    +0.000 A 
ATOM     26  N   UNL     1       1.470   7.582  20.834  0.00  0.00    +0.000 NA
ATOM     27  N   UNL     1       0.815   8.687  21.170  0.00  0.00    +0.000 NA
BRANCH  25  28
ATOM     28  C   UNL     1       2.749   6.675  18.890  0.00  0.00    +0.000 C 
BRANCH  28  29
ATOM     29  C   UNL     1       2.615   5.332  19.629  0.00  0.00    +0.000 C 
BRANCH  29  30
ATOM     30  N   UNL     1       1.502   4.461  19.206  0.00  0.00    +0.000 NA
ATOM     31  C   UNL     1       1.526   3.124  19.836  0.00  0.00    +0.000 C 
ATOM     32  C   UNL     1       2.695   2.241  19.371  0.00  0.00    +0.000 C 
ATOM     33  O   UNL     1       2.693   2.083  17.945  0.00  0.00    +0.000 OA
ATOM     34  C   UNL     1       2.723   3.352  17.281  0.00  0.00    +0.000 C 
ATOM     35  C   UNL     1       1.558   4.256  17.735  0.00  0.00    +0.000 C 
ENDBRANCH  29  30
ENDBRANCH  28  29
ENDBRANCH  25  28
ENDBRANCH   1  23
TORSDOF 9
ENDMDL
MODEL 2
REMARK VINA RESULT:      -7.5      0.761      1.080
REMARK  Name = 
REMARK  12 active torsions:
REMARK  status: ('A' for Active; 'I' for Inactive)
REMARK    1  A    between atoms: C_1  and  C_2
REMARK    2  A    between atoms: C_2  and  C_3
REMARK    3  A    between atoms: C_8  and  C_9
REMARK    4  A    between atoms: C_9  and  C_10
REMARK    5  A    between atoms: C_9  and  N_20
REMARK    6  A    between atoms: C_13  and  O_14
REMARK    7  A    between atoms: O_14  and  C_15
REMARK    8  A    between atoms: C_16  and  O_17
REMARK    9  A    between atoms: O_17  and  C_18
REMARK   10  A    between atoms: C_22  and  C_23
REMARK   11  A    between atoms: C_23  and  C_24
REMARK   12  A    between atoms: C_24  and  N_25
REMARK                            x       y       z     vdW  Elec       q    Type
REMARK                         _______ _______ _______ _____ _____    ______ ____
ROOT
ATOM      1  C   UNL     1       0.345  10.673  19.928  0.00  0.00    +0.000 C 
ENDROOT
BRANCH   1   7
ATOM      2  C   UNL     1       4.157  15.614  19.578  0.00  0.00    +0.000 A 
ATOM      3  C   UNL     1       4.091  15.382  20.955  0.00  0.00    +0.000 A 
ATOM      4  C   UNL     1       3.297  14.354  21.471  0.00  0.00    +0.000 A 
ATOM      5  C   UNL     1       2.551  13.541  20.598  0.00  0.00    +0.000 A 
ATOM      6  N   UNL     1       1.700  12.518  20.975  0.00  0.00    +0.000 NA
ATOM      7  C   UNL     1       1.204  11.917  19.910  0.00  0.00    +0.000 A 
ATOM      8  S   UNL     1       1.681  12.600  18.401  0.00  0.00    +0.000 S 
ATOM      9  C   UNL     1       2.654  13.755  19.225  0.00  0.00    +0.000 A 
ATOM     10  C   UNL     1       3.454  14.780  18.693  0.00  0.00    +0.000 A 
BRANCH   2  12
ATOM     11  C   UNL     1       5.576  17.620  20.136  0.00  0.00    +0.000 C 
ATOM     12  C   UNL     1       4.981  16.757  19.036  0.00  0.00    +0.000 C 
ENDBRANCH   2  12
ENDBRANCH   1   7
BRANCH   1  13
ATOM     13  C   UNL     1      -0.826  10.696  18.935  0.00  0.00    +0.000 A 
ATOM     14  C   UNL     1      -0.843   9.934  17.762  0.00  0.00    +0.000 A 
ATOM     15  C   UNL     1      -1.932   9.992  16.896  0.00  0.00    +0.000 A 
ATOM     16  C   UNL     1      -3.036  10.804  17.172  0.00  0.00    +0.000 A 
ATOM     17  C   UNL     1      -3.056  11.558  18.356  0.00  0.00    +0.000 A 
ATOM     18  C   UNL     1      -1.958  11.478  19.232  0.00  0.00    +0.000 A 
BRANCH  16  19
ATOM     19  O   UNL     1      -3.980  10.721  16.182  0.00  0.00    +0.000 OA
ATOM     20  C   UNL     1      -3.582  10.315  14.884  0.00  0.00    +0.000 C 
ENDBRANCH  16  19
BRANCH  17  21
ATOM     21  O   UNL     1      -4.145  12.350  18.606  0.00  0.00    +0.000 OA
ATOM     22  C   UNL     1      -5.257  11.783  19.284  0.00  0.00    +0.000 C 
ENDBRANCH  17  21
ENDBRANCH   1  13
BRANCH   1  23
ATOM     23  N   UNL     1       1.172   9.478  19.746  0.00  0.00    +0.000 N 
ATOM     24  C   UNL     1       1.828   9.058  18.626  0.00  0.00    +0.000 A 
ATOM     25  C   UNL     1       2.241   7.779  18.926  0.00  0.00    +0.000 A 
ATOM     26  N   UNL     1       1.873   7.486  20.213  0.00  0.00    +0.000 NA
ATOM     27  N   UNL     1       1.218   8.530  20.708  0.00  0.00    +0.000 NA
BRANCH  25  28
ATOM     28  C   UNL     1       2.954   6.789  18.072  0.00  0.00    +0.000 C 
BRANCH  28  29
ATOM     29  C   UNL     1       2.370   5.375  18.237  0.00  0.00    +0.000 C 
BRANCH  29  30
ATOM     30  N   UNL     1       3.193   4.412  18.993  0.00  0.00    +0.000 NA
ATOM     31  C   UNL     1       3.566   3.213  18.214  0.00  0.00    +0.000 C 
ATOM     32  C   UNL     1       2.379   2.292  17.888  0.00  0.00    +0.000 C 
ATOM     33  O   UNL     1       1.700   1.877  19.082  0.00  0.00    +0.000 OA
ATOM     34  C   UNL     1       1.268   3.004  19.853  0.00  0.00    +0.000 C 
ATOM     35  C   UNL     1       2.444   3.943  20.189  0.00  0.00    +0.000 C 
ENDBRANCH  29  30
ENDBRANCH  28  29
ENDBRANCH  25  28
ENDBRANCH   1  23
TORSDOF 9
ENDMDL
MODEL 3
REMARK VINA RESULT:      -7.5      1.134      1.994
REMARK  Name = 
REMARK  12 active torsions:
REMARK  status: ('A' for Active; 'I' for Inactive)
REMARK    1  A    between atoms: C_1  and  C_2
REMARK    2  A    between atoms: C_2  and  C_3
REMARK    3  A    between atoms: C_8  and  C_9
REMARK    4  A    between atoms: C_9  and  C_10
REMARK    5  A    between atoms: C_9  and  N_20
REMARK    6  A    between atoms: C_13  and  O_14
REMARK    7  A    between atoms: O_14  and  C_15
REMARK    8  A    between atoms: C_16  and  O_17
REMARK    9  A    between atoms: O_17  and  C_18
REMARK   10  A    between atoms: C_22  and  C_23
REMARK   11  A    between atoms: C_23  and  C_24
REMARK   12  A    between atoms: C_24  and  N_25
REMARK                            x       y       z     vdW  Elec       q    Type
REMARK                         _______ _______ _______ _____ _____    ______ ____
ROOT
ATOM      1  C   UNL     1       0.408  10.736  19.711  0.00  0.00    +0.000 C 
ENDROOT
BRANCH   1   7
ATOM      2  C   UNL     1       4.125  15.762  19.780  0.00  0.00    +0.000 A 
ATOM      3  C   UNL     1       4.252  15.276  21.085  0.00  0.00    +0.000 A 
ATOM      4  C   UNL     1       3.539  14.147  21.502  0.00  0.00    +0.000 A 
ATOM      5  C   UNL     1       2.680  13.490  20.601  0.00  0.00    +0.000 A 
ATOM      6  N   UNL     1       1.892  12.392  20.891  0.00  0.00    +0.000 NA
ATOM      7  C   UNL     1       1.254  11.986  19.810  0.00  0.00    +0.000 A 
ATOM      8  S   UNL     1       1.516  12.951  18.406  0.00  0.00    +0.000 S 
ATOM      9  C   UNL     1       2.591  13.959  19.292  0.00  0.00    +0.000 A 
ATOM     10  C   UNL     1       3.308  15.086  18.858  0.00  0.00    +0.000 A 
BRANCH   2  12
ATOM     11  C   UNL     1       6.223  16.702  18.748  0.00  0.00    +0.000 C 
ATOM     12  C   UNL     1       4.864  17.007  19.356  0.00  0.00    +0.000 C 
ENDBRANCH   2  12
ENDBRANCH   1   7
BRANCH   1  13
ATOM     13  C   UNL     1      -0.986  10.960  19.107  0.00  0.00    +0.000 A 
ATOM     14  C   UNL     1      -1.902  11.880  19.628  0.00  0.00    +0.000 A 
ATOM     15  C   UNL     1      -3.153  12.043  19.042  0.00  0.00    +0.000 A 
ATOM     16  C   UNL     1      -3.530  11.303  17.916  0.00  0.00    +0.000 A 
ATOM     17  C   UNL     1      -2.619  10.393  17.357  0.00  0.00    +0.000 A 
ATOM     18  C   UNL     1      -1.351  10.248  17.948  0.00  0.00    +0.000 A 
BRANCH  16  19
ATOM     19  O   UNL     1      -4.804  11.610  17.516  0.00  0.00    +0.000 OA
ATOM     20  C   UNL     1      -5.898  10.970  18.150  0.00  0.00    +0.000 C 
ENDBRANCH  16  19
BRANCH  17  21
ATOM     21  O   UNL     1      -3.008   9.674  16.258  0.00  0.00    +0.000 OA
ATOM     22  C   UNL     1      -2.858  10.262  14.974  0.00  0.00    +0.000 C 
ENDBRANCH  17  21
ENDBRANCH   1  13
BRANCH   1  23
ATOM     23  N   UNL     1       1.133   9.683  18.995  0.00  0.00    +0.000 N 
ATOM     24  C   UNL     1       1.541   8.466  19.455  0.00  0.00    +0.000 A 
ATOM     25  C   UNL     1       2.371   7.984  18.469  0.00  0.00    +0.000 A 
ATOM     26  N   UNL     1       2.401   8.885  17.436  0.00  0.00    +0.000 NA
ATOM     27  N   UNL     1       1.641   9.923  17.767  0.00  0.00    +0.000 NA
BRANCH  25  28
ATOM     28  C   UNL     1       3.166   6.725  18.430  0.00  0.00    +0.000 C 
BRANCH  28  29
ATOM     29  C   UNL     1       2.297   5.519  18.032  0.00  0.00    +0.000 C 
BRANCH  29  30
ATOM     30  N   UNL     1       1.941   4.583  19.115  0.00  0.00    +0.000 NA
ATOM     31  C   UNL     1       3.091   4.181  19.951  0.00  0.00    +0.000 C 
ATOM     32  C   UNL     1       4.113   3.299  19.216  0.00  0.00    +0.000 C 
ATOM     33  O   UNL     1       3.494   2.121  18.681  0.00  0.00    +0.000 OA
ATOM     34  C   UNL     1       2.401   2.455  17.817  0.00  0.00    +0.000 C 
ATOM     35  C   UNL     1       1.363   3.342  18.535  0.00  0.00    +0.000 C 
ENDBRANCH  29  30
ENDBRANCH  28  29
ENDBRANCH  25  28
ENDBRANCH   1  23
TORSDOF 9
ENDMDL
MODEL 4
REMARK VINA RESULT:      -7.5      1.532      2.512
REMARK  Name = 
REMARK  12 active torsions:
REMARK  status: ('A' for Active; 'I' for Inactive)
REMARK    1  A    between atoms: C_1  and  C_2
REMARK    2  A    between atoms: C_2  and  C_3
REMARK    3  A    between atoms: C_8  and  C_9
REMARK    4  A    between atoms: C_9  and  C_10
REMARK    5  A    between atoms: C_9  and  N_20
REMARK    6  A    between atoms: C_13  and  O_14
REMARK    7  A    between atoms: O_14  and  C_15
REMARK    8  A    between atoms: C_16  and  O_17
REMARK    9  A    between atoms: O_17  and  C_18
REMARK   10  A    between atoms: C_22  and  C_23
REMARK   11  A    between atoms: C_23  and  C_24
REMARK   12  A    between atoms: C_24  and  N_25
REMARK                            x       y       z     vdW  Elec       q    Type
REMARK                         _______ _______ _______ _____ _____    ______ ____
ROOT
ATOM      1  C   UNL     1       0.526  10.689  19.470  0.00  0.00    +0.000 C 
ENDROOT
BRANCH   1   7
ATOM      2  C   UNL     1       3.726  16.057  19.601  0.00  0.00    +0.000 A 
ATOM      3  C   UNL     1       3.692  15.761  18.235  0.00  0.00    +0.000 A 
ATOM      4  C   UNL     1       3.076  14.595  17.770  0.00  0.00    +0.000 A 
ATOM      5  C   UNL     1       2.485  13.703  18.685  0.00  0.00    +0.000 A 
ATOM      6  N   UNL     1       1.880  12.501  18.367  0.00  0.00    +0.000 NA
ATOM      7  C   UNL     1       1.376  11.940  19.449  0.00  0.00    +0.000 A 
ATOM      8  S   UNL     1       1.669  12.796  20.915  0.00  0.00    +0.000 S 
ATOM      9  C   UNL     1       2.491  14.027  20.040  0.00  0.00    +0.000 A 
ATOM     10  C   UNL     1       3.099  15.199  20.519  0.00  0.00    +0.000 A 
BRANCH   2  12
ATOM     11  C   UNL     1       5.596  16.974  21.019  0.00  0.00    +0.000 C 
ATOM     12  C   UNL     1       4.434  17.296  20.094  0.00  0.00    +0.000 C 
ENDBRANCH   2  12
ENDBRANCH   1   7
BRANCH   1  13
ATOM     13  C   UNL     1      -0.874  10.864  18.865  0.00  0.00    +0.000 A 
ATOM     14  C   UNL     1      -1.822  11.753  19.383  0.00  0.00    +0.000 A 
ATOM     15  C   UNL     1      -3.078  11.871  18.795  0.00  0.00    +0.000 A 
ATOM     16  C   UNL     1      -3.428  11.116  17.671  0.00  0.00    +0.000 A 
ATOM     17  C   UNL     1      -2.486  10.236  17.115  0.00  0.00    +0.000 A 
ATOM     18  C   UNL     1      -1.214  10.136  17.708  0.00  0.00    +0.000 A 
BRANCH  16  19
ATOM     19  O   UNL     1      -4.711  11.378  17.270  0.00  0.00    +0.000 OA
ATOM     20  C   UNL     1      -5.784  11.051  18.136  0.00  0.00    +0.000 C 
ENDBRANCH  16  19
BRANCH  17  21
ATOM     21  O   UNL     1      -2.849   9.501  16.018  0.00  0.00    +0.000 OA
ATOM     22  C   UNL     1      -2.896  10.146  14.753  0.00  0.00    +0.000 C 
ENDBRANCH  17  21
ENDBRANCH   1  13
BRANCH   1  23
ATOM     23  N   UNL     1       1.239   9.575  18.842  0.00  0.00    +0.000 N 
ATOM     24  C   UNL     1       1.596   8.376  19.386  0.00  0.00    +0.000 A 
ATOM     25  C   UNL     1       2.441   7.812  18.458  0.00  0.00    +0.000 A 
ATOM     26  N   UNL     1       2.530   8.648  17.375  0.00  0.00    +0.000 NA
ATOM     27  N   UNL     1       1.793   9.725  17.619  0.00  0.00    +0.000 NA
BRANCH  25  28
ATOM     28  C   UNL     1       3.198   6.531  18.520  0.00  0.00    +0.000 C 
BRANCH  28  29
ATOM     29  C   UNL     1       2.301   5.327  18.184  0.00  0.00    +0.000 C 
BRANCH  29  30
ATOM     30  N   UNL     1       2.871   3.992  18.450  0.00  0.00    +0.000 NA
ATOM     31  C   UNL     1       1.938   2.883  18.160  0.00  0.00    +0.000 C 
ATOM     32  C   UNL     1       0.740   2.814  19.121  0.00  0.00    +0.000 C 
ATOM     33  O   UNL     1       1.172   2.713  20.484  0.00  0.00    +0.000 OA
ATOM     34  C   UNL     1       2.040   3.797  20.837  0.00  0.00    +0.000 C 
ATOM     35  C   UNL     1       3.249   3.885  19.884  0.00  0.00    +0.000 C 
ENDBRANCH  29  30
ENDBRANCH  28  29
ENDBRANCH  25  28
ENDBRANCH   1  23
TORSDOF 9
ENDMDL
MODEL 5
REMARK VINA RESULT:      -7.5      1.120      1.264
REMARK  Name = 
REMARK  12 active torsions:
REMARK  status: ('A' for Active; 'I' for Inactive)
REMARK    1  A    between atoms: C_1  and  C_2
REMARK    2  A    between atoms: C_2  and  C_3
REMARK    3  A    between atoms: C_8  and  C_9
REMARK    4  A    between atoms: C_9  and  C_10
REMARK    5  A    between atoms: C_9  and  N_20
REMARK    6  A    between atoms: C_13  and  O_14
REMARK    7  A    between atoms: O_14  and  C_15
REMARK    8  A    between atoms: C_16  and  O_17
REMARK    9  A    between atoms: O_17  and  C_18
REMARK   10  A    between atoms: C_22  and  C_23
REMARK   11  A    between atoms: C_23  and  C_24
REMARK   12  A    between atoms: C_24  and  N_25
REMARK                            x       y       z     vdW  Elec       q    Type
REMARK                         _______ _______ _______ _____ _____    ______ ____
ROOT
ATOM      1  C   UNL     1       0.259  10.727  19.944  0.00  0.00    +0.000 C 
ENDROOT
BRANCH   1   7
ATOM      2  C   UNL     1       3.946  15.764  19.616  0.00  0.00    +0.000 A 
ATOM      3  C   UNL     1       4.066  15.390  20.957  0.00  0.00    +0.000 A 
ATOM      4  C   UNL     1       3.357  14.296  21.463  0.00  0.00    +0.000 A 
ATOM      5  C   UNL     1       2.508  13.560  20.615  0.00  0.00    +0.000 A 
ATOM      6  N   UNL     1       1.724  12.485  20.991  0.00  0.00    +0.000 NA
ATOM      7  C   UNL     1       1.097  11.986  19.943  0.00  0.00    +0.000 A 
ATOM      8  S   UNL     1       1.362  12.831  18.466  0.00  0.00    +0.000 S 
ATOM      9  C   UNL     1       2.425  13.917  19.271  0.00  0.00    +0.000 A 
ATOM     10  C   UNL     1       3.139  15.009  18.749  0.00  0.00    +0.000 A 
BRANCH   2  12
ATOM     11  C   UNL     1       5.874  17.350  19.955  0.00  0.00    +0.000 C 
ATOM     12  C   UNL     1       4.680  16.975  19.093  0.00  0.00    +0.000 C 
ENDBRANCH   2  12
ENDBRANCH   1   7
BRANCH   1  13
ATOM     13  C   UNL     1      -0.911  10.743  18.951  0.00  0.00    +0.000 A 
ATOM     14  C   UNL     1      -0.920   9.988  17.773  0.00  0.00    +0.000 A 
ATOM     15  C   UNL     1      -2.009  10.041  16.906  0.00  0.00    +0.000 A 
ATOM     16  C   UNL     1      -3.122  10.839  17.187  0.00  0.00    +0.000 A 
ATOM     17  C   UNL     1      -3.150  11.585  18.375  0.00  0.00    +0.000 A 
ATOM     18  C   UNL     1      -2.053  11.512  19.251  0.00  0.00    +0.000 A 
BRANCH  16  19
ATOM     19  O   UNL     1      -4.064  10.752  16.195  0.00  0.00    +0.000 OA
ATOM     20  C   UNL     1      -3.669  10.318  14.906  0.00  0.00    +0.000 C 
ENDBRANCH  16  19
BRANCH  17  21
ATOM     21  O   UNL     1      -4.248  12.365  18.629  0.00  0.00    +0.000 OA
ATOM     22  C   UNL     1      -5.370  11.771  19.266  0.00  0.00    +0.000 C 
ENDBRANCH  17  21
ENDBRANCH   1  13
BRANCH   1  23
ATOM     23  N   UNL     1       1.106   9.548  19.746  0.00  0.00    +0.000 N 
ATOM     24  C   UNL     1       1.804   9.177  18.634  0.00  0.00    +0.000 A 
ATOM     25  C   UNL     1       2.222   7.894  18.901  0.00  0.00    +0.000 A 
ATOM     26  N   UNL     1       1.816   7.548  20.164  0.00  0.00    +0.000 NA
ATOM     27  N   UNL     1       1.132   8.566  20.674  0.00  0.00    +0.000 NA
BRANCH  25  28
ATOM     28  C   UNL     1       2.975   6.943  18.036  0.00  0.00    +0.000 C 
BRANCH  28  29
ATOM     29  C   UNL     1       2.616   5.481  18.354  0.00  0.00    +0.000 C 
BRANCH  29  30
ATOM     30  N   UNL     1       3.378   4.447  17.628  0.00  0.00    +0.000 NA
ATOM     31  C   UNL     1       3.200   3.087  18.178  0.00  0.00    +0.000 C 
ATOM     32  C   UNL     1       3.826   2.895  19.569  0.00  0.00    +0.000 C 
ATOM     33  O   UNL     1       5.224   3.213  19.560  0.00  0.00    +0.000 OA
ATOM     34  C   UNL     1       5.451   4.545  19.084  0.00  0.00    +0.000 C 
ATOM     35  C   UNL     1       4.830   4.760  17.688  0.00  0.00    +0.000 C 
ENDBRANCH  29  30
ENDBRANCH  28  29
ENDBRANCH  25  28
ENDBRANCH   1  23
TORSDOF 9
ENDMDL
MODEL 6
REMARK VINA RESULT:      -7.4      2.299      3.129
REMARK  Name = 
REMARK  12 active torsions:
REMARK  status: ('A' for Active; 'I' for Inactive)
REMARK    1  A    between atoms: C_1  and  C_2
REMARK    2  A    between atoms: C_2  and  C_3
REMARK    3  A    between atoms: C_8  and  C_9
REMARK    4  A    between atoms: C_9  and  C_10
REMARK    5  A    between atoms: C_9  and  N_20
REMARK    6  A    between atoms: C_13  and  O_14
REMARK    7  A    between atoms: O_14  and  C_15
REMARK    8  A    between atoms: C_16  and  O_17
REMARK    9  A    between atoms: O_17  and  C_18
REMARK   10  A    between atoms: C_22  and  C_23
REMARK   11  A    between atoms: C_23  and  C_24
REMARK   12  A    between atoms: C_24  and  N_25
REMARK                            x       y       z     vdW  Elec       q    Type
REMARK                         _______ _______ _______ _____ _____    ______ ____
ROOT
ATOM      1  C   UNL     1       0.576  10.707  19.498  0.00  0.00    +0.000 C 
ENDROOT
BRANCH   1   7
ATOM      2  C   UNL     1       3.812  16.054  19.506  0.00  0.00    +0.000 A 
ATOM      3  C   UNL     1       3.758  15.738  18.146  0.00  0.00    +0.000 A 
ATOM      4  C   UNL     1       3.129  14.569  17.706  0.00  0.00    +0.000 A 
ATOM      5  C   UNL     1       2.544  13.695  18.642  0.00  0.00    +0.000 A 
ATOM      6  N   UNL     1       1.927  12.493  18.350  0.00  0.00    +0.000 NA
ATOM      7  C   UNL     1       1.433  11.951  19.447  0.00  0.00    +0.000 A 
ATOM      8  S   UNL     1       1.751  12.827  20.896  0.00  0.00    +0.000 S 
ATOM      9  C   UNL     1       2.570  14.039  19.992  0.00  0.00    +0.000 A 
ATOM     10  C   UNL     1       3.191  15.214  20.446  0.00  0.00    +0.000 A 
BRANCH   2  12
ATOM     11  C   UNL     1       5.844  16.980  20.675  0.00  0.00    +0.000 C 
ATOM     12  C   UNL     1       4.534  17.295  19.972  0.00  0.00    +0.000 C 
ENDBRANCH   2  12
ENDBRANCH   1   7
BRANCH   1  13
ATOM     13  C   UNL     1      -0.828  10.879  18.901  0.00  0.00    +0.000 A 
ATOM     14  C   UNL     1      -1.772  11.771  19.421  0.00  0.00    +0.000 A 
ATOM     15  C   UNL     1      -3.032  11.887  18.840  0.00  0.00    +0.000 A 
ATOM     16  C   UNL     1      -3.389  11.127  17.722  0.00  0.00    +0.000 A 
ATOM     17  C   UNL     1      -2.451  10.245  17.163  0.00  0.00    +0.000 A 
ATOM     18  C   UNL     1      -1.176  10.147  17.748  0.00  0.00    +0.000 A 
BRANCH  16  19
ATOM     19  O   UNL     1      -4.675  11.388  17.327  0.00  0.00    +0.000 OA
ATOM     20  C   UNL     1      -5.748  10.934  18.133  0.00  0.00    +0.000 C 
ENDBRANCH  16  19
BRANCH  17  21
ATOM     21  O   UNL     1      -2.821   9.506  16.071  0.00  0.00    +0.000 OA
ATOM     22  C   UNL     1      -2.914  10.155  14.811  0.00  0.00    +0.000 C 
ENDBRANCH  17  21
ENDBRANCH   1  13
BRANCH   1  23
ATOM     23  N   UNL     1       1.277   9.576  18.886  0.00  0.00    +0.000 N 
ATOM     24  C   UNL     1       1.583   8.365  19.433  0.00  0.00    +0.000 A 
ATOM     25  C   UNL     1       2.440   7.783  18.527  0.00  0.00    +0.000 A 
ATOM     26  N   UNL     1       2.586   8.621  17.453  0.00  0.00    +0.000 NA
ATOM     27  N   UNL     1       1.872   9.718  17.681  0.00  0.00    +0.000 NA
BRANCH  25  28
ATOM     28  C   UNL     1       3.158   6.480  18.604  0.00  0.00    +0.000 C 
BRANCH  28  29
ATOM     29  C   UNL     1       4.133   6.301  17.428  0.00  0.00    +0.000 C 
BRANCH  29  30
ATOM     30  N   UNL     1       4.932   5.060  17.423  0.00  0.00    +0.000 NA
ATOM     31  C   UNL     1       6.296   5.234  17.963  0.00  0.00    +0.000 C 
ATOM     32  C   UNL     1       7.209   6.095  17.074  0.00  0.00    +0.000 C 
ATOM     33  O   UNL     1       7.299   5.558  15.747  0.00  0.00    +0.000 OA
ATOM     34  C   UNL     1       6.002   5.417  15.154  0.00  0.00    +0.000 C 
ATOM     35  C   UNL     1       5.069   4.558  16.031  0.00  0.00    +0.000 C 
ENDBRANCH  29  30
ENDBRANCH  28  29
ENDBRANCH  25  28
ENDBRANCH   1  23
TORSDOF 9
ENDMDL
MODEL 7
REMARK VINA RESULT:      -7.4      3.259      8.535
REMARK  Name = 
REMARK  12 active torsions:
REMARK  status: ('A' for Active; 'I' for Inactive)
REMARK    1  A    between atoms: C_1  and  C_2
REMARK    2  A    between atoms: C_2  and  C_3
REMARK    3  A    between atoms: C_8  and  C_9
REMARK    4  A    between atoms: C_9  and  C_10
REMARK    5  A    between atoms: C_9  and  N_20
REMARK    6  A    between atoms: C_13  and  O_14
REMARK    7  A    between atoms: O_14  and  C_15
REMARK    8  A    between atoms: C_16  and  O_17
REMARK    9  A    between atoms: O_17  and  C_18
REMARK   10  A    between atoms: C_22  and  C_23
REMARK   11  A    between atoms: C_23  and  C_24
REMARK   12  A    between atoms: C_24  and  N_25
REMARK                            x       y       z     vdW  Elec       q    Type
REMARK                         _______ _______ _______ _____ _____    ______ ____
ROOT
ATOM      1  C   UNL     1       0.459  10.717  19.451  0.00  0.00    +0.000 C 
ENDROOT
BRANCH   1   7
ATOM      2  C   UNL     1       3.757   5.430  18.953  0.00  0.00    +0.000 A 
ATOM      3  C   UNL     1       4.082   6.100  17.770  0.00  0.00    +0.000 A 
ATOM      4  C   UNL     1       3.516   7.343  17.471  0.00  0.00    +0.000 A 
ATOM      5  C   UNL     1       2.605   7.931  18.369  0.00  0.00    +0.000 A 
ATOM      6  N   UNL     1       1.946   9.132  18.181  0.00  0.00    +0.000 NA
ATOM      7  C   UNL     1       1.212   9.423  19.238  0.00  0.00    +0.000 A 
ATOM      8  S   UNL     1       1.222   8.229  20.481  0.00  0.00    +0.000 S 
ATOM      9  C   UNL     1       2.318   7.273  19.563  0.00  0.00    +0.000 A 
ATOM     10  C   UNL     1       2.886   6.028  19.879  0.00  0.00    +0.000 A 
BRANCH   2  12
ATOM     11  C   UNL     1       3.917   3.025  18.220  0.00  0.00    +0.000 C 
ATOM     12  C   UNL     1       4.339   4.068  19.242  0.00  0.00    +0.000 C 
ENDBRANCH   2  12
ENDBRANCH   1   7
BRANCH   1  13
ATOM     13  C   UNL     1       1.333  11.978  19.378  0.00  0.00    +0.000 A 
ATOM     14  C   UNL     1       1.695  12.584  18.170  0.00  0.00    +0.000 A 
ATOM     15  C   UNL     1       2.490  13.726  18.162  0.00  0.00    +0.000 A 
ATOM     16  C   UNL     1       2.944  14.304  19.352  0.00  0.00    +0.000 A 
ATOM     17  C   UNL     1       2.572  13.731  20.578  0.00  0.00    +0.000 A 
ATOM     18  C   UNL     1       1.755  12.587  20.576  0.00  0.00    +0.000 A 
BRANCH  16  19
ATOM     19  O   UNL     1       3.721  15.407  19.111  0.00  0.00    +0.000 OA
ATOM     20  C   UNL     1       3.148  16.521  18.449  0.00  0.00    +0.000 C 
ENDBRANCH  16  19
BRANCH  17  21
ATOM     21  O   UNL     1       3.031  14.309  21.733  0.00  0.00    +0.000 OA
ATOM     22  C   UNL     1       4.393  14.125  22.090  0.00  0.00    +0.000 C 
ENDBRANCH  17  21
ENDBRANCH   1  13
BRANCH   1  23
ATOM     23  N   UNL     1      -0.677  10.806  18.531  0.00  0.00    +0.000 N 
ATOM     24  C   UNL     1      -1.743  11.655  18.572  0.00  0.00    +0.000 A 
ATOM     25  C   UNL     1      -2.617  11.160  17.632  0.00  0.00    +0.000 A 
ATOM     26  N   UNL     1      -2.044  10.074  17.023  0.00  0.00    +0.000 NA
ATOM     27  N   UNL     1      -0.856   9.863  17.580  0.00  0.00    +0.000 NA
BRANCH  25  28
ATOM     28  C   UNL     1      -3.983  11.629  17.267  0.00  0.00    +0.000 C 
BRANCH  28  29
ATOM     29  C   UNL     1      -5.014  11.265  18.349  0.00  0.00    +0.000 C 
BRANCH  29  30
ATOM     30  N   UNL     1      -5.967  12.326  18.727  0.00  0.00    +0.000 NA
ATOM     31  C   UNL     1      -5.501  13.169  19.847  0.00  0.00    +0.000 C 
ATOM     32  C   UNL     1      -5.438  12.429  21.194  0.00  0.00    +0.000 C 
ATOM     33  O   UNL     1      -6.711  11.864  21.537  0.00  0.00    +0.000 OA
ATOM     34  C   UNL     1      -7.189  10.994  20.504  0.00  0.00    +0.000 C 
ATOM     35  C   UNL     1      -7.258  11.716  19.143  0.00  0.00    +0.000 C 
ENDBRANCH  29  30
ENDBRANCH  28  29
ENDBRANCH  25  28
ENDBRANCH   1  23
TORSDOF 9
ENDMDL
MODEL 8
REMARK VINA RESULT:      -7.3      0.898      1.167
REMARK  Name = 
REMARK  12 active torsions:
REMARK  status: ('A' for Active; 'I' for Inactive)
REMARK    1  A    between atoms: C_1  and  C_2
REMARK    2  A    between atoms: C_2  and  C_3
REMARK    3  A    between atoms: C_8  and  C_9
REMARK    4  A    between atoms: C_9  and  C_10
REMARK    5  A    between atoms: C_9  and  N_20
REMARK    6  A    between atoms: C_13  and  O_14
REMARK    7  A    between atoms: O_14  and  C_15
REMARK    8  A    between atoms: C_16  and  O_17
REMARK    9  A    between atoms: O_17  and  C_18
REMARK   10  A    between atoms: C_22  and  C_23
REMARK   11  A    between atoms: C_23  and  C_24
REMARK   12  A    between atoms: C_24  and  N_25
REMARK                            x       y       z     vdW  Elec       q    Type
REMARK                         _______ _______ _______ _____ _____    ______ ____
ROOT
ATOM      1  C   UNL     1       0.064  10.804  20.027  0.00  0.00    +0.000 C 
ENDROOT
BRANCH   1   7
ATOM      2  C   UNL     1       3.536  15.987  19.623  0.00  0.00    +0.000 A 
ATOM      3  C   UNL     1       3.830  15.333  18.423  0.00  0.00    +0.000 A 
ATOM      4  C   UNL     1       3.265  14.089  18.127  0.00  0.00    +0.000 A 
ATOM      5  C   UNL     1       2.391  13.481  19.048  0.00  0.00    +0.000 A 
ATOM      6  N   UNL     1       1.795  12.242  18.899  0.00  0.00    +0.000 NA
ATOM      7  C   UNL     1       0.987  11.997  19.913  0.00  0.00    +0.000 A 
ATOM      8  S   UNL     1       0.959  13.215  21.132  0.00  0.00    +0.000 S 
ATOM      9  C   UNL     1       2.073  14.159  20.223  0.00  0.00    +0.000 A 
ATOM     10  C   UNL     1       2.627  15.413  20.528  0.00  0.00    +0.000 A 
BRANCH   2  12
ATOM     11  C   UNL     1       5.679  17.311  19.659  0.00  0.00    +0.000 C 
ATOM     12  C   UNL     1       4.188  17.308  19.952  0.00  0.00    +0.000 C 
ENDBRANCH   2  12
ENDBRANCH   1   7
BRANCH   1  13
ATOM     13  C   UNL     1      -1.013  10.729  18.935  0.00  0.00    +0.000 A 
ATOM     14  C   UNL     1      -0.870   9.956  17.778  0.00  0.00    +0.000 A 
ATOM     15  C   UNL     1      -1.878   9.924  16.819  0.00  0.00    +0.000 A 
ATOM     16  C   UNL     1      -3.061  10.652  16.984  0.00  0.00    +0.000 A 
ATOM     17  C   UNL     1      -3.241  11.414  18.149  0.00  0.00    +0.000 A 
ATOM     18  C   UNL     1      -2.222  11.427  19.118  0.00  0.00    +0.000 A 
BRANCH  16  19
ATOM     19  O   UNL     1      -3.904  10.488  15.916  0.00  0.00    +0.000 OA
ATOM     20  C   UNL     1      -3.355  10.187  14.645  0.00  0.00    +0.000 C 
ENDBRANCH  16  19
BRANCH  17  21
ATOM     21  O   UNL     1      -4.404  12.125  18.289  0.00  0.00    +0.000 OA
ATOM     22  C   UNL     1      -4.951  12.281  19.590  0.00  0.00    +0.000 C 
ENDBRANCH  17  21
ENDBRANCH   1  13
BRANCH   1  23
ATOM     23  N   UNL     1       0.839   9.563  20.094  0.00  0.00    +0.000 N 
ATOM     24  C   UNL     1       1.643   9.007  19.144  0.00  0.00    +0.000 A 
ATOM     25  C   UNL     1       1.926   7.749  19.623  0.00  0.00    +0.000 A 
ATOM     26  N   UNL     1       1.337   7.599  20.851  0.00  0.00    +0.000 NA
ATOM     27  N   UNL     1       0.672   8.714  21.133  0.00  0.00    +0.000 NA
BRANCH  25  28
ATOM     28  C   UNL     1       2.710   6.649  18.994  0.00  0.00    +0.000 C 
BRANCH  28  29
ATOM     29  C   UNL     1       2.235   5.268  19.476  0.00  0.00    +0.000 C 
BRANCH  29  30
ATOM     30  N   UNL     1       1.628   4.392  18.455  0.00  0.00    +0.000 NA
ATOM     31  C   UNL     1       1.034   3.158  19.012  0.00  0.00    +0.000 C 
ATOM     32  C   UNL     1       2.070   2.170  19.572  0.00  0.00    +0.000 C 
ATOM     33  O   UNL     1       3.038   1.811  18.577  0.00  0.00    +0.000 OA
ATOM     34  C   UNL     1       3.685   2.971  18.038  0.00  0.00    +0.000 C 
ATOM     35  C   UNL     1       2.662   3.977  17.471  0.00  0.00    +0.000 C 
ENDBRANCH  29  30
ENDBRANCH  28  29
ENDBRANCH  25  28
ENDBRANCH   1  23
TORSDOF 9
ENDMDL
MODEL 9
REMARK VINA RESULT:      -7.3      1.446      2.364
REMARK  Name = 
REMARK  12 active torsions:
REMARK  status: ('A' for Active; 'I' for Inactive)
REMARK    1  A    between atoms: C_1  and  C_2
REMARK    2  A    between atoms: C_2  and  C_3
REMARK    3  A    between atoms: C_8  and  C_9
REMARK    4  A    between atoms: C_9  and  C_10
REMARK    5  A    between atoms: C_9  and  N_20
REMARK    6  A    between atoms: C_13  and  O_14
REMARK    7  A    between atoms: O_14  and  C_15
REMARK    8  A    between atoms: C_16  and  O_17
REMARK    9  A    between atoms: O_17  and  C_18
REMARK   10  A    between atoms: C_22  and  C_23
REMARK   11  A    between atoms: C_23  and  C_24
REMARK   12  A    between atoms: C_24  and  N_25
REMARK                            x       y       z     vdW  Elec       q    Type
REMARK                         _______ _______ _______ _____ _____    ______ ____
ROOT
ATOM      1  C   UNL     1       0.416  10.550  19.444  0.00  0.00    +0.000 C 
ENDROOT
BRANCH   1   7
ATOM      2  C   UNL     1       3.345  16.068  19.655  0.00  0.00    +0.000 A 
ATOM      3  C   UNL     1       3.478  15.708  18.311  0.00  0.00    +0.000 A 
ATOM      4  C   UNL     1       2.970  14.493  17.840  0.00  0.00    +0.000 A 
ATOM      5  C   UNL     1       2.319  13.616  18.728  0.00  0.00    +0.000 A 
ATOM      6  N   UNL     1       1.806  12.373  18.406  0.00  0.00    +0.000 NA
ATOM      7  C   UNL     1       1.207  11.838  19.453  0.00  0.00    +0.000 A 
ATOM      8  S   UNL     1       1.296  12.773  20.898  0.00  0.00    +0.000 S 
ATOM      9  C   UNL     1       2.157  14.002  20.058  0.00  0.00    +0.000 A 
ATOM     10  C   UNL     1       2.655  15.223  20.541  0.00  0.00    +0.000 A 
BRANCH   2  12
ATOM     11  C   UNL     1       2.907  18.250  20.835  0.00  0.00    +0.000 C 
ATOM     12  C   UNL     1       3.938  17.361  20.160  0.00  0.00    +0.000 C 
ENDBRANCH   2  12
ENDBRANCH   1   7
BRANCH   1  13
ATOM     13  C   UNL     1      -0.983  10.670  18.823  0.00  0.00    +0.000 A 
ATOM     14  C   UNL     1      -2.002  11.446  19.386  0.00  0.00    +0.000 A 
ATOM     15  C   UNL     1      -3.253  11.519  18.781  0.00  0.00    +0.000 A 
ATOM     16  C   UNL     1      -3.528  10.829  17.596  0.00  0.00    +0.000 A 
ATOM     17  C   UNL     1      -2.515  10.065  16.996  0.00  0.00    +0.000 A 
ATOM     18  C   UNL     1      -1.250  10.012  17.607  0.00  0.00    +0.000 A 
BRANCH  16  19
ATOM     19  O   UNL     1      -4.821  11.030  17.187  0.00  0.00    +0.000 OA
ATOM     20  C   UNL     1      -5.291  12.355  17.016  0.00  0.00    +0.000 C 
ENDBRANCH  16  19
BRANCH  17  21
ATOM     21  O   UNL     1      -2.806   9.393  15.837  0.00  0.00    +0.000 OA
ATOM     22  C   UNL     1      -2.921  10.136  14.632  0.00  0.00    +0.000 C 
ENDBRANCH  17  21
ENDBRANCH   1  13
BRANCH   1  23
ATOM     23  N   UNL     1       1.187   9.479  18.809  0.00  0.00    +0.000 N 
ATOM     24  C   UNL     1       1.596   8.292  19.341  0.00  0.00    +0.000 A 
ATOM     25  C   UNL     1       2.475   7.781  18.414  0.00  0.00    +0.000 A 
ATOM     26  N   UNL     1       2.534   8.634  17.343  0.00  0.00    +0.000 NA
ATOM     27  N   UNL     1       1.744   9.672  17.593  0.00  0.00    +0.000 NA
BRANCH  25  28
ATOM     28  C   UNL     1       3.292   6.537  18.466  0.00  0.00    +0.000 C 
BRANCH  28  29
ATOM     29  C   UNL     1       2.696   5.509  19.444  0.00  0.00    +0.000 C 
BRANCH  29  30
ATOM     30  N   UNL     1       1.550   4.723  18.950  0.00  0.00    +0.000 NA
ATOM     31  C   UNL     1       1.069   3.709  19.911  0.00  0.00    +0.000 C 
ATOM     32  C   UNL     1       2.057   2.553  20.137  0.00  0.00    +0.000 C 
ATOM     33  O   UNL     1       2.387   1.902  18.903  0.00  0.00    +0.000 OA
ATOM     34  C   UNL     1       2.910   2.834  17.947  0.00  0.00    +0.000 C 
ATOM     35  C   UNL     1       1.935   4.004  17.707  0.00  0.00    +0.000 C 
ENDBRANCH  29  30
ENDBRANCH  28  29
ENDBRANCH  25  28
ENDBRANCH   1  23
TORSDOF 9
ENDMDL
