MODEL 1
REMARK VINA RESULT:      -8.5      0.000      0.000
REMARK  Name = 
REMARK  3 active torsions:
REMARK  status: ('A' for Active; 'I' for Inactive)
REMARK    1  A    between atoms: C_2  and  C_3
REMARK    2  A    between atoms: C_2  and  C_10
REMARK    3  A    between atoms: N_16  and  C_17
REMARK                            x       y       z     vdW  Elec       q    Type
REMARK                         _______ _______ _______ _____ _____    ______ ____
ROOT
ATOM      1  C   UNL     1       5.564   5.827  18.315  0.00  0.00    +0.000 C 
ATOM      2  C   UNL     1       5.516   6.873  17.183  0.00  0.00    +0.000 C 
ATOM      3  C   UNL     1       6.874   7.354  16.682  0.00  0.00    +0.000 C 
ATOM      4  N   UNL     1       7.788   7.605  17.786  0.00  0.00    +0.000 N 
ATOM      5  C   UNL     1       8.063   8.928  18.127  0.00  0.00    +0.000 C 
ATOM      6  O   UNL     1       7.516   9.856  17.535  0.00  0.00    +0.000 OA
ATOM      7  N   UNL     1       8.998   9.107  19.122  0.00  0.00    +0.000 N 
ATOM      8  C   UNL     1       8.072   6.403  18.562  0.00  0.00    +0.000 C 
ATOM      9  C   UNL     1       6.797   5.911  19.238  0.00  0.00    +0.000 C 
ATOM     10  H   UNL     1       9.590   8.320  19.341  0.00  0.00    +0.000 HD
ENDROOT
BRANCH   7  11
ATOM     11  C   UNL     1       9.470  10.347  19.623  0.00  0.00    +0.000 A 
ATOM     12  C   UNL     1       9.205  10.832  20.906  0.00  0.00    +0.000 A 
ATOM     13  C   UNL     1       9.663  12.097  21.297  0.00  0.00    +0.000 A 
ATOM     14  C   UNL     1      10.399  12.870  20.405  0.00  0.00    +0.000 A 
ATOM     15  F   UNL     1      10.815  14.088  20.780  0.00  0.00    +0.000 F 
ATOM     16  C   UNL     1      10.709  12.400  19.140  0.00  0.00    +0.000 A 
ATOM     17  C   UNL     1      10.247  11.142  18.765  0.00  0.00    +0.000 A 
ATOM     18  F   UNL     1      10.540  10.691  17.534  0.00  0.00    +0.000 F 
ENDBRANCH   7  11
BRANCH   1  20
ATOM     19  O   UNL     1       6.154   3.821  17.092  0.00  0.00    +0.000 OA
ATOM     20  C   UNL     1       5.312   4.419  17.762  0.00  0.00    +0.000 C 
BRANCH  20  21
ATOM     21  C   UNL     1       3.969   3.778  18.008  0.00  0.00    +0.000 A 
ATOM     22  C   UNL     1       3.837   2.534  18.649  0.00  0.00    +0.000 A 
ATOM     23  C   UNL     1       2.572   2.018  18.945  0.00  0.00    +0.000 A 
ATOM     24  C   UNL     1       1.437   2.735  18.590  0.00  0.00    +0.000 A 
ATOM     25  F   UNL     1       0.229   2.253  18.904  0.00  0.00    +0.000 F 
ATOM     26  C   UNL     1       1.544   3.947  17.920  0.00  0.00    +0.000 A 
ATOM     27  C   UNL     1       2.809   4.467  17.620  0.00  0.00    +0.000 A 
ENDBRANCH  20  21
ENDBRANCH   1  20
TORSDOF 3
ENDMDL
MODEL 2
REMARK VINA RESULT:      -8.2      5.236      7.065
REMARK  Name = 
REMARK  3 active torsions:
REMARK  status: ('A' for Active; 'I' for Inactive)
REMARK    1  A    between atoms: C_2  and  C_3
REMARK    2  A    between atoms: C_2  and  C_10
REMARK    3  A    between atoms: N_16  and  C_17
REMARK                            x       y       z     vdW  Elec       q    Type
REMARK                         _______ _______ _______ _____ _____    ______ ____
ROOT
ATOM      1  C   UNL     1       6.498   5.446  18.399  0.00  0.00    +0.000 C 
ATOM      2  C   UNL     1       5.470   4.558  19.130  0.00  0.00    +0.000 C 
ATOM      3  C   UNL     1       4.045   4.631  18.589  0.00  0.00    +0.000 C 
ATOM      4  N   UNL     1       3.658   6.003  18.299  0.00  0.00    +0.000 N 
ATOM      5  C   UNL     1       2.771   6.637  19.168  0.00  0.00    +0.000 C 
ATOM      6  O   UNL     1       2.360   6.062  20.174  0.00  0.00    +0.000 OA
ATOM      7  N   UNL     1       2.375   7.902  18.799  0.00  0.00    +0.000 N 
ATOM      8  C   UNL     1       4.489   6.613  17.266  0.00  0.00    +0.000 C 
ATOM      9  C   UNL     1       5.926   6.728  17.761  0.00  0.00    +0.000 C 
ATOM     10  H   UNL     1       2.531   8.170  17.839  0.00  0.00    +0.000 HD
ENDROOT
BRANCH   7  11
ATOM     11  C   UNL     1       1.461   8.736  19.493  0.00  0.00    +0.000 A 
ATOM     12  C   UNL     1       1.200   8.650  20.863  0.00  0.00    +0.000 A 
ATOM     13  C   UNL     1       0.235   9.475  21.456  0.00  0.00    +0.000 A 
ATOM     14  C   UNL     1      -0.458  10.396  20.677  0.00  0.00    +0.000 A 
ATOM     15  F   UNL     1      -1.395  11.167  21.249  0.00  0.00    +0.000 F 
ATOM     16  C   UNL     1      -0.194  10.529  19.324  0.00  0.00    +0.000 A 
ATOM     17  C   UNL     1       0.767   9.703  18.748  0.00  0.00    +0.000 A 
ATOM     18  F   UNL     1       1.016   9.826  17.434  0.00  0.00    +0.000 F 
ENDBRANCH   7  11
BRANCH   1  20
ATOM     19  O   UNL     1       8.410   4.094  17.773  0.00  0.00    +0.000 OA
ATOM     20  C   UNL     1       7.345   4.609  17.430  0.00  0.00    +0.000 C 
BRANCH  20  21
ATOM     21  C   UNL     1       6.877   4.464  16.005  0.00  0.00    +0.000 A 
ATOM     22  C   UNL     1       7.517   5.111  14.934  0.00  0.00    +0.000 A 
ATOM     23  C   UNL     1       7.114   4.876  13.617  0.00  0.00    +0.000 A 
ATOM     24  C   UNL     1       6.064   4.003  13.365  0.00  0.00    +0.000 A 
ATOM     25  F   UNL     1       5.704   3.755  12.101  0.00  0.00    +0.000 F 
ATOM     26  C   UNL     1       5.391   3.382  14.410  0.00  0.00    +0.000 A 
ATOM     27  C   UNL     1       5.791   3.617  15.731  0.00  0.00    +0.000 A 
ENDBRANCH  20  21
ENDBRANCH   1  20
TORSDOF 3
ENDMDL
MODEL 3
REMARK VINA RESULT:      -8.0      7.112     10.016
REMARK  Name = 
REMARK  3 active torsions:
REMARK  status: ('A' for Active; 'I' for Inactive)
REMARK    1  A    between atoms: C_2  and  C_3
REMARK    2  A    between atoms: C_2  and  C_10
REMARK    3  A    between atoms: N_16  and  C_17
REMARK                            x       y       z     vdW  Elec       q    Type
REMARK                         _______ _______ _______ _____ _____    ______ ____
ROOT
ATOM      1  C   UNL     1      -0.553  10.223  19.494  0.00  0.00    +0.000 C 
ATOM      2  C   UNL     1      -0.246   9.541  20.843  0.00  0.00    +0.000 C 
ATOM      3  C   UNL     1       1.202   9.102  21.037  0.00  0.00    +0.000 C 
ATOM      4  N   UNL     1       1.730   8.475  19.835  0.00  0.00    +0.000 N 
ATOM      5  C   UNL     1       1.891   7.091  19.829  0.00  0.00    +0.000 C 
ATOM      6  O   UNL     1       1.556   6.416  20.800  0.00  0.00    +0.000 OA
ATOM      7  N   UNL     1       2.473   6.562  18.699  0.00  0.00    +0.000 N 
ATOM      8  C   UNL     1       1.757   9.386  18.695  0.00  0.00    +0.000 C 
ATOM      9  C   UNL     1       0.335   9.779  18.315  0.00  0.00    +0.000 C 
ATOM     10  H   UNL     1       2.966   7.202  18.095  0.00  0.00    +0.000 HD
ENDROOT
BRANCH   7  11
ATOM     11  C   UNL     1       2.771   5.195  18.464  0.00  0.00    +0.000 A 
ATOM     12  C   UNL     1       1.952   4.322  17.744  0.00  0.00    +0.000 A 
ATOM     13  C   UNL     1       2.297   2.970  17.613  0.00  0.00    +0.000 A 
ATOM     14  C   UNL     1       3.470   2.497  18.192  0.00  0.00    +0.000 A 
ATOM     15  F   UNL     1       3.781   1.198  18.079  0.00  0.00    +0.000 F 
ATOM     16  C   UNL     1       4.320   3.348  18.880  0.00  0.00    +0.000 A 
ATOM     17  C   UNL     1       3.965   4.688  19.003  0.00  0.00    +0.000 A 
ATOM     18  F   UNL     1       4.784   5.510  19.679  0.00  0.00    +0.000 F 
ENDBRANCH   7  11
BRANCH   1  20
ATOM     19  O   UNL     1      -0.079  12.517  18.872  0.00  0.00    +0.000 OA
ATOM     20  C   UNL     1      -0.627  11.747  19.662  0.00  0.00    +0.000 C 
BRANCH  20  21
ATOM     21  C   UNL     1      -1.348  12.306  20.862  0.00  0.00    +0.000 A 
ATOM     22  C   UNL     1      -2.750  12.366  20.935  0.00  0.00    +0.000 A 
ATOM     23  C   UNL     1      -3.383  12.802  22.102  0.00  0.00    +0.000 A 
ATOM     24  C   UNL     1      -2.619  13.190  23.194  0.00  0.00    +0.000 A 
ATOM     25  F   UNL     1      -3.230  13.576  24.321  0.00  0.00    +0.000 F 
ATOM     26  C   UNL     1      -1.231  13.177  23.131  0.00  0.00    +0.000 A 
ATOM     27  C   UNL     1      -0.593  12.743  21.962  0.00  0.00    +0.000 A 
ENDBRANCH  20  21
ENDBRANCH   1  20
TORSDOF 3
ENDMDL
MODEL 4
REMARK VINA RESULT:      -8.0      5.687      9.880
REMARK  Name = 
REMARK  3 active torsions:
REMARK  status: ('A' for Active; 'I' for Inactive)
REMARK    1  A    between atoms: C_2  and  C_3
REMARK    2  A    between atoms: C_2  and  C_10
REMARK    3  A    between atoms: N_16  and  C_17
REMARK                            x       y       z     vdW  Elec       q    Type
REMARK                         _______ _______ _______ _____ _____    ______ ____
ROOT
ATOM      1  C   UNL     1      -0.351  10.133  18.978  0.00  0.00    +0.000 C 
ATOM      2  C   UNL     1      -0.177   9.578  20.407  0.00  0.00    +0.000 C 
ATOM      3  C   UNL     1       1.239   9.143  20.770  0.00  0.00    +0.000 C 
ATOM      4  N   UNL     1       1.859   8.399  19.684  0.00  0.00    +0.000 N 
ATOM      5  C   UNL     1       1.993   7.019  19.821  0.00  0.00    +0.000 C 
ATOM      6  O   UNL     1       1.560   6.442  20.817  0.00  0.00    +0.000 OA
ATOM      7  N   UNL     1       2.661   6.378  18.802  0.00  0.00    +0.000 N 
ATOM      8  C   UNL     1       2.005   9.197  18.470  0.00  0.00    +0.000 C 
ATOM      9  C   UNL     1       0.629   9.569  17.929  0.00  0.00    +0.000 C 
ATOM     10  H   UNL     1       3.218   6.953  18.187  0.00  0.00    +0.000 HD
ENDROOT
BRANCH   7  11
ATOM     11  C   UNL     1       2.952   4.993  18.724  0.00  0.00    +0.000 A 
ATOM     12  C   UNL     1       4.017   4.373  19.384  0.00  0.00    +0.000 A 
ATOM     13  C   UNL     1       4.266   3.006  19.202  0.00  0.00    +0.000 A 
ATOM     14  C   UNL     1       3.440   2.258  18.370  0.00  0.00    +0.000 A 
ATOM     15  F   UNL     1       3.699   0.956  18.185  0.00  0.00    +0.000 F 
ATOM     16  C   UNL     1       2.356   2.838  17.732  0.00  0.00    +0.000 A 
ATOM     17  C   UNL     1       2.120   4.196  17.921  0.00  0.00    +0.000 A 
ATOM     18  F   UNL     1       1.074   4.760  17.295  0.00  0.00    +0.000 F 
ENDBRANCH   7  11
BRANCH   1  20
ATOM     19  O   UNL     1      -1.453  12.281  18.780  0.00  0.00    +0.000 OA
ATOM     20  C   UNL     1      -0.409  11.666  18.995  0.00  0.00    +0.000 C 
BRANCH  20  21
ATOM     21  C   UNL     1       0.868  12.433  19.230  0.00  0.00    +0.000 A 
ATOM     22  C   UNL     1       1.692  12.861  18.176  0.00  0.00    +0.000 A 
ATOM     23  C   UNL     1       2.815  13.653  18.428  0.00  0.00    +0.000 A 
ATOM     24  C   UNL     1       3.126  14.009  19.733  0.00  0.00    +0.000 A 
ATOM     25  F   UNL     1       4.184  14.795  19.967  0.00  0.00    +0.000 F 
ATOM     26  C   UNL     1       2.348  13.565  20.795  0.00  0.00    +0.000 A 
ATOM     27  C   UNL     1       1.222  12.770  20.546  0.00  0.00    +0.000 A 
ENDBRANCH  20  21
ENDBRANCH   1  20
TORSDOF 3
ENDMDL
MODEL 5
REMARK VINA RESULT:      -8.0      5.876      9.821
REMARK  Name = 
REMARK  3 active torsions:
REMARK  status: ('A' for Active; 'I' for Inactive)
REMARK    1  A    between atoms: C_2  and  C_3
REMARK    2  A    between atoms: C_2  and  C_10
REMARK    3  A    between atoms: N_16  and  C_17
REMARK                            x       y       z     vdW  Elec       q    Type
REMARK                         _______ _______ _______ _____ _____    ______ ____
ROOT
ATOM      1  C   UNL     1      -0.479  10.193  19.369  0.00  0.00    +0.000 C 
ATOM      2  C   UNL     1      -0.207   9.524  20.732  0.00  0.00    +0.000 C 
ATOM      3  C   UNL     1       1.233   9.073  20.960  0.00  0.00    +0.000 C 
ATOM      4  N   UNL     1       1.779   8.426  19.777  0.00  0.00    +0.000 N 
ATOM      5  C   UNL     1       1.926   7.040  19.791  0.00  0.00    +0.000 C 
ATOM      6  O   UNL     1       1.565   6.380  20.763  0.00  0.00    +0.000 OA
ATOM      7  N   UNL     1       2.525   6.491  18.679  0.00  0.00    +0.000 N 
ATOM      8  C   UNL     1       1.838   9.322  18.626  0.00  0.00    +0.000 C 
ATOM      9  C   UNL     1       0.427   9.725  18.213  0.00  0.00    +0.000 C 
ATOM     10  H   UNL     1       3.036   7.119  18.077  0.00  0.00    +0.000 HD
ENDROOT
BRANCH   7  11
ATOM     11  C   UNL     1       2.814   5.119  18.468  0.00  0.00    +0.000 A 
ATOM     12  C   UNL     1       1.992   4.241  17.757  0.00  0.00    +0.000 A 
ATOM     13  C   UNL     1       2.327   2.885  17.648  0.00  0.00    +0.000 A 
ATOM     14  C   UNL     1       3.494   2.412  18.240  0.00  0.00    +0.000 A 
ATOM     15  F   UNL     1       3.796   1.109  18.150  0.00  0.00    +0.000 F 
ATOM     16  C   UNL     1       4.346   3.267  18.920  0.00  0.00    +0.000 A 
ATOM     17  C   UNL     1       4.001   4.611  19.020  0.00  0.00    +0.000 A 
ATOM     18  F   UNL     1       4.823   5.438  19.687  0.00  0.00    +0.000 F 
ENDBRANCH   7  11
BRANCH   1  20
ATOM     19  O   UNL     1      -1.609  12.321  19.623  0.00  0.00    +0.000 OA
ATOM     20  C   UNL     1      -0.541  11.718  19.516  0.00  0.00    +0.000 C 
BRANCH  20  21
ATOM     21  C   UNL     1       0.748  12.499  19.474  0.00  0.00    +0.000 A 
ATOM     22  C   UNL     1       1.255  13.049  18.284  0.00  0.00    +0.000 A 
ATOM     23  C   UNL     1       2.401  13.848  18.301  0.00  0.00    +0.000 A 
ATOM     24  C   UNL     1       3.052  14.090  19.504  0.00  0.00    +0.000 A 
ATOM     25  F   UNL     1       4.130  14.882  19.520  0.00  0.00    +0.000 F 
ATOM     26  C   UNL     1       2.592  13.525  20.687  0.00  0.00    +0.000 A 
ATOM     27  C   UNL     1       1.444  12.722  20.673  0.00  0.00    +0.000 A 
ENDBRANCH  20  21
ENDBRANCH   1  20
TORSDOF 3
ENDMDL
MODEL 6
REMARK VINA RESULT:      -7.9      5.895      7.807
REMARK  Name = 
REMARK  3 active torsions:
REMARK  status: ('A' for Active; 'I' for Inactive)
REMARK    1  A    between atoms: C_2  and  C_3
REMARK    2  A    between atoms: C_2  and  C_10
REMARK    3  A    between atoms: N_16  and  C_17
REMARK                            x       y       z     vdW  Elec       q    Type
REMARK                         _______ _______ _______ _____ _____    ______ ____
ROOT
ATOM      1  C   UNL     1       1.840   4.594  18.842  0.00  0.00    +0.000 C 
ATOM      2  C   UNL     1       2.245   5.775  17.937  0.00  0.00    +0.000 C 
ATOM      3  C   UNL     1       2.878   6.961  18.659  0.00  0.00    +0.000 C 
ATOM      4  N   UNL     1       2.167   7.274  19.888  0.00  0.00    +0.000 N 
ATOM      5  C   UNL     1       1.351   8.404  19.910  0.00  0.00    +0.000 C 
ATOM      6  O   UNL     1       1.207   9.093  18.903  0.00  0.00    +0.000 OA
ATOM      7  N   UNL     1       0.770   8.699  21.123  0.00  0.00    +0.000 N 
ATOM      8  C   UNL     1       2.205   6.178  20.851  0.00  0.00    +0.000 C 
ATOM      9  C   UNL     1       1.463   4.971  20.289  0.00  0.00    +0.000 C 
ATOM     10  H   UNL     1       1.165   8.257  21.940  0.00  0.00    +0.000 HD
ENDROOT
BRANCH   7  11
ATOM     11  C   UNL     1      -0.070   9.805  21.409  0.00  0.00    +0.000 A 
ATOM     12  C   UNL     1      -0.549  10.700  20.449  0.00  0.00    +0.000 A 
ATOM     13  C   UNL     1      -1.326  11.802  20.830  0.00  0.00    +0.000 A 
ATOM     14  C   UNL     1      -1.634  11.999  22.172  0.00  0.00    +0.000 A 
ATOM     15  F   UNL     1      -2.360  13.068  22.530  0.00  0.00    +0.000 F 
ATOM     16  C   UNL     1      -1.203  11.108  23.142  0.00  0.00    +0.000 A 
ATOM     17  C   UNL     1      -0.432  10.018  22.749  0.00  0.00    +0.000 A 
ATOM     18  F   UNL     1      -0.007   9.159  23.691  0.00  0.00    +0.000 F 
ENDBRANCH   7  11
BRANCH   1  20
ATOM     19  O   UNL     1       2.683   2.362  19.269  0.00  0.00    +0.000 OA
ATOM     20  C   UNL     1       2.876   3.466  18.757  0.00  0.00    +0.000 C 
BRANCH  20  21
ATOM     21  C   UNL     1       4.190   3.744  18.071  0.00  0.00    +0.000 A 
ATOM     22  C   UNL     1       4.368   3.563  16.689  0.00  0.00    +0.000 A 
ATOM     23  C   UNL     1       5.570   3.923  16.075  0.00  0.00    +0.000 A 
ATOM     24  C   UNL     1       6.601   4.452  16.839  0.00  0.00    +0.000 A 
ATOM     25  F   UNL     1       7.739   4.826  16.241  0.00  0.00    +0.000 F 
ATOM     26  C   UNL     1       6.462   4.603  18.213  0.00  0.00    +0.000 A 
ATOM     27  C   UNL     1       5.259   4.242  18.833  0.00  0.00    +0.000 A 
ENDBRANCH  20  21
ENDBRANCH   1  20
TORSDOF 3
ENDMDL
MODEL 7
REMARK VINA RESULT:      -7.9      6.967     10.089
REMARK  Name = 
REMARK  3 active torsions:
REMARK  status: ('A' for Active; 'I' for Inactive)
REMARK    1  A    between atoms: C_2  and  C_3
REMARK    2  A    between atoms: C_2  and  C_10
REMARK    3  A    between atoms: N_16  and  C_17
REMARK                            x       y       z     vdW  Elec       q    Type
REMARK                         _______ _______ _______ _____ _____    ______ ____
ROOT
ATOM      1  C   UNL     1      -0.572  10.099  18.991  0.00  0.00    +0.000 C 
ATOM      2  C   UNL     1      -0.278   9.585  20.415  0.00  0.00    +0.000 C 
ATOM      3  C   UNL     1       1.178   9.223  20.691  0.00  0.00    +0.000 C 
ATOM      4  N   UNL     1       1.760   8.485  19.580  0.00  0.00    +0.000 N 
ATOM      5  C   UNL     1       1.967   7.115  19.735  0.00  0.00    +0.000 C 
ATOM      6  O   UNL     1       1.629   6.542  20.768  0.00  0.00    +0.000 OA
ATOM      7  N   UNL     1       2.596   6.484  18.685  0.00  0.00    +0.000 N 
ATOM      8  C   UNL     1       1.787   9.261  18.345  0.00  0.00    +0.000 C 
ATOM      9  C   UNL     1       0.362   9.557  17.890  0.00  0.00    +0.000 C 
ATOM     10  H   UNL     1       3.083   7.070  18.024  0.00  0.00    +0.000 HD
ENDROOT
BRANCH   7  11
ATOM     11  C   UNL     1       2.947   5.112  18.615  0.00  0.00    +0.000 A 
ATOM     12  C   UNL     1       4.070   4.552  19.230  0.00  0.00    +0.000 A 
ATOM     13  C   UNL     1       4.372   3.195  19.058  0.00  0.00    +0.000 A 
ATOM     14  C   UNL     1       3.542   2.396  18.279  0.00  0.00    +0.000 A 
ATOM     15  F   UNL     1       3.851   1.103  18.102  0.00  0.00    +0.000 F 
ATOM     16  C   UNL     1       2.402   2.914  17.687  0.00  0.00    +0.000 A 
ATOM     17  C   UNL     1       2.113   4.264  17.867  0.00  0.00    +0.000 A 
ATOM     18  F   UNL     1       1.013   4.769  17.284  0.00  0.00    +0.000 F 
ENDBRANCH   7  11
BRANCH   1  20
ATOM     19  O   UNL     1       0.222  12.358  18.620  0.00  0.00    +0.000 OA
ATOM     20  C   UNL     1      -0.701  11.628  18.983  0.00  0.00    +0.000 C 
BRANCH  20  21
ATOM     21  C   UNL     1      -1.980  12.246  19.486  0.00  0.00    +0.000 A 
ATOM     22  C   UNL     1      -3.238  11.900  18.963  0.00  0.00    +0.000 A 
ATOM     23  C   UNL     1      -4.408  12.422  19.521  0.00  0.00    +0.000 A 
ATOM     24  C   UNL     1      -4.326  13.301  20.593  0.00  0.00    +0.000 A 
ATOM     25  F   UNL     1      -5.450  13.773  21.145  0.00  0.00    +0.000 F 
ATOM     26  C   UNL     1      -3.091  13.688  21.100  0.00  0.00    +0.000 A 
ATOM     27  C   UNL     1      -1.917  13.168  20.543  0.00  0.00    +0.000 A 
ENDBRANCH  20  21
ENDBRANCH   1  20
TORSDOF 3
ENDMDL
MODEL 8
REMARK VINA RESULT:      -7.9      7.278     10.118
REMARK  Name = 
REMARK  3 active torsions:
REMARK  status: ('A' for Active; 'I' for Inactive)
REMARK    1  A    between atoms: C_2  and  C_3
REMARK    2  A    between atoms: C_2  and  C_10
REMARK    3  A    between atoms: N_16  and  C_17
REMARK                            x       y       z     vdW  Elec       q    Type
REMARK                         _______ _______ _______ _____ _____    ______ ____
ROOT
ATOM      1  C   UNL     1      -0.550  10.157  20.340  0.00  0.00    +0.000 C 
ATOM      2  C   UNL     1      -0.251   9.277  21.572  0.00  0.00    +0.000 C 
ATOM      3  C   UNL     1       1.195   8.810  21.702  0.00  0.00    +0.000 C 
ATOM      4  N   UNL     1       1.728   8.371  20.421  0.00  0.00    +0.000 N 
ATOM      5  C   UNL     1       1.885   7.003  20.206  0.00  0.00    +0.000 C 
ATOM      6  O   UNL     1       1.545   6.189  21.062  0.00  0.00    +0.000 OA
ATOM      7  N   UNL     1       2.471   6.649  19.011  0.00  0.00    +0.000 N 
ATOM      8  C   UNL     1       1.762   9.443  19.432  0.00  0.00    +0.000 C 
ATOM      9  C   UNL     1       0.342   9.894  19.110  0.00  0.00    +0.000 C 
ATOM     10  H   UNL     1       2.968   7.372  18.513  0.00  0.00    +0.000 HD
ENDROOT
BRANCH   7  11
ATOM     11  C   UNL     1       2.767   5.333  18.574  0.00  0.00    +0.000 A 
ATOM     12  C   UNL     1       1.911   4.550  17.795  0.00  0.00    +0.000 A 
ATOM     13  C   UNL     1       2.261   3.235  17.459  0.00  0.00    +0.000 A 
ATOM     14  C   UNL     1       3.475   2.711  17.890  0.00  0.00    +0.000 A 
ATOM     15  F   UNL     1       3.792   1.445  17.582  0.00  0.00    +0.000 F 
ATOM     16  C   UNL     1       4.360   3.477  18.632  0.00  0.00    +0.000 A 
ATOM     17  C   UNL     1       4.000   4.781  18.960  0.00  0.00    +0.000 A 
ATOM     18  F   UNL     1       4.854   5.520  19.687  0.00  0.00    +0.000 F 
ENDBRANCH   7  11
BRANCH   1  20
ATOM     19  O   UNL     1       0.343  12.393  20.611  0.00  0.00    +0.000 OA
ATOM     20  C   UNL     1      -0.621  11.637  20.736  0.00  0.00    +0.000 C 
BRANCH  20  21
ATOM     21  C   UNL     1      -1.897  12.160  21.346  0.00  0.00    +0.000 A 
ATOM     22  C   UNL     1      -2.980  12.596  20.564  0.00  0.00    +0.000 A 
ATOM     23  C   UNL     1      -4.181  12.983  21.165  0.00  0.00    +0.000 A 
ATOM     24  C   UNL     1      -4.300  12.948  22.548  0.00  0.00    +0.000 A 
ATOM     25  F   UNL     1      -5.462  13.288  23.117  0.00  0.00    +0.000 F 
ATOM     26  C   UNL     1      -3.229  12.558  23.343  0.00  0.00    +0.000 A 
ATOM     27  C   UNL     1      -2.024  12.172  22.744  0.00  0.00    +0.000 A 
ENDBRANCH  20  21
ENDBRANCH   1  20
TORSDOF 3
ENDMDL
MODEL 9
REMARK VINA RESULT:      -7.9      6.942     10.054
REMARK  Name = 
REMARK  3 active torsions:
REMARK  status: ('A' for Active; 'I' for Inactive)
REMARK    1  A    between atoms: C_2  and  C_3
REMARK    2  A    between atoms: C_2  and  C_10
REMARK    3  A    between atoms: N_16  and  C_17
REMARK                            x       y       z     vdW  Elec       q    Type
REMARK                         _______ _______ _______ _____ _____    ______ ____
ROOT
ATOM      1  C   UNL     1      -0.476  10.127  19.255  0.00  0.00    +0.000 C 
ATOM      2  C   UNL     1      -0.253   9.507  20.650  0.00  0.00    +0.000 C 
ATOM      3  C   UNL     1       1.183   9.092  20.956  0.00  0.00    +0.000 C 
ATOM      4  N   UNL     1       1.793   8.419  19.819  0.00  0.00    +0.000 N 
ATOM      5  C   UNL     1       1.964   7.037  19.884  0.00  0.00    +0.000 C 
ATOM      6  O   UNL     1       1.571   6.401  20.860  0.00  0.00    +0.000 OA
ATOM      7  N   UNL     1       2.622   6.465  18.818  0.00  0.00    +0.000 N 
ATOM      8  C   UNL     1       1.888   9.279  18.644  0.00  0.00    +0.000 C 
ATOM      9  C   UNL     1       0.490   9.641  18.156  0.00  0.00    +0.000 C 
ATOM     10  H   UNL     1       3.148   7.084  18.220  0.00  0.00    +0.000 HD
ENDROOT
BRANCH   7  11
ATOM     11  C   UNL     1       2.945   5.093  18.664  0.00  0.00    +0.000 A 
ATOM     12  C   UNL     1       4.047   4.471  19.257  0.00  0.00    +0.000 A 
ATOM     13  C   UNL     1       4.324   3.122  19.001  0.00  0.00    +0.000 A 
ATOM     14  C   UNL     1       3.488   2.392  18.162  0.00  0.00    +0.000 A 
ATOM     15  F   UNL     1       3.774   1.107  17.906  0.00  0.00    +0.000 F 
ATOM     16  C   UNL     1       2.368   2.972  17.590  0.00  0.00    +0.000 A 
ATOM     17  C   UNL     1       2.105   4.314  17.852  0.00  0.00    +0.000 A 
ATOM     18  F   UNL     1       1.024   4.878  17.289  0.00  0.00    +0.000 F 
ENDBRANCH   7  11
BRANCH   1  20
ATOM     19  O   UNL     1      -0.092  12.394  18.490  0.00  0.00    +0.000 OA
ATOM     20  C   UNL     1      -0.572  11.655  19.350  0.00  0.00    +0.000 C 
BRANCH  20  21
ATOM     21  C   UNL     1      -1.227  12.263  20.565  0.00  0.00    +0.000 A 
ATOM     22  C   UNL     1      -2.622  12.378  20.686  0.00  0.00    +0.000 A 
ATOM     23  C   UNL     1      -3.196  12.858  21.867  0.00  0.00    +0.000 A 
ATOM     24  C   UNL     1      -2.378  13.234  22.925  0.00  0.00    +0.000 A 
ATOM     25  F   UNL     1      -2.933  13.662  24.065  0.00  0.00    +0.000 F 
ATOM     26  C   UNL     1      -0.995  13.166  22.812  0.00  0.00    +0.000 A 
ATOM     27  C   UNL     1      -0.417  12.688  21.630  0.00  0.00    +0.000 A 
ENDBRANCH  20  21
ENDBRANCH   1  20
TORSDOF 3
ENDMDL
