MODEL 1
REMARK VINA RESULT:      -8.7      0.000      0.000
REMARK  Name = 
REMARK  5 active torsions:
REMARK  status: ('A' for Active; 'I' for Inactive)
REMARK    1  A    between atoms: C_1  and  C_2
REMARK    2  A    between atoms: C_4  and  C_5
REMARK    3  A    between atoms: N_13  and  C_14
REMARK    4  A    between atoms: C_14  and  C_15
REMARK    5  A    between atoms: N_23  and  C_24
REMARK                            x       y       z     vdW  Elec       q    Type
REMARK                         _______ _______ _______ _____ _____    ______ ____
ROOT
ATOM      1  C   UNL     1       3.956   4.064  17.941  0.00  0.00    +0.000 A 
ATOM      2  N   UNL     1       3.335   2.896  18.047  0.00  0.00    +0.000 NA
ATOM      3  C   UNL     1       2.608   2.957  19.206  0.00  0.00    +0.000 A 
ATOM      4  C   UNL     1       1.704   2.062  19.779  0.00  0.00    +0.000 A 
ATOM      5  N   UNL     1       1.211   2.303  21.022  0.00  0.00    +0.000 NA
ATOM      6  C   UNL     1       1.637   3.405  21.690  0.00  0.00    +0.000 A 
ATOM      7  C   UNL     1       2.455   4.401  21.166  0.00  0.00    +0.000 A 
ATOM      8  C   UNL     1       2.863   4.160  19.857  0.00  0.00    +0.000 A 
ATOM      9  N   UNL     1       3.309   4.971  18.800  0.00  0.00    +0.000 N 
ENDROOT
BRANCH   1  13
ATOM     10  C   UNL     1       6.266   3.717  13.420  0.00  0.00    +0.000 C 
ATOM     11  C   UNL     1       6.016   4.318  14.769  0.00  0.00    +0.000 A 
ATOM     12  C   UNL     1       4.989   3.976  15.567  0.00  0.00    +0.000 A 
ATOM     13  C   UNL     1       4.852   4.509  16.915  0.00  0.00    +0.000 A 
ATOM     14  C   UNL     1       5.725   5.460  17.296  0.00  0.00    +0.000 A 
ATOM     15  N   UNL     1       6.764   5.886  16.497  0.00  0.00    +0.000 N 
ATOM     16  C   UNL     1       7.711   6.856  17.013  0.00  0.00    +0.000 C 
ATOM     17  C   UNL     1       6.998   5.355  15.233  0.00  0.00    +0.000 A 
ATOM     18  O   UNL     1       7.953   5.660  14.525  0.00  0.00    +0.000 OA
ENDBRANCH   1  13
BRANCH   9  19
ATOM     19  C   UNL     1       2.304   5.856  18.157  0.00  0.00    +0.000 C 
BRANCH  19  20
ATOM     20  C   UNL     1       2.052   7.231  18.706  0.00  0.00    +0.000 A 
ATOM     21  C   UNL     1       1.739   7.544  20.029  0.00  0.00    +0.000 A 
ATOM     22  C   UNL     1       1.415   8.866  20.380  0.00  0.00    +0.000 A 
ATOM     23  C   UNL     1       1.391   9.872  19.411  0.00  0.00    +0.000 A 
ATOM     24 CL   UNL     1       0.939  11.473  19.832  0.00  0.00    +0.000 Cl
ATOM     25  C   UNL     1       1.720   9.573  18.090  0.00  0.00    +0.000 A 
ATOM     26  C   UNL     1       2.042   8.269  17.747  0.00  0.00    +0.000 A 
ENDBRANCH  19  20
ENDBRANCH   9  19
TORSDOF 3
ENDMDL
MODEL 2
REMARK VINA RESULT:      -8.3      3.582      6.634
REMARK  Name = 
REMARK  5 active torsions:
REMARK  status: ('A' for Active; 'I' for Inactive)
REMARK    1  A    between atoms: C_1  and  C_2
REMARK    2  A    between atoms: C_4  and  C_5
REMARK    3  A    between atoms: N_13  and  C_14
REMARK    4  A    between atoms: C_14  and  C_15
REMARK    5  A    between atoms: N_23  and  C_24
REMARK                            x       y       z     vdW  Elec       q    Type
REMARK                         _______ _______ _______ _____ _____    ______ ____
ROOT
ATOM      1  C   UNL     1       1.715   6.118  20.078  0.00  0.00    +0.000 A 
ATOM      2  N   UNL     1       1.629   5.024  20.824  0.00  0.00    +0.000 NA
ATOM      3  C   UNL     1       1.939   3.976  19.999  0.00  0.00    +0.000 A 
ATOM      4  C   UNL     1       2.092   2.613  20.253  0.00  0.00    +0.000 A 
ATOM      5  N   UNL     1       2.273   1.749  19.219  0.00  0.00    +0.000 NA
ATOM      6  C   UNL     1       2.273   2.239  17.953  0.00  0.00    +0.000 A 
ATOM      7  C   UNL     1       2.227   3.586  17.609  0.00  0.00    +0.000 A 
ATOM      8  C   UNL     1       2.134   4.442  18.703  0.00  0.00    +0.000 A 
ATOM      9  N   UNL     1       2.454   5.791  18.926  0.00  0.00    +0.000 N 
ENDROOT
BRANCH   1  13
ATOM     10  C   UNL     1      -0.077   9.763  23.142  0.00  0.00    +0.000 C 
ATOM     11  C   UNL     1       0.561   9.239  21.892  0.00  0.00    +0.000 A 
ATOM     12  C   UNL     1       0.961   7.967  21.729  0.00  0.00    +0.000 A 
ATOM     13  C   UNL     1       1.475   7.479  20.457  0.00  0.00    +0.000 A 
ATOM     14  C   UNL     1       1.654   8.382  19.475  0.00  0.00    +0.000 A 
ATOM     15  N   UNL     1       1.311   9.710  19.609  0.00  0.00    +0.000 N 
ATOM     16  C   UNL     1       1.460  10.604  18.475  0.00  0.00    +0.000 C 
ATOM     17  C   UNL     1       0.738  10.219  20.769  0.00  0.00    +0.000 A 
ATOM     18  O   UNL     1       0.356  11.378  20.896  0.00  0.00    +0.000 OA
ENDBRANCH   1  13
BRANCH   9  19
ATOM     19  C   UNL     1       3.896   6.146  18.970  0.00  0.00    +0.000 C 
BRANCH  19  20
ATOM     20  C   UNL     1       4.752   5.968  17.749  0.00  0.00    +0.000 A 
ATOM     21  C   UNL     1       4.606   6.643  16.537  0.00  0.00    +0.000 A 
ATOM     22  C   UNL     1       5.408   6.294  15.437  0.00  0.00    +0.000 A 
ATOM     23  C   UNL     1       6.346   5.263  15.542  0.00  0.00    +0.000 A 
ATOM     24 CL   UNL     1       7.283   4.801  14.181  0.00  0.00    +0.000 Cl
ATOM     25  C   UNL     1       6.512   4.595  16.754  0.00  0.00    +0.000 A 
ATOM     26  C   UNL     1       5.721   4.944  17.838  0.00  0.00    +0.000 A 
ENDBRANCH  19  20
ENDBRANCH   9  19
TORSDOF 3
ENDMDL
MODEL 3
REMARK VINA RESULT:      -8.3      0.605      1.739
REMARK  Name = 
REMARK  5 active torsions:
REMARK  status: ('A' for Active; 'I' for Inactive)
REMARK    1  A    between atoms: C_1  and  C_2
REMARK    2  A    between atoms: C_4  and  C_5
REMARK    3  A    between atoms: N_13  and  C_14
REMARK    4  A    between atoms: C_14  and  C_15
REMARK    5  A    between atoms: N_23  and  C_24
REMARK                            x       y       z     vdW  Elec       q    Type
REMARK                         _______ _______ _______ _____ _____    ______ ____
ROOT
ATOM      1  C   UNL     1       4.300   4.035  18.401  0.00  0.00    +0.000 A 
ATOM      2  N   UNL     1       3.718   2.844  18.349  0.00  0.00    +0.000 NA
ATOM      3  C   UNL     1       2.765   2.844  19.333  0.00  0.00    +0.000 A 
ATOM      4  C   UNL     1       1.798   1.901  19.685  0.00  0.00    +0.000 A 
ATOM      5  N   UNL     1       1.050   2.087  20.803  0.00  0.00    +0.000 NA
ATOM      6  C   UNL     1       1.284   3.181  21.571  0.00  0.00    +0.000 A 
ATOM      7  C   UNL     1       2.153   4.220  21.251  0.00  0.00    +0.000 A 
ATOM      8  C   UNL     1       2.832   4.034  20.050  0.00  0.00    +0.000 A 
ATOM      9  N   UNL     1       3.454   4.892  19.129  0.00  0.00    +0.000 N 
ENDROOT
BRANCH   1  13
ATOM     10  C   UNL     1       7.893   7.423  17.175  0.00  0.00    +0.000 C 
ATOM     11  C   UNL     1       7.059   6.197  16.959  0.00  0.00    +0.000 A 
ATOM     12  C   UNL     1       6.243   5.670  17.888  0.00  0.00    +0.000 A 
ATOM     13  C   UNL     1       5.371   4.542  17.595  0.00  0.00    +0.000 A 
ATOM     14  C   UNL     1       5.499   3.959  16.388  0.00  0.00    +0.000 A 
ATOM     15  N   UNL     1       6.359   4.426  15.419  0.00  0.00    +0.000 N 
ATOM     16  C   UNL     1       6.379   3.790  14.114  0.00  0.00    +0.000 C 
ATOM     17  C   UNL     1       7.157   5.549  15.608  0.00  0.00    +0.000 A 
ATOM     18  O   UNL     1       7.880   6.033  14.744  0.00  0.00    +0.000 OA
ENDBRANCH   1  13
BRANCH   9  19
ATOM     19  C   UNL     1       2.569   5.762  18.312  0.00  0.00    +0.000 C 
BRANCH  19  20
ATOM     20  C   UNL     1       2.208   7.136  18.798  0.00  0.00    +0.000 A 
ATOM     21  C   UNL     1       1.790   7.468  20.087  0.00  0.00    +0.000 A 
ATOM     22  C   UNL     1       1.372   8.779  20.374  0.00  0.00    +0.000 A 
ATOM     23  C   UNL     1       1.359   9.755  19.374  0.00  0.00    +0.000 A 
ATOM     24 CL   UNL     1       0.794  11.339  19.713  0.00  0.00    +0.000 Cl
ATOM     25  C   UNL     1       1.791   9.438  18.087  0.00  0.00    +0.000 A 
ATOM     26  C   UNL     1       2.206   8.144  17.808  0.00  0.00    +0.000 A 
ENDBRANCH  19  20
ENDBRANCH   9  19
TORSDOF 3
ENDMDL
MODEL 4
REMARK VINA RESULT:      -7.6      1.009      1.424
REMARK  Name = 
REMARK  5 active torsions:
REMARK  status: ('A' for Active; 'I' for Inactive)
REMARK    1  A    between atoms: C_1  and  C_2
REMARK    2  A    between atoms: C_4  and  C_5
REMARK    3  A    between atoms: N_13  and  C_14
REMARK    4  A    between atoms: C_14  and  C_15
REMARK    5  A    between atoms: N_23  and  C_24
REMARK                            x       y       z     vdW  Elec       q    Type
REMARK                         _______ _______ _______ _____ _____    ______ ____
ROOT
ATOM      1  C   UNL     1       3.739   4.183  17.684  0.00  0.00    +0.000 A 
ATOM      2  N   UNL     1       2.429   4.020  17.549  0.00  0.00    +0.000 NA
ATOM      3  C   UNL     1       1.964   3.637  18.779  0.00  0.00    +0.000 A 
ATOM      4  C   UNL     1       0.671   3.410  19.249  0.00  0.00    +0.000 A 
ATOM      5  N   UNL     1       0.485   2.899  20.495  0.00  0.00    +0.000 NA
ATOM      6  C   UNL     1       1.576   2.595  21.244  0.00  0.00    +0.000 A 
ATOM      7  C   UNL     1       2.895   2.876  20.901  0.00  0.00    +0.000 A 
ATOM      8  C   UNL     1       3.033   3.484  19.656  0.00  0.00    +0.000 A 
ATOM      9  N   UNL     1       4.015   4.292  19.060  0.00  0.00    +0.000 N 
ENDROOT
BRANCH   1  13
ATOM     10  C   UNL     1       6.206   3.660  13.265  0.00  0.00    +0.000 C 
ATOM     11  C   UNL     1       5.936   4.288  14.598  0.00  0.00    +0.000 A 
ATOM     12  C   UNL     1       4.861   4.013  15.355  0.00  0.00    +0.000 A 
ATOM     13  C   UNL     1       4.699   4.567  16.692  0.00  0.00    +0.000 A 
ATOM     14  C   UNL     1       5.609   5.471  17.101  0.00  0.00    +0.000 A 
ATOM     15  N   UNL     1       6.700   5.830  16.341  0.00  0.00    +0.000 N 
ATOM     16  C   UNL     1       7.679   6.751  16.888  0.00  0.00    +0.000 C 
ATOM     17  C   UNL     1       6.956   5.273  15.092  0.00  0.00    +0.000 A 
ATOM     18  O   UNL     1       7.953   5.517  14.422  0.00  0.00    +0.000 OA
ENDBRANCH   1  13
BRANCH   9  19
ATOM     19  C   UNL     1       4.154   5.678  19.576  0.00  0.00    +0.000 C 
BRANCH  19  20
ATOM     20  C   UNL     1       3.105   6.706  19.266  0.00  0.00    +0.000 A 
ATOM     21  C   UNL     1       2.987   7.429  18.079  0.00  0.00    +0.000 A 
ATOM     22  C   UNL     1       2.023   8.444  17.967  0.00  0.00    +0.000 A 
ATOM     23  C   UNL     1       1.184   8.748  19.043  0.00  0.00    +0.000 A 
ATOM     24 CL   UNL     1       0.046  10.027  18.923  0.00  0.00    +0.000 Cl
ATOM     25  C   UNL     1       1.281   8.020  20.228  0.00  0.00    +0.000 A 
ATOM     26  C   UNL     1       2.232   7.016  20.333  0.00  0.00    +0.000 A 
ENDBRANCH  19  20
ENDBRANCH   9  19
TORSDOF 3
ENDMDL
MODEL 5
REMARK VINA RESULT:      -7.6      3.588      6.925
REMARK  Name = 
REMARK  5 active torsions:
REMARK  status: ('A' for Active; 'I' for Inactive)
REMARK    1  A    between atoms: C_1  and  C_2
REMARK    2  A    between atoms: C_4  and  C_5
REMARK    3  A    between atoms: N_13  and  C_14
REMARK    4  A    between atoms: C_14  and  C_15
REMARK    5  A    between atoms: N_23  and  C_24
REMARK                            x       y       z     vdW  Elec       q    Type
REMARK                         _______ _______ _______ _____ _____    ______ ____
ROOT
ATOM      1  C   UNL     1       2.991   7.723  17.912  0.00  0.00    +0.000 A 
ATOM      2  N   UNL     1       3.541   7.946  16.725  0.00  0.00    +0.000 NA
ATOM      3  C   UNL     1       4.528   7.007  16.582  0.00  0.00    +0.000 A 
ATOM      4  C   UNL     1       5.372   6.709  15.511  0.00  0.00    +0.000 A 
ATOM      5  N   UNL     1       6.372   5.804  15.672  0.00  0.00    +0.000 NA
ATOM      6  C   UNL     1       6.542   5.229  16.891  0.00  0.00    +0.000 A 
ATOM      7  C   UNL     1       5.696   5.389  17.984  0.00  0.00    +0.000 A 
ATOM      8  C   UNL     1       4.631   6.253  17.747  0.00  0.00    +0.000 A 
ATOM      9  N   UNL     1       3.358   6.426  18.315  0.00  0.00    +0.000 N 
ENDROOT
BRANCH   1  13
ATOM     10  C   UNL     1      -0.773  11.143  18.068  0.00  0.00    +0.000 C 
ATOM     11  C   UNL     1       0.153  10.122  18.655  0.00  0.00    +0.000 A 
ATOM     12  C   UNL     1       0.963   9.335  17.927  0.00  0.00    +0.000 A 
ATOM     13  C   UNL     1       1.924   8.435  18.550  0.00  0.00    +0.000 A 
ATOM     14  C   UNL     1       1.888   8.324  19.891  0.00  0.00    +0.000 A 
ATOM     15  N   UNL     1       1.039   9.068  20.681  0.00  0.00    +0.000 N 
ATOM     16  C   UNL     1       1.119   8.949  22.125  0.00  0.00    +0.000 C 
ATOM     17  C   UNL     1       0.158  10.005  20.152  0.00  0.00    +0.000 A 
ATOM     18  O   UNL     1      -0.560  10.733  20.830  0.00  0.00    +0.000 OA
ENDBRANCH   1  13
BRANCH   9  19
ATOM     19  C   UNL     1       2.351   5.365  18.053  0.00  0.00    +0.000 C 
BRANCH  19  20
ATOM     20  C   UNL     1       2.021   4.361  19.119  0.00  0.00    +0.000 A 
ATOM     21  C   UNL     1       1.226   3.226  18.962  0.00  0.00    +0.000 A 
ATOM     22  C   UNL     1       0.906   2.433  20.077  0.00  0.00    +0.000 A 
ATOM     23  C   UNL     1       1.367   2.779  21.350  0.00  0.00    +0.000 A 
ATOM     24 CL   UNL     1       0.927   1.841  22.718  0.00  0.00    +0.000 Cl
ATOM     25  C   UNL     1       2.177   3.901  21.515  0.00  0.00    +0.000 A 
ATOM     26  C   UNL     1       2.494   4.679  20.412  0.00  0.00    +0.000 A 
ENDBRANCH  19  20
ENDBRANCH   9  19
TORSDOF 3
ENDMDL
MODEL 6
REMARK VINA RESULT:      -7.6      3.611      6.559
REMARK  Name = 
REMARK  5 active torsions:
REMARK  status: ('A' for Active; 'I' for Inactive)
REMARK    1  A    between atoms: C_1  and  C_2
REMARK    2  A    between atoms: C_4  and  C_5
REMARK    3  A    between atoms: N_13  and  C_14
REMARK    4  A    between atoms: C_14  and  C_15
REMARK    5  A    between atoms: N_23  and  C_24
REMARK                            x       y       z     vdW  Elec       q    Type
REMARK                         _______ _______ _______ _____ _____    ______ ____
ROOT
ATOM      1  C   UNL     1       1.662   6.297  19.947  0.00  0.00    +0.000 A 
ATOM      2  N   UNL     1       1.641   5.291  20.812  0.00  0.00    +0.000 NA
ATOM      3  C   UNL     1       2.033   4.180  20.113  0.00  0.00    +0.000 A 
ATOM      4  C   UNL     1       2.275   2.869  20.521  0.00  0.00    +0.000 A 
ATOM      5  N   UNL     1       2.529   1.909  19.593  0.00  0.00    +0.000 NA
ATOM      6  C   UNL     1       2.512   2.251  18.280  0.00  0.00    +0.000 A 
ATOM      7  C   UNL     1       2.379   3.545  17.784  0.00  0.00    +0.000 A 
ATOM      8  C   UNL     1       2.214   4.510  18.773  0.00  0.00    +0.000 A 
ATOM      9  N   UNL     1       2.437   5.895  18.844  0.00  0.00    +0.000 N 
ENDROOT
BRANCH   1  13
ATOM     10  C   UNL     1       1.559  11.233  18.719  0.00  0.00    +0.000 C 
ATOM     11  C   UNL     1       1.325  10.058  19.617  0.00  0.00    +0.000 A 
ATOM     12  C   UNL     1       1.455   8.777  19.229  0.00  0.00    +0.000 A 
ATOM     13  C   UNL     1       1.324   7.672  20.167  0.00  0.00    +0.000 A 
ATOM     14  C   UNL     1       0.942   7.969  21.423  0.00  0.00    +0.000 A 
ATOM     15  N   UNL     1       0.741   9.261  21.858  0.00  0.00    +0.000 N 
ATOM     16  C   UNL     1       0.409   9.503  23.250  0.00  0.00    +0.000 C 
ATOM     17  C   UNL     1       0.933  10.364  21.033  0.00  0.00    +0.000 A 
ATOM     18  O   UNL     1       0.832  11.528  21.407  0.00  0.00    +0.000 OA
ENDBRANCH   1  13
BRANCH   9  19
ATOM     19  C   UNL     1       3.851   6.351  18.855  0.00  0.00    +0.000 C 
BRANCH  19  20
ATOM     20  C   UNL     1       4.731   6.103  17.665  0.00  0.00    +0.000 A 
ATOM     21  C   UNL     1       4.594   6.685  16.405  0.00  0.00    +0.000 A 
ATOM     22  C   UNL     1       5.422   6.273  15.346  0.00  0.00    +0.000 A 
ATOM     23  C   UNL     1       6.378   5.273  15.541  0.00  0.00    +0.000 A 
ATOM     24 CL   UNL     1       7.348   4.732  14.233  0.00  0.00    +0.000 Cl
ATOM     25  C   UNL     1       6.535   4.697  16.801  0.00  0.00    +0.000 A 
ATOM     26  C   UNL     1       5.719   5.108  17.844  0.00  0.00    +0.000 A 
ENDBRANCH  19  20
ENDBRANCH   9  19
TORSDOF 3
ENDMDL
MODEL 7
REMARK VINA RESULT:      -7.4      3.460      6.328
REMARK  Name = 
REMARK  5 active torsions:
REMARK  status: ('A' for Active; 'I' for Inactive)
REMARK    1  A    between atoms: C_1  and  C_2
REMARK    2  A    between atoms: C_4  and  C_5
REMARK    3  A    between atoms: N_13  and  C_14
REMARK    4  A    between atoms: C_14  and  C_15
REMARK    5  A    between atoms: N_23  and  C_24
REMARK                            x       y       z     vdW  Elec       q    Type
REMARK                         _______ _______ _______ _____ _____    ______ ____
ROOT
ATOM      1  C   UNL     1       2.364   5.832  19.638  0.00  0.00    +0.000 A 
ATOM      2  N   UNL     1       2.503   4.956  20.625  0.00  0.00    +0.000 NA
ATOM      3  C   UNL     1       2.971   3.805  20.048  0.00  0.00    +0.000 A 
ATOM      4  C   UNL     1       3.377   2.592  20.604  0.00  0.00    +0.000 A 
ATOM      5  N   UNL     1       3.678   1.545  19.792  0.00  0.00    +0.000 NA
ATOM      6  C   UNL     1       3.547   1.701  18.450  0.00  0.00    +0.000 A 
ATOM      7  C   UNL     1       3.245   2.895  17.803  0.00  0.00    +0.000 A 
ATOM      8  C   UNL     1       3.035   3.965  18.668  0.00  0.00    +0.000 A 
ATOM      9  N   UNL     1       3.112   5.362  18.542  0.00  0.00    +0.000 N 
ENDROOT
BRANCH   1  13
ATOM     10  C   UNL     1       1.861  10.587  17.898  0.00  0.00    +0.000 C 
ATOM     11  C   UNL     1       1.699   9.491  18.905  0.00  0.00    +0.000 A 
ATOM     12  C   UNL     1       1.961   8.196  18.658  0.00  0.00    +0.000 A 
ATOM     13  C   UNL     1       1.893   7.184  19.702  0.00  0.00    +0.000 A 
ATOM     14  C   UNL     1       1.434   7.569  20.908  0.00  0.00    +0.000 A 
ATOM     15  N   UNL     1       1.098   8.873  21.199  0.00  0.00    +0.000 N 
ATOM     16  C   UNL     1       0.688   9.222  22.547  0.00  0.00    +0.000 C 
ATOM     17  C   UNL     1       1.222   9.900  20.269  0.00  0.00    +0.000 A 
ATOM     18  O   UNL     1       1.000  11.081  20.516  0.00  0.00    +0.000 OA
ENDBRANCH   1  13
BRANCH   9  19
ATOM     19  C   UNL     1       4.466   5.954  18.391  0.00  0.00    +0.000 C 
BRANCH  19  20
ATOM     20  C   UNL     1       5.334   5.560  17.231  0.00  0.00    +0.000 A 
ATOM     21  C   UNL     1       6.597   4.974  17.310  0.00  0.00    +0.000 A 
ATOM     22  C   UNL     1       7.348   4.762  16.142  0.00  0.00    +0.000 A 
ATOM     23  C   UNL     1       6.846   5.147  14.896  0.00  0.00    +0.000 A 
ATOM     24 CL   UNL     1       7.789   4.940  13.477  0.00  0.00    +0.000 Cl
ATOM     25  C   UNL     1       5.577   5.718  14.803  0.00  0.00    +0.000 A 
ATOM     26  C   UNL     1       4.837   5.922  15.958  0.00  0.00    +0.000 A 
ENDBRANCH  19  20
ENDBRANCH   9  19
TORSDOF 3
ENDMDL
MODEL 8
REMARK VINA RESULT:      -7.4      3.353      6.569
REMARK  Name = 
REMARK  5 active torsions:
REMARK  status: ('A' for Active; 'I' for Inactive)
REMARK    1  A    between atoms: C_1  and  C_2
REMARK    2  A    between atoms: C_4  and  C_5
REMARK    3  A    between atoms: N_13  and  C_14
REMARK    4  A    between atoms: C_14  and  C_15
REMARK    5  A    between atoms: N_23  and  C_24
REMARK                            x       y       z     vdW  Elec       q    Type
REMARK                         _______ _______ _______ _____ _____    ______ ____
ROOT
ATOM      1  C   UNL     1       3.910   6.995  17.637  0.00  0.00    +0.000 A 
ATOM      2  N   UNL     1       4.527   7.181  16.477  0.00  0.00    +0.000 NA
ATOM      3  C   UNL     1       5.494   6.213  16.402  0.00  0.00    +0.000 A 
ATOM      4  C   UNL     1       6.384   5.872  15.384  0.00  0.00    +0.000 A 
ATOM      5  N   UNL     1       7.350   4.944  15.614  0.00  0.00    +0.000 NA
ATOM      6  C   UNL     1       7.439   4.389  16.849  0.00  0.00    +0.000 A 
ATOM      7  C   UNL     1       6.542   4.592  17.893  0.00  0.00    +0.000 A 
ATOM      8  C   UNL     1       5.515   5.480  17.584  0.00  0.00    +0.000 A 
ATOM      9  N   UNL     1       4.219   5.697  18.082  0.00  0.00    +0.000 N 
ENDROOT
BRANCH   1  13
ATOM     10  C   UNL     1       0.801  11.011  17.947  0.00  0.00    +0.000 C 
ATOM     11  C   UNL     1       1.370   9.703  18.402  0.00  0.00    +0.000 A 
ATOM     12  C   UNL     1       2.218   8.957  17.673  0.00  0.00    +0.000 A 
ATOM     13  C   UNL     1       2.830   7.747  18.204  0.00  0.00    +0.000 A 
ATOM     14  C   UNL     1       2.421   7.328  19.416  0.00  0.00    +0.000 A 
ATOM     15  N   UNL     1       1.513   8.026  20.182  0.00  0.00    +0.000 N 
ATOM     16  C   UNL     1       1.185   7.549  21.513  0.00  0.00    +0.000 C 
ATOM     17  C   UNL     1       0.957   9.231  19.767  0.00  0.00    +0.000 A 
ATOM     18  O   UNL     1       0.202   9.913  20.452  0.00  0.00    +0.000 OA
ENDBRANCH   1  13
BRANCH   9  19
ATOM     19  C   UNL     1       3.198   4.659  17.785  0.00  0.00    +0.000 C 
BRANCH  19  20
ATOM     20  C   UNL     1       2.520   3.929  18.908  0.00  0.00    +0.000 A 
ATOM     21  C   UNL     1       1.144   3.787  19.084  0.00  0.00    +0.000 A 
ATOM     22  C   UNL     1       0.643   3.174  20.245  0.00  0.00    +0.000 A 
ATOM     23  C   UNL     1       1.514   2.715  21.237  0.00  0.00    +0.000 A 
ATOM     24 CL   UNL     1       0.898   2.019  22.680  0.00  0.00    +0.000 Cl
ATOM     25  C   UNL     1       2.892   2.836  21.063  0.00  0.00    +0.000 A 
ATOM     26  C   UNL     1       3.382   3.438  19.914  0.00  0.00    +0.000 A 
ENDBRANCH  19  20
ENDBRANCH   9  19
TORSDOF 3
ENDMDL
MODEL 9
REMARK VINA RESULT:      -7.3      3.492      6.345
REMARK  Name = 
REMARK  5 active torsions:
REMARK  status: ('A' for Active; 'I' for Inactive)
REMARK    1  A    between atoms: C_1  and  C_2
REMARK    2  A    between atoms: C_4  and  C_5
REMARK    3  A    between atoms: N_13  and  C_14
REMARK    4  A    between atoms: C_14  and  C_15
REMARK    5  A    between atoms: N_23  and  C_24
REMARK                            x       y       z     vdW  Elec       q    Type
REMARK                         _______ _______ _______ _____ _____    ______ ____
ROOT
ATOM      1  C   UNL     1       1.603   6.561  20.056  0.00  0.00    +0.000 A 
ATOM      2  N   UNL     1       1.597   5.841  21.170  0.00  0.00    +0.000 NA
ATOM      3  C   UNL     1       1.869   4.553  20.791  0.00  0.00    +0.000 A 
ATOM      4  C   UNL     1       2.070   3.392  21.537  0.00  0.00    +0.000 A 
ATOM      5  N   UNL     1       2.195   2.196  20.905  0.00  0.00    +0.000 NA
ATOM      6  C   UNL     1       2.091   2.159  19.552  0.00  0.00    +0.000 A 
ATOM      7  C   UNL     1       1.989   3.270  18.720  0.00  0.00    +0.000 A 
ATOM      8  C   UNL     1       1.958   4.482  19.404  0.00  0.00    +0.000 A 
ATOM      9  N   UNL     1       2.263   5.811  19.066  0.00  0.00    +0.000 N 
ENDROOT
BRANCH   1  13
ATOM     10  C   UNL     1       2.257  11.094  17.839  0.00  0.00    +0.000 C 
ATOM     11  C   UNL     1       1.717  10.163  18.880  0.00  0.00    +0.000 A 
ATOM     12  C   UNL     1       1.804   8.824  18.809  0.00  0.00    +0.000 A 
ATOM     13  C   UNL     1       1.361   7.965  19.899  0.00  0.00    +0.000 A 
ATOM     14  C   UNL     1       0.741   8.555  20.938  0.00  0.00    +0.000 A 
ATOM     15  N   UNL     1       0.576   9.920  21.034  0.00  0.00    +0.000 N 
ATOM     16  C   UNL     1      -0.031  10.484  22.226  0.00  0.00    +0.000 C 
ATOM     17  C   UNL     1       1.053  10.798  20.067  0.00  0.00    +0.000 A 
ATOM     18  O   UNL     1       0.986  12.020  20.156  0.00  0.00    +0.000 OA
ENDBRANCH   1  13
BRANCH   9  19
ATOM     19  C   UNL     1       3.696   6.144  18.860  0.00  0.00    +0.000 C 
BRANCH  19  20
ATOM     20  C   UNL     1       4.412   5.659  17.632  0.00  0.00    +0.000 A 
ATOM     21  C   UNL     1       4.993   4.402  17.461  0.00  0.00    +0.000 A 
ATOM     22  C   UNL     1       5.733   4.122  16.300  0.00  0.00    +0.000 A 
ATOM     23  C   UNL     1       5.904   5.099  15.315  0.00  0.00    +0.000 A 
ATOM     24 CL   UNL     1       6.856   4.773  13.925  0.00  0.00    +0.000 Cl
ATOM     25  C   UNL     1       5.313   6.352  15.467  0.00  0.00    +0.000 A 
ATOM     26  C   UNL     1       4.581   6.623  16.613  0.00  0.00    +0.000 A 
ENDBRANCH  19  20
ENDBRANCH   9  19
TORSDOF 3
ENDMDL
