MODEL 1
REMARK VINA RESULT:      -8.1      0.000      0.000
REMARK  Name = 
REMARK  3 active torsions:
REMARK  status: ('A' for Active; 'I' for Inactive)
REMARK    1  A    between atoms: N_3  and  C_4
REMARK    2  A    between atoms: N_10  and  C_11
REMARK    3  A    between atoms: C_19  and  N_20
REMARK                            x       y       z     vdW  Elec       q    Type
REMARK                         _______ _______ _______ _____ _____    ______ ____
ROOT
ATOM      1  C   UNL     1       6.135   6.576  16.892  0.00  0.00    +0.000 A 
ATOM      2  C   UNL     1       6.721   5.476  16.395  0.00  0.00    +0.000 A 
ATOM      3  C   UNL     1       6.110   4.183  16.458  0.00  0.00    +0.000 A 
ATOM      4  C   UNL     1       4.918   4.040  17.042  0.00  0.00    +0.000 A 
ATOM      5  N   UNL     1       4.229   5.128  17.550  0.00  0.00    +0.000 N 
ATOM      6  C   UNL     1       3.005   4.911  18.144  0.00  0.00    +0.000 A 
ATOM      7  O   UNL     1       2.475   3.815  18.324  0.00  0.00    +0.000 OA
ATOM      8  C   UNL     1       2.294   6.112  18.575  0.00  0.00    +0.000 A 
ATOM      9  C   UNL     1       2.835   7.331  18.420  0.00  0.00    +0.000 A 
ATOM     10  N   UNL     1       4.110   7.477  17.920  0.00  0.00    +0.000 NA
ATOM     11  C   UNL     1       4.743   6.421  17.491  0.00  0.00    +0.000 A 
ENDROOT
BRANCH   1  15
ATOM     12  O   UNL     1       8.448   7.435  18.368  0.00  0.00    +0.000 OA
ATOM     13  C   UNL     1       7.780   8.230  17.713  0.00  0.00    +0.000 C 
ATOM     14  N   UNL     1       7.981   9.600  17.729  0.00  0.00    +0.000 N 
ATOM     15  N   UNL     1       6.702   7.844  16.933  0.00  0.00    +0.000 N 
ATOM     16  H   UNL     1       7.266  10.176  17.310  0.00  0.00    +0.000 HD
ATOM     17  H   UNL     1       6.273   8.516  16.305  0.00  0.00    +0.000 HD
BRANCH  14  18
ATOM     18  C   UNL     1       8.939  10.262  18.542  0.00  0.00    +0.000 A 
ATOM     19  C   UNL     1       8.842  10.336  19.937  0.00  0.00    +0.000 A 
ATOM     20  C   UNL     1       9.770  11.059  20.691  0.00  0.00    +0.000 A 
ATOM     21  C   UNL     1      10.822  11.709  20.058  0.00  0.00    +0.000 A 
ATOM     22  C   UNL     1      10.951  11.622  18.674  0.00  0.00    +0.000 A 
ATOM     23  C   UNL     1      10.021  10.894  17.919  0.00  0.00    +0.000 A 
ENDBRANCH  14  18
ENDBRANCH   1  15
BRANCH   9  24
ATOM     24  N   UNL     1       2.098   8.450  18.800  0.00  0.00    +0.000 N 
ATOM     25  C   UNL     1       1.730   8.728  20.196  0.00  0.00    +0.000 C 
ATOM     26  C   UNL     1       0.221   9.031  20.257  0.00  0.00    +0.000 C 
ATOM     27  O   UNL     1      -0.146  10.119  19.388  0.00  0.00    +0.000 OA
ATOM     28  C   UNL     1       0.218   9.824  18.028  0.00  0.00    +0.000 C 
ATOM     29  C   UNL     1       1.724   9.565  17.906  0.00  0.00    +0.000 C 
ENDBRANCH   9  24
TORSDOF 3
ENDMDL
MODEL 2
REMARK VINA RESULT:      -8.0      3.673      7.306
REMARK  Name = 
REMARK  3 active torsions:
REMARK  status: ('A' for Active; 'I' for Inactive)
REMARK    1  A    between atoms: N_3  and  C_4
REMARK    2  A    between atoms: N_10  and  C_11
REMARK    3  A    between atoms: C_19  and  N_20
REMARK                            x       y       z     vdW  Elec       q    Type
REMARK                         _______ _______ _______ _____ _____    ______ ____
ROOT
ATOM      1  C   UNL     1       2.307   5.409  20.264  0.00  0.00    +0.000 A 
ATOM      2  C   UNL     1       1.682   4.756  21.256  0.00  0.00    +0.000 A 
ATOM      3  C   UNL     1       1.640   3.327  21.330  0.00  0.00    +0.000 A 
ATOM      4  C   UNL     1       2.224   2.596  20.379  0.00  0.00    +0.000 A 
ATOM      5  N   UNL     1       2.919   3.189  19.338  0.00  0.00    +0.000 N 
ATOM      6  C   UNL     1       3.494   2.376  18.386  0.00  0.00    +0.000 A 
ATOM      7  O   UNL     1       3.405   1.149  18.335  0.00  0.00    +0.000 OA
ATOM      8  C   UNL     1       4.288   3.063  17.370  0.00  0.00    +0.000 A 
ATOM      9  C   UNL     1       4.403   4.400  17.369  0.00  0.00    +0.000 A 
ATOM     10  N   UNL     1       3.713   5.168  18.281  0.00  0.00    +0.000 NA
ATOM     11  C   UNL     1       3.035   4.571  19.221  0.00  0.00    +0.000 A 
ENDROOT
BRANCH   1  15
ATOM     12  O   UNL     1       0.443   7.346  21.284  0.00  0.00    +0.000 OA
ATOM     13  C   UNL     1       1.364   7.678  20.544  0.00  0.00    +0.000 C 
ATOM     14  N   UNL     1       1.514   8.954  20.027  0.00  0.00    +0.000 N 
ATOM     15  N   UNL     1       2.323   6.788  20.088  0.00  0.00    +0.000 N 
ATOM     16  H   UNL     1       2.187   9.075  19.286  0.00  0.00    +0.000 HD
ATOM     17  H   UNL     1       3.137   7.138  19.596  0.00  0.00    +0.000 HD
BRANCH  14  18
ATOM     18  C   UNL     1       0.597  10.019  20.239  0.00  0.00    +0.000 A 
ATOM     19  C   UNL     1       0.592  10.810  21.395  0.00  0.00    +0.000 A 
ATOM     20  C   UNL     1      -0.373  11.800  21.592  0.00  0.00    +0.000 A 
ATOM     21  C   UNL     1      -1.344  12.024  20.624  0.00  0.00    +0.000 A 
ATOM     22  C   UNL     1      -1.337  11.266  19.455  0.00  0.00    +0.000 A 
ATOM     23  C   UNL     1      -0.366  10.276  19.256  0.00  0.00    +0.000 A 
ENDBRANCH  14  18
ENDBRANCH   1  15
BRANCH   9  24
ATOM     24  N   UNL     1       5.211   5.008  16.410  0.00  0.00    +0.000 N 
ATOM     25  C   UNL     1       5.411   4.449  15.064  0.00  0.00    +0.000 C 
ATOM     26  C   UNL     1       6.922   4.401  14.769  0.00  0.00    +0.000 C 
ATOM     27  O   UNL     1       7.538   5.696  14.901  0.00  0.00    +0.000 OA
ATOM     28  C   UNL     1       7.335   6.220  16.224  0.00  0.00    +0.000 C 
ATOM     29  C   UNL     1       5.841   6.336  16.547  0.00  0.00    +0.000 C 
ENDBRANCH   9  24
TORSDOF 3
ENDMDL
MODEL 3
REMARK VINA RESULT:      -7.8      0.540      1.108
REMARK  Name = 
REMARK  3 active torsions:
REMARK  status: ('A' for Active; 'I' for Inactive)
REMARK    1  A    between atoms: N_3  and  C_4
REMARK    2  A    between atoms: N_10  and  C_11
REMARK    3  A    between atoms: C_19  and  N_20
REMARK                            x       y       z     vdW  Elec       q    Type
REMARK                         _______ _______ _______ _____ _____    ______ ____
ROOT
ATOM      1  C   UNL     1       6.191   6.620  16.995  0.00  0.00    +0.000 A 
ATOM      2  C   UNL     1       6.832   5.519  16.575  0.00  0.00    +0.000 A 
ATOM      3  C   UNL     1       6.246   4.214  16.639  0.00  0.00    +0.000 A 
ATOM      4  C   UNL     1       5.022   4.061  17.146  0.00  0.00    +0.000 A 
ATOM      5  N   UNL     1       4.276   5.148  17.572  0.00  0.00    +0.000 N 
ATOM      6  C   UNL     1       3.020   4.920  18.090  0.00  0.00    +0.000 A 
ATOM      7  O   UNL     1       2.503   3.818  18.269  0.00  0.00    +0.000 OA
ATOM      8  C   UNL     1       2.256   6.117  18.433  0.00  0.00    +0.000 A 
ATOM      9  C   UNL     1       2.780   7.342  18.275  0.00  0.00    +0.000 A 
ATOM     10  N   UNL     1       4.082   7.503  17.857  0.00  0.00    +0.000 NA
ATOM     11  C   UNL     1       4.766   6.450  17.505  0.00  0.00    +0.000 A 
ENDROOT
BRANCH   1  15
ATOM     12  O   UNL     1       8.527   7.522  18.406  0.00  0.00    +0.000 OA
ATOM     13  C   UNL     1       7.818   8.307  17.782  0.00  0.00    +0.000 C 
ATOM     14  N   UNL     1       7.984   9.681  17.808  0.00  0.00    +0.000 N 
ATOM     15  N   UNL     1       6.726   7.902  17.033  0.00  0.00    +0.000 N 
ATOM     16  H   UNL     1       7.242  10.242  17.419  0.00  0.00    +0.000 HD
ATOM     17  H   UNL     1       6.260   8.569  16.428  0.00  0.00    +0.000 HD
BRANCH  14  18
ATOM     18  C   UNL     1       8.951  10.359  18.598  0.00  0.00    +0.000 A 
ATOM     19  C   UNL     1       8.902  10.408  19.996  0.00  0.00    +0.000 A 
ATOM     20  C   UNL     1       9.835  11.147  20.729  0.00  0.00    +0.000 A 
ATOM     21  C   UNL     1      10.843  11.838  20.070  0.00  0.00    +0.000 A 
ATOM     22  C   UNL     1      10.925  11.777  18.681  0.00  0.00    +0.000 A 
ATOM     23  C   UNL     1       9.991  11.033  17.947  0.00  0.00    +0.000 A 
ENDBRANCH  14  18
ENDBRANCH   1  15
BRANCH   9  24
ATOM     24  N   UNL     1       1.995   8.456  18.568  0.00  0.00    +0.000 N 
ATOM     25  C   UNL     1       1.799   9.566  17.624  0.00  0.00    +0.000 C 
ATOM     26  C   UNL     1       2.074  10.892  18.357  0.00  0.00    +0.000 C 
ATOM     27  O   UNL     1       1.249  11.042  19.528  0.00  0.00    +0.000 OA
ATOM     28  C   UNL     1       1.461   9.950  20.439  0.00  0.00    +0.000 C 
ATOM     29  C   UNL     1       1.149   8.607  19.770  0.00  0.00    +0.000 C 
ENDBRANCH   9  24
TORSDOF 3
ENDMDL
MODEL 4
REMARK VINA RESULT:      -7.7      3.012      7.144
REMARK  Name = 
REMARK  3 active torsions:
REMARK  status: ('A' for Active; 'I' for Inactive)
REMARK    1  A    between atoms: N_3  and  C_4
REMARK    2  A    between atoms: N_10  and  C_11
REMARK    3  A    between atoms: C_19  and  N_20
REMARK                            x       y       z     vdW  Elec       q    Type
REMARK                         _______ _______ _______ _____ _____    ______ ____
ROOT
ATOM      1  C   UNL     1       2.002   5.125  20.354  0.00  0.00    +0.000 A 
ATOM      2  C   UNL     1       1.008   4.295  20.710  0.00  0.00    +0.000 A 
ATOM      3  C   UNL     1       0.838   3.002  20.121  0.00  0.00    +0.000 A 
ATOM      4  C   UNL     1       1.678   2.589  19.170  0.00  0.00    +0.000 A 
ATOM      5  N   UNL     1       2.750   3.368  18.767  0.00  0.00    +0.000 N 
ATOM      6  C   UNL     1       3.577   2.885  17.777  0.00  0.00    +0.000 A 
ATOM      7  O   UNL     1       3.423   1.831  17.159  0.00  0.00    +0.000 OA
ATOM      8  C   UNL     1       4.738   3.716  17.467  0.00  0.00    +0.000 A 
ATOM      9  C   UNL     1       4.942   4.883  18.098  0.00  0.00    +0.000 A 
ATOM     10  N   UNL     1       4.021   5.367  19.000  0.00  0.00    +0.000 NA
ATOM     11  C   UNL     1       3.001   4.621  19.321  0.00  0.00    +0.000 A 
ENDROOT
BRANCH   1  15
ATOM     12  O   UNL     1      -0.014   7.033  21.102  0.00  0.00    +0.000 OA
ATOM     13  C   UNL     1       1.177   7.329  21.112  0.00  0.00    +0.000 C 
ATOM     14  N   UNL     1       1.650   8.610  21.341  0.00  0.00    +0.000 N 
ATOM     15  N   UNL     1       2.182   6.419  20.826  0.00  0.00    +0.000 N 
ATOM     16  H   UNL     1       2.623   8.786  21.141  0.00  0.00    +0.000 HD
ATOM     17  H   UNL     1       3.150   6.677  20.984  0.00  0.00    +0.000 HD
BRANCH  14  18
ATOM     18  C   UNL     1       0.822   9.749  21.535  0.00  0.00    +0.000 A 
ATOM     19  C   UNL     1       0.797  10.839  20.656  0.00  0.00    +0.000 A 
ATOM     20  C   UNL     1       0.020  11.969  20.924  0.00  0.00    +0.000 A 
ATOM     21  C   UNL     1      -0.757  12.019  22.075  0.00  0.00    +0.000 A 
ATOM     22  C   UNL     1      -0.767  10.932  22.946  0.00  0.00    +0.000 A 
ATOM     23  C   UNL     1       0.010   9.797  22.674  0.00  0.00    +0.000 A 
ENDBRANCH  14  18
ENDBRANCH   1  15
BRANCH   9  24
ATOM     24  N   UNL     1       6.089   5.617  17.805  0.00  0.00    +0.000 N 
ATOM     25  C   UNL     1       7.424   5.242  18.298  0.00  0.00    +0.000 C 
ATOM     26  C   UNL     1       8.080   6.481  18.935  0.00  0.00    +0.000 C 
ATOM     27  O   UNL     1       8.146   7.589  18.018  0.00  0.00    +0.000 OA
ATOM     28  C   UNL     1       6.832   7.941  17.555  0.00  0.00    +0.000 C 
ATOM     29  C   UNL     1       6.156   6.752  16.863  0.00  0.00    +0.000 C 
ENDBRANCH   9  24
TORSDOF 3
ENDMDL
MODEL 5
REMARK VINA RESULT:      -7.5      3.184      7.221
REMARK  Name = 
REMARK  3 active torsions:
REMARK  status: ('A' for Active; 'I' for Inactive)
REMARK    1  A    between atoms: N_3  and  C_4
REMARK    2  A    between atoms: N_10  and  C_11
REMARK    3  A    between atoms: C_19  and  N_20
REMARK                            x       y       z     vdW  Elec       q    Type
REMARK                         _______ _______ _______ _____ _____    ______ ____
ROOT
ATOM      1  C   UNL     1       2.066   5.265  20.188  0.00  0.00    +0.000 A 
ATOM      2  C   UNL     1       1.084   4.608  20.825  0.00  0.00    +0.000 A 
ATOM      3  C   UNL     1       0.969   3.181  20.799  0.00  0.00    +0.000 A 
ATOM      4  C   UNL     1       1.852   2.457  20.109  0.00  0.00    +0.000 A 
ATOM      5  N   UNL     1       2.916   3.052  19.451  0.00  0.00    +0.000 N 
ATOM      6  C   UNL     1       3.789   2.246  18.753  0.00  0.00    +0.000 A 
ATOM      7  O   UNL     1       3.686   1.029  18.605  0.00  0.00    +0.000 OA
ATOM      8  C   UNL     1       4.937   2.929  18.161  0.00  0.00    +0.000 A 
ATOM      9  C   UNL     1       5.087   4.258  18.277  0.00  0.00    +0.000 A 
ATOM     10  N   UNL     1       4.123   5.026  18.892  0.00  0.00    +0.000 NA
ATOM     11  C   UNL     1       3.114   4.430  19.463  0.00  0.00    +0.000 A 
ENDROOT
BRANCH   1  15
ATOM     12  O   UNL     1       0.281   7.271  21.214  0.00  0.00    +0.000 OA
ATOM     13  C   UNL     1       1.274   7.578  20.559  0.00  0.00    +0.000 C 
ATOM     14  N   UNL     1       1.552   8.868  20.141  0.00  0.00    +0.000 N 
ATOM     15  N   UNL     1       2.194   6.646  20.108  0.00  0.00    +0.000 N 
ATOM     16  H   UNL     1       2.281   8.983  19.454  0.00  0.00    +0.000 HD
ATOM     17  H   UNL     1       3.064   6.963  19.694  0.00  0.00    +0.000 HD
BRANCH  14  18
ATOM     18  C   UNL     1       0.702   9.985  20.364  0.00  0.00    +0.000 A 
ATOM     19  C   UNL     1       0.649  10.678  21.580  0.00  0.00    +0.000 A 
ATOM     20  C   UNL     1      -0.253  11.726  21.779  0.00  0.00    +0.000 A 
ATOM     21  C   UNL     1      -1.110  12.107  20.753  0.00  0.00    +0.000 A 
ATOM     22  C   UNL     1      -1.051  11.447  19.527  0.00  0.00    +0.000 A 
ATOM     23  C   UNL     1      -0.143  10.399  19.328  0.00  0.00    +0.000 A 
ENDBRANCH  14  18
ENDBRANCH   1  15
BRANCH   9  24
ATOM     24  N   UNL     1       6.224   4.858  17.739  0.00  0.00    +0.000 N 
ATOM     25  C   UNL     1       6.991   5.895  18.448  0.00  0.00    +0.000 C 
ATOM     26  C   UNL     1       7.209   7.085  17.495  0.00  0.00    +0.000 C 
ATOM     27  O   UNL     1       7.861   6.686  16.275  0.00  0.00    +0.000 OA
ATOM     28  C   UNL     1       7.092   5.678  15.597  0.00  0.00    +0.000 C 
ATOM     29  C   UNL     1       6.892   4.447  16.488  0.00  0.00    +0.000 C 
ENDBRANCH   9  24
TORSDOF 3
ENDMDL
MODEL 6
REMARK VINA RESULT:      -7.2      6.165     10.413
REMARK  Name = 
REMARK  3 active torsions:
REMARK  status: ('A' for Active; 'I' for Inactive)
REMARK    1  A    between atoms: N_3  and  C_4
REMARK    2  A    between atoms: N_10  and  C_11
REMARK    3  A    between atoms: C_19  and  N_20
REMARK                            x       y       z     vdW  Elec       q    Type
REMARK                         _______ _______ _______ _____ _____    ______ ____
ROOT
ATOM      1  C   UNL     1      -3.995  12.043  18.206  0.00  0.00    +0.000 A 
ATOM      2  C   UNL     1      -4.842  11.898  17.176  0.00  0.00    +0.000 A 
ATOM      3  C   UNL     1      -6.264  11.948  17.335  0.00  0.00    +0.000 A 
ATOM      4  C   UNL     1      -6.789  12.129  18.549  0.00  0.00    +0.000 A 
ATOM      5  N   UNL     1      -5.987  12.320  19.661  0.00  0.00    +0.000 N 
ATOM      6  C   UNL     1      -6.594  12.496  20.885  0.00  0.00    +0.000 A 
ATOM      7  O   UNL     1      -7.803  12.444  21.105  0.00  0.00    +0.000 OA
ATOM      8  C   UNL     1      -5.691  12.784  21.998  0.00  0.00    +0.000 A 
ATOM      9  C   UNL     1      -4.362  12.833  21.816  0.00  0.00    +0.000 A 
ATOM     10  N   UNL     1      -3.807  12.539  20.591  0.00  0.00    +0.000 NA
ATOM     11  C   UNL     1      -4.597  12.322  19.577  0.00  0.00    +0.000 A 
ENDROOT
BRANCH   1  15
ATOM     12  O   UNL     1      -2.405   9.651  18.323  0.00  0.00    +0.000 OA
ATOM     13  C   UNL     1      -1.881  10.760  18.264  0.00  0.00    +0.000 C 
ATOM     14  N   UNL     1      -0.519  10.975  18.386  0.00  0.00    +0.000 N 
ATOM     15  N   UNL     1      -2.611  11.930  18.136  0.00  0.00    +0.000 N 
ATOM     16  H   UNL     1      -0.213  11.928  18.514  0.00  0.00    +0.000 HD
ATOM     17  H   UNL     1      -2.128  12.803  17.953  0.00  0.00    +0.000 HD
BRANCH  14  18
ATOM     18  C   UNL     1       0.435   9.956  18.650  0.00  0.00    +0.000 A 
ATOM     19  C   UNL     1       1.207   9.349  17.651  0.00  0.00    +0.000 A 
ATOM     20  C   UNL     1       2.081   8.301  17.946  0.00  0.00    +0.000 A 
ATOM     21  C   UNL     1       2.207   7.851  19.255  0.00  0.00    +0.000 A 
ATOM     22  C   UNL     1       1.469   8.462  20.266  0.00  0.00    +0.000 A 
ATOM     23  C   UNL     1       0.594   9.516  19.969  0.00  0.00    +0.000 A 
ENDBRANCH  14  18
ENDBRANCH   1  15
BRANCH   9  24
ATOM     24  N   UNL     1      -3.545  13.161  22.896  0.00  0.00    +0.000 N 
ATOM     25  C   UNL     1      -4.026  13.923  24.059  0.00  0.00    +0.000 C 
ATOM     26  C   UNL     1      -3.044  15.078  24.332  0.00  0.00    +0.000 C 
ATOM     27  O   UNL     1      -1.697  14.606  24.528  0.00  0.00    +0.000 OA
ATOM     28  C   UNL     1      -1.247  13.870  23.378  0.00  0.00    +0.000 C 
ATOM     29  C   UNL     1      -2.165  12.675  23.096  0.00  0.00    +0.000 C 
ENDBRANCH   9  24
TORSDOF 3
ENDMDL
MODEL 7
REMARK VINA RESULT:      -7.2      4.138      7.279
REMARK  Name = 
REMARK  3 active torsions:
REMARK  status: ('A' for Active; 'I' for Inactive)
REMARK    1  A    between atoms: N_3  and  C_4
REMARK    2  A    between atoms: N_10  and  C_11
REMARK    3  A    between atoms: C_19  and  N_20
REMARK                            x       y       z     vdW  Elec       q    Type
REMARK                         _______ _______ _______ _____ _____    ______ ____
ROOT
ATOM      1  C   UNL     1       2.296   5.394  20.317  0.00  0.00    +0.000 A 
ATOM      2  C   UNL     1       1.580   4.746  21.249  0.00  0.00    +0.000 A 
ATOM      3  C   UNL     1       1.526   3.318  21.324  0.00  0.00    +0.000 A 
ATOM      4  C   UNL     1       2.193   2.581  20.433  0.00  0.00    +0.000 A 
ATOM      5  N   UNL     1       2.983   3.168  19.459  0.00  0.00    +0.000 N 
ATOM      6  C   UNL     1       3.642   2.349  18.568  0.00  0.00    +0.000 A 
ATOM      7  O   UNL     1       3.553   1.123  18.513  0.00  0.00    +0.000 OA
ATOM      8  C   UNL     1       4.528   3.030  17.627  0.00  0.00    +0.000 A 
ATOM      9  C   UNL     1       4.647   4.367  17.632  0.00  0.00    +0.000 A 
ATOM     10  N   UNL     1       3.879   5.141  18.473  0.00  0.00    +0.000 NA
ATOM     11  C   UNL     1       3.114   4.550  19.349  0.00  0.00    +0.000 A 
ENDROOT
BRANCH   1  15
ATOM     12  O   UNL     1       0.372   7.344  21.188  0.00  0.00    +0.000 OA
ATOM     13  C   UNL     1       1.348   7.669  20.518  0.00  0.00    +0.000 C 
ATOM     14  N   UNL     1       1.544   8.942  20.011  0.00  0.00    +0.000 N 
ATOM     15  N   UNL     1       2.333   6.771  20.139  0.00  0.00    +0.000 N 
ATOM     16  H   UNL     1       2.271   9.057  19.322  0.00  0.00    +0.000 HD
ATOM     17  H   UNL     1       3.184   7.116  19.708  0.00  0.00    +0.000 HD
BRANCH  14  18
ATOM     18  C   UNL     1       0.620  10.012  20.150  0.00  0.00    +0.000 A 
ATOM     19  C   UNL     1      -0.394  10.277  19.220  0.00  0.00    +0.000 A 
ATOM     20  C   UNL     1      -1.235  11.384  19.360  0.00  0.00    +0.000 A 
ATOM     21  C   UNL     1      -1.082  12.238  20.445  0.00  0.00    +0.000 A 
ATOM     22  C   UNL     1      -0.097  11.975  21.394  0.00  0.00    +0.000 A 
ATOM     23  C   UNL     1       0.744  10.862  21.255  0.00  0.00    +0.000 A 
ENDBRANCH  14  18
ENDBRANCH   1  15
BRANCH   9  24
ATOM     24  N   UNL     1       5.543   4.968  16.750  0.00  0.00    +0.000 N 
ATOM     25  C   UNL     1       5.289   6.273  16.120  0.00  0.00    +0.000 C 
ATOM     26  C   UNL     1       5.530   6.145  14.604  0.00  0.00    +0.000 C 
ATOM     27  O   UNL     1       6.854   5.663  14.307  0.00  0.00    +0.000 OA
ATOM     28  C   UNL     1       7.077   4.385  14.927  0.00  0.00    +0.000 C 
ATOM     29  C   UNL     1       6.900   4.473  16.447  0.00  0.00    +0.000 C 
ENDBRANCH   9  24
TORSDOF 3
ENDMDL
MODEL 8
REMARK VINA RESULT:      -7.2      3.065      6.857
REMARK  Name = 
REMARK  3 active torsions:
REMARK  status: ('A' for Active; 'I' for Inactive)
REMARK    1  A    between atoms: N_3  and  C_4
REMARK    2  A    between atoms: N_10  and  C_11
REMARK    3  A    between atoms: C_19  and  N_20
REMARK                            x       y       z     vdW  Elec       q    Type
REMARK                         _______ _______ _______ _____ _____    ______ ____
ROOT
ATOM      1  C   UNL     1       1.990   5.310  19.597  0.00  0.00    +0.000 A 
ATOM      2  C   UNL     1       1.068   4.800  20.428  0.00  0.00    +0.000 A 
ATOM      3  C   UNL     1       1.277   3.588  21.161  0.00  0.00    +0.000 A 
ATOM      4  C   UNL     1       2.420   2.915  21.016  0.00  0.00    +0.000 A 
ATOM      5  N   UNL     1       3.439   3.387  20.205  0.00  0.00    +0.000 N 
ATOM      6  C   UNL     1       4.591   2.640  20.097  0.00  0.00    +0.000 A 
ATOM      7  O   UNL     1       4.790   1.542  20.615  0.00  0.00    +0.000 OA
ATOM      8  C   UNL     1       5.657   3.243  19.299  0.00  0.00    +0.000 A 
ATOM      9  C   UNL     1       5.484   4.429  18.696  0.00  0.00    +0.000 A 
ATOM     10  N   UNL     1       4.270   5.077  18.750  0.00  0.00    +0.000 NA
ATOM     11  C   UNL     1       3.322   4.577  19.491  0.00  0.00    +0.000 A 
ENDROOT
BRANCH   1  15
ATOM     12  O   UNL     1       1.984   8.068  20.407  0.00  0.00    +0.000 OA
ATOM     13  C   UNL     1       1.763   7.746  19.243  0.00  0.00    +0.000 C 
ATOM     14  N   UNL     1       1.361   8.637  18.262  0.00  0.00    +0.000 N 
ATOM     15  N   UNL     1       1.825   6.436  18.799  0.00  0.00    +0.000 N 
ATOM     16  H   UNL     1       1.024   8.247  17.395  0.00  0.00    +0.000 HD
ATOM     17  H   UNL     1       1.771   6.241  17.806  0.00  0.00    +0.000 HD
BRANCH  14  18
ATOM     18  C   UNL     1       1.101  10.016  18.486  0.00  0.00    +0.000 A 
ATOM     19  C   UNL     1       2.063  11.018  18.309  0.00  0.00    +0.000 A 
ATOM     20  C   UNL     1       1.784  12.353  18.611  0.00  0.00    +0.000 A 
ATOM     21  C   UNL     1       0.527  12.708  19.083  0.00  0.00    +0.000 A 
ATOM     22  C   UNL     1      -0.452  11.729  19.238  0.00  0.00    +0.000 A 
ATOM     23  C   UNL     1      -0.172  10.391  18.932  0.00  0.00    +0.000 A 
ENDBRANCH  14  18
ENDBRANCH   1  15
BRANCH   9  24
ATOM     24  N   UNL     1       6.546   4.988  17.988  0.00  0.00    +0.000 N 
ATOM     25  C   UNL     1       7.381   6.073  18.525  0.00  0.00    +0.000 C 
ATOM     26  C   UNL     1       7.479   7.189  17.468  0.00  0.00    +0.000 C 
ATOM     27  O   UNL     1       7.989   6.700  16.213  0.00  0.00    +0.000 OA
ATOM     28  C   UNL     1       7.155   5.645  15.705  0.00  0.00    +0.000 C 
ATOM     29  C   UNL     1       7.069   4.484  16.702  0.00  0.00    +0.000 C 
ENDBRANCH   9  24
TORSDOF 3
ENDMDL
MODEL 9
REMARK VINA RESULT:      -7.1      4.267      8.383
REMARK  Name = 
REMARK  3 active torsions:
REMARK  status: ('A' for Active; 'I' for Inactive)
REMARK    1  A    between atoms: N_3  and  C_4
REMARK    2  A    between atoms: N_10  and  C_11
REMARK    3  A    between atoms: C_19  and  N_20
REMARK                            x       y       z     vdW  Elec       q    Type
REMARK                         _______ _______ _______ _____ _____    ______ ____
ROOT
ATOM      1  C   UNL     1      10.145  11.917  18.477  0.00  0.00    +0.000 A 
ATOM      2  C   UNL     1      11.386  11.568  18.850  0.00  0.00    +0.000 A 
ATOM      3  C   UNL     1      12.333  12.516  19.356  0.00  0.00    +0.000 A 
ATOM      4  C   UNL     1      11.994  13.803  19.457  0.00  0.00    +0.000 A 
ATOM      5  N   UNL     1      10.723  14.242  19.127  0.00  0.00    +0.000 N 
ATOM      6  C   UNL     1      10.441  15.585  19.249  0.00  0.00    +0.000 A 
ATOM      7  O   UNL     1      11.239  16.463  19.577  0.00  0.00    +0.000 OA
ATOM      8  C   UNL     1       9.057  15.964  18.972  0.00  0.00    +0.000 A 
ATOM      9  C   UNL     1       8.152  15.048  18.593  0.00  0.00    +0.000 A 
ATOM     10  N   UNL     1       8.520  13.738  18.380  0.00  0.00    +0.000 NA
ATOM     11  C   UNL     1       9.739  13.373  18.663  0.00  0.00    +0.000 A 
ENDROOT
BRANCH   1  15
ATOM     12  O   UNL     1       9.070   9.483  19.565  0.00  0.00    +0.000 OA
ATOM     13  C   UNL     1       8.763   9.867  18.440  0.00  0.00    +0.000 C 
ATOM     14  N   UNL     1       8.004   9.122  17.553  0.00  0.00    +0.000 N 
ATOM     15  N   UNL     1       9.204  11.068  17.908  0.00  0.00    +0.000 N 
ATOM     16  H   UNL     1       7.969   9.441  16.596  0.00  0.00    +0.000 HD
ATOM     17  H   UNL     1       8.812  11.402  17.035  0.00  0.00    +0.000 HD
BRANCH  14  18
ATOM     18  C   UNL     1       7.534   7.806  17.806  0.00  0.00    +0.000 A 
ATOM     19  C   UNL     1       8.176   6.916  18.677  0.00  0.00    +0.000 A 
ATOM     20  C   UNL     1       7.719   5.606  18.841  0.00  0.00    +0.000 A 
ATOM     21  C   UNL     1       6.600   5.169  18.143  0.00  0.00    +0.000 A 
ATOM     22  C   UNL     1       5.932   6.049  17.295  0.00  0.00    +0.000 A 
ATOM     23  C   UNL     1       6.389   7.364  17.133  0.00  0.00    +0.000 A 
ENDBRANCH  14  18
ENDBRANCH   1  15
BRANCH   9  24
ATOM     24  N   UNL     1       6.833  15.448  18.388  0.00  0.00    +0.000 N 
ATOM     25  C   UNL     1       6.363  16.817  18.651  0.00  0.00    +0.000 C 
ATOM     26  C   UNL     1       5.089  16.744  19.514  0.00  0.00    +0.000 C 
ATOM     27  O   UNL     1       4.064  15.943  18.896  0.00  0.00    +0.000 OA
ATOM     28  C   UNL     1       4.543  14.609  18.654  0.00  0.00    +0.000 C 
ATOM     29  C   UNL     1       5.784  14.625  17.753  0.00  0.00    +0.000 C 
ENDBRANCH   9  24
TORSDOF 3
ENDMDL
