MODEL 1
REMARK VINA RESULT:      -7.1      0.000      0.000
REMARK  Name = 
REMARK  8 active torsions:
REMARK  status: ('A' for Active; 'I' for Inactive)
REMARK    1  A    between atoms: C_1  and  C_2
REMARK    2  A    between atoms: C_2  and  O_3
REMARK    3  A    between atoms: O_3  and  C_4
REMARK    4  A    between atoms: C_7  and  C_8
REMARK    5  A    between atoms: C_16  and  C_17
REMARK    6  A    between atoms: C_16  and  C_19
REMARK    7  A    between atoms: C_17  and  C_18
REMARK    8  A    between atoms: C_19  and  C_20
REMARK                            x       y       z     vdW  Elec       q    Type
REMARK                         _______ _______ _______ _____ _____    ______ ____
ROOT
ATOM      1  C   UNL     1       5.158   4.550  18.905  0.00  0.00    +0.000 C 
ATOM      2  N   UNL     1       4.620   3.236  19.251  0.00  0.00    +0.000 N 
ATOM      3  C   UNL     1       3.574   3.243  20.174  0.00  0.00    +0.000 A 
ATOM      4  C   UNL     1       3.459   2.165  21.062  0.00  0.00    +0.000 A 
ATOM      5  C   UNL     1       2.357   2.058  21.902  0.00  0.00    +0.000 A 
ATOM      6  C   UNL     1       1.322   2.980  21.780  0.00  0.00    +0.000 A 
ATOM      7  C   UNL     1       1.423   4.037  20.864  0.00  0.00    +0.000 A 
ATOM      8  C   UNL     1       2.575   4.214  20.082  0.00  0.00    +0.000 A 
ATOM      9  C   UNL     1       2.886   5.464  19.263  0.00  0.00    +0.000 C 
ATOM     10  O   UNL     1       4.327   5.662  19.240  0.00  0.00    +0.000 OA
ATOM     11  H   UNL     1       4.238   2.807  18.409  0.00  0.00    +0.000 HD
ENDROOT
BRANCH   1  15
ATOM     12  C   UNL     1       6.621   4.572  14.790  0.00  0.00    +0.000 A 
ATOM     13  C   UNL     1       5.598   3.702  15.169  0.00  0.00    +0.000 A 
ATOM     14  C   UNL     1       5.115   3.691  16.483  0.00  0.00    +0.000 A 
ATOM     15  C   UNL     1       5.681   4.521  17.461  0.00  0.00    +0.000 A 
ATOM     16  C   UNL     1       6.731   5.377  17.062  0.00  0.00    +0.000 A 
ATOM     17  C   UNL     1       7.209   5.391  15.747  0.00  0.00    +0.000 A 
BRANCH  12  18
ATOM     18  O   UNL     1       6.965   4.536  13.467  0.00  0.00    +0.000 OA
BRANCH  18  20
ATOM     19  C   UNL     1       7.094   3.035  11.619  0.00  0.00    +0.000 C 
ATOM     20  C   UNL     1       6.172   3.685  12.636  0.00  0.00    +0.000 C 
ENDBRANCH  18  20
ENDBRANCH  12  18
ENDBRANCH   1  15
BRANCH   9  21
ATOM     21  C   UNL     1       2.325   6.738  19.985  0.00  0.00    +0.000 C 
ATOM     22  C   UNL     1       2.116   7.956  19.078  0.00  0.00    +0.000 C 
ENDBRANCH   9  21
BRANCH   9  23
ATOM     23  C   UNL     1       2.452   5.503  17.771  0.00  0.00    +0.000 C 
ATOM     24  C   UNL     1       1.517   4.463  17.193  0.00  0.00    +0.000 C 
ENDBRANCH   9  23
TORSDOF 5
ENDMDL
MODEL 2
REMARK VINA RESULT:      -6.9      0.244      1.019
REMARK  Name = 
REMARK  8 active torsions:
REMARK  status: ('A' for Active; 'I' for Inactive)
REMARK    1  A    between atoms: C_1  and  C_2
REMARK    2  A    between atoms: C_2  and  O_3
REMARK    3  A    between atoms: O_3  and  C_4
REMARK    4  A    between atoms: C_7  and  C_8
REMARK    5  A    between atoms: C_16  and  C_17
REMARK    6  A    between atoms: C_16  and  C_19
REMARK    7  A    between atoms: C_17  and  C_18
REMARK    8  A    between atoms: C_19  and  C_20
REMARK                            x       y       z     vdW  Elec       q    Type
REMARK                         _______ _______ _______ _____ _____    ______ ____
ROOT
ATOM      1  C   UNL     1       5.157   4.557  18.721  0.00  0.00    +0.000 C 
ATOM      2  N   UNL     1       4.620   3.248  19.089  0.00  0.00    +0.000 N 
ATOM      3  C   UNL     1       3.621   3.265  20.063  0.00  0.00    +0.000 A 
ATOM      4  C   UNL     1       3.536   2.184  20.951  0.00  0.00    +0.000 A 
ATOM      5  C   UNL     1       2.477   2.088  21.845  0.00  0.00    +0.000 A 
ATOM      6  C   UNL     1       1.449   3.024  21.778  0.00  0.00    +0.000 A 
ATOM      7  C   UNL     1       1.517   4.083  20.862  0.00  0.00    +0.000 A 
ATOM      8  C   UNL     1       2.631   4.249  20.024  0.00  0.00    +0.000 A 
ATOM      9  C   UNL     1       2.917   5.498  19.195  0.00  0.00    +0.000 C 
ATOM     10  O   UNL     1       4.358   5.678  19.101  0.00  0.00    +0.000 OA
ATOM     11  H   UNL     1       4.191   2.828  18.265  0.00  0.00    +0.000 HD
ENDROOT
BRANCH   1  15
ATOM     12  C   UNL     1       6.437   4.365  14.550  0.00  0.00    +0.000 A 
ATOM     13  C   UNL     1       7.204   5.052  15.491  0.00  0.00    +0.000 A 
ATOM     14  C   UNL     1       6.808   5.114  16.833  0.00  0.00    +0.000 A 
ATOM     15  C   UNL     1       5.607   4.527  17.252  0.00  0.00    +0.000 A 
ATOM     16  C   UNL     1       4.834   3.856  16.279  0.00  0.00    +0.000 A 
ATOM     17  C   UNL     1       5.232   3.790  14.940  0.00  0.00    +0.000 A 
BRANCH  12  18
ATOM     18  O   UNL     1       6.956   4.320  13.285  0.00  0.00    +0.000 OA
BRANCH  18  20
ATOM     19  C   UNL     1       7.132   2.678  11.566  0.00  0.00    +0.000 C 
ATOM     20  C   UNL     1       6.188   3.600  12.318  0.00  0.00    +0.000 C 
ENDBRANCH  18  20
ENDBRANCH  12  18
ENDBRANCH   1  15
BRANCH   9  21
ATOM     21  C   UNL     1       2.410   6.776  19.949  0.00  0.00    +0.000 C 
ATOM     22  C   UNL     1       2.101   7.977  19.048  0.00  0.00    +0.000 C 
ENDBRANCH   9  21
BRANCH   9  23
ATOM     23  C   UNL     1       2.411   5.548  17.727  0.00  0.00    +0.000 C 
ATOM     24  C   UNL     1       1.397   4.552  17.206  0.00  0.00    +0.000 C 
ENDBRANCH   9  23
TORSDOF 5
ENDMDL
MODEL 3
REMARK VINA RESULT:      -6.8      2.373      6.860
REMARK  Name = 
REMARK  8 active torsions:
REMARK  status: ('A' for Active; 'I' for Inactive)
REMARK    1  A    between atoms: C_1  and  C_2
REMARK    2  A    between atoms: C_2  and  O_3
REMARK    3  A    between atoms: O_3  and  C_4
REMARK    4  A    between atoms: C_7  and  C_8
REMARK    5  A    between atoms: C_16  and  C_17
REMARK    6  A    between atoms: C_16  and  C_19
REMARK    7  A    between atoms: C_17  and  C_18
REMARK    8  A    between atoms: C_19  and  C_20
REMARK                            x       y       z     vdW  Elec       q    Type
REMARK                         _______ _______ _______ _____ _____    ______ ____
ROOT
ATOM      1  C   UNL     1       4.050   6.471  18.660  0.00  0.00    +0.000 C 
ATOM      2  N   UNL     1       4.573   6.765  17.328  0.00  0.00    +0.000 N 
ATOM      3  C   UNL     1       5.167   5.689  16.669  0.00  0.00    +0.000 A 
ATOM      4  C   UNL     1       6.242   5.944  15.807  0.00  0.00    +0.000 A 
ATOM      5  C   UNL     1       6.774   4.927  15.023  0.00  0.00    +0.000 A 
ATOM      6  C   UNL     1       6.161   3.678  15.029  0.00  0.00    +0.000 A 
ATOM      7  C   UNL     1       5.061   3.436  15.864  0.00  0.00    +0.000 A 
ATOM      8  C   UNL     1       4.578   4.425  16.736  0.00  0.00    +0.000 A 
ATOM      9  C   UNL     1       3.572   4.179  17.858  0.00  0.00    +0.000 C 
ATOM     10  O   UNL     1       3.866   5.086  18.957  0.00  0.00    +0.000 OA
ATOM     11  H   UNL     1       3.800   7.059  16.731  0.00  0.00    +0.000 HD
ENDROOT
BRANCH   1  15
ATOM     12  C   UNL     1       0.681   9.136  19.451  0.00  0.00    +0.000 A 
ATOM     13  C   UNL     1       1.087   8.210  20.412  0.00  0.00    +0.000 A 
ATOM     14  C   UNL     1       2.170   7.355  20.174  0.00  0.00    +0.000 A 
ATOM     15  C   UNL     1       2.843   7.378  18.944  0.00  0.00    +0.000 A 
ATOM     16  C   UNL     1       2.402   8.307  17.977  0.00  0.00    +0.000 A 
ATOM     17  C   UNL     1       1.323   9.164  18.218  0.00  0.00    +0.000 A 
BRANCH  12  18
ATOM     18  O   UNL     1      -0.347   9.958  19.822  0.00  0.00    +0.000 OA
BRANCH  18  20
ATOM     19  C   UNL     1      -2.046  10.577  18.268  0.00  0.00    +0.000 C 
ATOM     20  C   UNL     1      -0.712  10.969  18.879  0.00  0.00    +0.000 C 
ENDBRANCH  18  20
ENDBRANCH  12  18
ENDBRANCH   1  15
BRANCH   9  21
ATOM     21  C   UNL     1       3.777   2.747  18.464  0.00  0.00    +0.000 C 
ATOM     22  C   UNL     1       4.383   2.723  19.872  0.00  0.00    +0.000 C 
ENDBRANCH   9  21
BRANCH   9  23
ATOM     23  C   UNL     1       2.061   4.386  17.560  0.00  0.00    +0.000 C 
ATOM     24  C   UNL     1       0.994   3.658  18.348  0.00  0.00    +0.000 C 
ENDBRANCH   9  23
TORSDOF 5
ENDMDL
MODEL 4
REMARK VINA RESULT:      -6.8      2.391      7.151
REMARK  Name = 
REMARK  8 active torsions:
REMARK  status: ('A' for Active; 'I' for Inactive)
REMARK    1  A    between atoms: C_1  and  C_2
REMARK    2  A    between atoms: C_2  and  O_3
REMARK    3  A    between atoms: O_3  and  C_4
REMARK    4  A    between atoms: C_7  and  C_8
REMARK    5  A    between atoms: C_16  and  C_17
REMARK    6  A    between atoms: C_16  and  C_19
REMARK    7  A    between atoms: C_17  and  C_18
REMARK    8  A    between atoms: C_19  and  C_20
REMARK                            x       y       z     vdW  Elec       q    Type
REMARK                         _______ _______ _______ _____ _____    ______ ____
ROOT
ATOM      1  C   UNL     1       3.983   6.308  18.891  0.00  0.00    +0.000 C 
ATOM      2  N   UNL     1       4.432   6.701  17.558  0.00  0.00    +0.000 N 
ATOM      3  C   UNL     1       4.995   5.681  16.792  0.00  0.00    +0.000 A 
ATOM      4  C   UNL     1       6.021   6.006  15.894  0.00  0.00    +0.000 A 
ATOM      5  C   UNL     1       6.514   5.053  15.012  0.00  0.00    +0.000 A 
ATOM      6  C   UNL     1       5.909   3.801  14.961  0.00  0.00    +0.000 A 
ATOM      7  C   UNL     1       4.857   3.490  15.834  0.00  0.00    +0.000 A 
ATOM      8  C   UNL     1       4.417   4.409  16.800  0.00  0.00    +0.000 A 
ATOM      9  C   UNL     1       3.474   4.075  17.953  0.00  0.00    +0.000 C 
ATOM     10  O   UNL     1       3.822   4.904  19.097  0.00  0.00    +0.000 OA
ATOM     11  H   UNL     1       3.627   7.031  17.025  0.00  0.00    +0.000 HD
ENDROOT
BRANCH   1  15
ATOM     12  C   UNL     1       0.651   8.879  20.059  0.00  0.00    +0.000 A 
ATOM     13  C   UNL     1       1.053   7.830  20.885  0.00  0.00    +0.000 A 
ATOM     14  C   UNL     1       2.125   7.003  20.525  0.00  0.00    +0.000 A 
ATOM     15  C   UNL     1       2.788   7.182  19.304  0.00  0.00    +0.000 A 
ATOM     16  C   UNL     1       2.350   8.236  18.472  0.00  0.00    +0.000 A 
ATOM     17  C   UNL     1       1.283   9.064  18.834  0.00  0.00    +0.000 A 
BRANCH  12  18
ATOM     18  O   UNL     1      -0.365   9.655  20.544  0.00  0.00    +0.000 OA
BRANCH  18  20
ATOM     19  C   UNL     1      -0.718  10.340  22.800  0.00  0.00    +0.000 C 
ATOM     20  C   UNL     1       0.008  10.649  21.502  0.00  0.00    +0.000 C 
ENDBRANCH  18  20
ENDBRANCH  12  18
ENDBRANCH   1  15
BRANCH   9  21
ATOM     21  C   UNL     1       3.719   2.605  18.443  0.00  0.00    +0.000 C 
ATOM     22  C   UNL     1       4.315   2.485  19.850  0.00  0.00    +0.000 C 
ENDBRANCH   9  21
BRANCH   9  23
ATOM     23  C   UNL     1       1.949   4.289  17.752  0.00  0.00    +0.000 C 
ATOM     24  C   UNL     1       0.929   3.541  18.584  0.00  0.00    +0.000 C 
ENDBRANCH   9  23
TORSDOF 5
ENDMDL
MODEL 5
REMARK VINA RESULT:      -6.7      2.396      6.814
REMARK  Name = 
REMARK  8 active torsions:
REMARK  status: ('A' for Active; 'I' for Inactive)
REMARK    1  A    between atoms: C_1  and  C_2
REMARK    2  A    between atoms: C_2  and  O_3
REMARK    3  A    between atoms: O_3  and  C_4
REMARK    4  A    between atoms: C_7  and  C_8
REMARK    5  A    between atoms: C_16  and  C_17
REMARK    6  A    between atoms: C_16  and  C_19
REMARK    7  A    between atoms: C_17  and  C_18
REMARK    8  A    between atoms: C_19  and  C_20
REMARK                            x       y       z     vdW  Elec       q    Type
REMARK                         _______ _______ _______ _____ _____    ______ ____
ROOT
ATOM      1  C   UNL     1       4.113   6.597  18.493  0.00  0.00    +0.000 C 
ATOM      2  N   UNL     1       4.591   6.834  17.133  0.00  0.00    +0.000 N 
ATOM      3  C   UNL     1       5.160   5.730  16.499  0.00  0.00    +0.000 A 
ATOM      4  C   UNL     1       6.205   5.946  15.590  0.00  0.00    +0.000 A 
ATOM      5  C   UNL     1       6.708   4.897  14.832  0.00  0.00    +0.000 A 
ATOM      6  C   UNL     1       6.095   3.650  14.911  0.00  0.00    +0.000 A 
ATOM      7  C   UNL     1       5.024   3.445  15.793  0.00  0.00    +0.000 A 
ATOM      8  C   UNL     1       4.573   4.471  16.640  0.00  0.00    +0.000 A 
ATOM      9  C   UNL     1       3.606   4.274  17.804  0.00  0.00    +0.000 C 
ATOM     10  O   UNL     1       3.938   5.226  18.854  0.00  0.00    +0.000 OA
ATOM     11  H   UNL     1       3.798   7.105  16.551  0.00  0.00    +0.000 HD
ENDROOT
BRANCH   1  15
ATOM     12  C   UNL     1       0.653   9.129  19.326  0.00  0.00    +0.000 A 
ATOM     13  C   UNL     1       1.331   9.240  18.111  0.00  0.00    +0.000 A 
ATOM     14  C   UNL     1       2.437   8.428  17.830  0.00  0.00    +0.000 A 
ATOM     15  C   UNL     1       2.917   7.518  18.781  0.00  0.00    +0.000 A 
ATOM     16  C   UNL     1       2.231   7.438  20.012  0.00  0.00    +0.000 A 
ATOM     17  C   UNL     1       1.123   8.245  20.291  0.00  0.00    +0.000 A 
BRANCH  12  18
ATOM     18  O   UNL     1      -0.448   9.928  19.461  0.00  0.00    +0.000 OA
BRANCH  18  20
ATOM     19  C   UNL     1      -2.275  10.080  17.938  0.00  0.00    +0.000 C 
ATOM     20  C   UNL     1      -0.887  10.596  18.276  0.00  0.00    +0.000 C 
ENDBRANCH  18  20
ENDBRANCH  12  18
ENDBRANCH   1  15
BRANCH   9  21
ATOM     21  C   UNL     1       3.831   2.868  18.463  0.00  0.00    +0.000 C 
ATOM     22  C   UNL     1       4.392   2.906  19.888  0.00  0.00    +0.000 C 
ENDBRANCH   9  21
BRANCH   9  23
ATOM     23  C   UNL     1       2.086   4.472  17.550  0.00  0.00    +0.000 C 
ATOM     24  C   UNL     1       1.047   3.704  18.338  0.00  0.00    +0.000 C 
ENDBRANCH   9  23
TORSDOF 5
ENDMDL
MODEL 6
REMARK VINA RESULT:      -6.5      2.630      7.140
REMARK  Name = 
REMARK  8 active torsions:
REMARK  status: ('A' for Active; 'I' for Inactive)
REMARK    1  A    between atoms: C_1  and  C_2
REMARK    2  A    between atoms: C_2  and  O_3
REMARK    3  A    between atoms: O_3  and  C_4
REMARK    4  A    between atoms: C_7  and  C_8
REMARK    5  A    between atoms: C_16  and  C_17
REMARK    6  A    between atoms: C_16  and  C_19
REMARK    7  A    between atoms: C_17  and  C_18
REMARK    8  A    between atoms: C_19  and  C_20
REMARK                            x       y       z     vdW  Elec       q    Type
REMARK                         _______ _______ _______ _____ _____    ______ ____
ROOT
ATOM      1  C   UNL     1       3.743   7.174  18.644  0.00  0.00    +0.000 C 
ATOM      2  N   UNL     1       3.969   7.085  17.203  0.00  0.00    +0.000 N 
ATOM      3  C   UNL     1       4.612   5.926  16.770  0.00  0.00    +0.000 A 
ATOM      4  C   UNL     1       5.462   6.008  15.658  0.00  0.00    +0.000 A 
ATOM      5  C   UNL     1       6.013   4.858  15.106  0.00  0.00    +0.000 A 
ATOM      6  C   UNL     1       5.631   3.617  15.606  0.00  0.00    +0.000 A 
ATOM      7  C   UNL     1       4.750   3.536  16.695  0.00  0.00    +0.000 A 
ATOM      8  C   UNL     1       4.267   4.692  17.327  0.00  0.00    +0.000 A 
ATOM      9  C   UNL     1       3.528   4.709  18.663  0.00  0.00    +0.000 C 
ATOM     10  O   UNL     1       3.851   5.944  19.361  0.00  0.00    +0.000 OA
ATOM     11  H   UNL     1       3.065   7.089  16.730  0.00  0.00    +0.000 HD
ENDROOT
BRANCH   1  15
ATOM     12  C   UNL     1       0.171   9.581  19.368  0.00  0.00    +0.000 A 
ATOM     13  C   UNL     1       0.724   8.815  20.395  0.00  0.00    +0.000 A 
ATOM     14  C   UNL     1       1.873   8.045  20.177  0.00  0.00    +0.000 A 
ATOM     15  C   UNL     1       2.468   7.990  18.909  0.00  0.00    +0.000 A 
ATOM     16  C   UNL     1       1.880   8.755  17.878  0.00  0.00    +0.000 A 
ATOM     17  C   UNL     1       0.734   9.528  18.098  0.00  0.00    +0.000 A 
BRANCH  12  18
ATOM     18  O   UNL     1      -0.912  10.339  19.716  0.00  0.00    +0.000 OA
BRANCH  18  20
ATOM     19  C   UNL     1      -0.536  12.573  20.460  0.00  0.00    +0.000 C 
ATOM     20  C   UNL     1      -0.767  11.136  20.894  0.00  0.00    +0.000 C 
ENDBRANCH  18  20
ENDBRANCH  12  18
ENDBRANCH   1  15
BRANCH   9  21
ATOM     21  C   UNL     1       4.075   3.574  19.597  0.00  0.00    +0.000 C 
ATOM     22  C   UNL     1       3.001   2.804  20.373  0.00  0.00    +0.000 C 
ENDBRANCH   9  21
BRANCH   9  23
ATOM     23  C   UNL     1       1.976   4.647  18.655  0.00  0.00    +0.000 C 
ATOM     24  C   UNL     1       1.207   4.260  17.410  0.00  0.00    +0.000 C 
ENDBRANCH   9  23
TORSDOF 5
ENDMDL
MODEL 7
REMARK VINA RESULT:      -6.5      2.359      7.115
REMARK  Name = 
REMARK  8 active torsions:
REMARK  status: ('A' for Active; 'I' for Inactive)
REMARK    1  A    between atoms: C_1  and  C_2
REMARK    2  A    between atoms: C_2  and  O_3
REMARK    3  A    between atoms: O_3  and  C_4
REMARK    4  A    between atoms: C_7  and  C_8
REMARK    5  A    between atoms: C_16  and  C_17
REMARK    6  A    between atoms: C_16  and  C_19
REMARK    7  A    between atoms: C_17  and  C_18
REMARK    8  A    between atoms: C_19  and  C_20
REMARK                            x       y       z     vdW  Elec       q    Type
REMARK                         _______ _______ _______ _____ _____    ______ ____
ROOT
ATOM      1  C   UNL     1       4.069   6.338  18.847  0.00  0.00    +0.000 C 
ATOM      2  N   UNL     1       4.522   6.713  17.509  0.00  0.00    +0.000 N 
ATOM      3  C   UNL     1       5.066   5.678  16.750  0.00  0.00    +0.000 A 
ATOM      4  C   UNL     1       6.095   5.979  15.848  0.00  0.00    +0.000 A 
ATOM      5  C   UNL     1       6.571   5.011  14.972  0.00  0.00    +0.000 A 
ATOM      6  C   UNL     1       5.944   3.770  14.931  0.00  0.00    +0.000 A 
ATOM      7  C   UNL     1       4.889   3.482  15.809  0.00  0.00    +0.000 A 
ATOM      8  C   UNL     1       4.467   4.416  16.768  0.00  0.00    +0.000 A 
ATOM      9  C   UNL     1       3.521   4.107  17.926  0.00  0.00    +0.000 C 
ATOM     10  O   UNL     1       3.885   4.938  19.063  0.00  0.00    +0.000 OA
ATOM     11  H   UNL     1       3.721   7.052  16.976  0.00  0.00    +0.000 HD
ENDROOT
BRANCH   1  15
ATOM     12  C   UNL     1       0.656   8.800  20.014  0.00  0.00    +0.000 A 
ATOM     13  C   UNL     1       1.318   9.041  18.810  0.00  0.00    +0.000 A 
ATOM     14  C   UNL     1       2.409   8.253  18.421  0.00  0.00    +0.000 A 
ATOM     15  C   UNL     1       2.890   7.235  19.255  0.00  0.00    +0.000 A 
ATOM     16  C   UNL     1       2.220   7.023  20.480  0.00  0.00    +0.000 A 
ATOM     17  C   UNL     1       1.127   7.807  20.866  0.00  0.00    +0.000 A 
BRANCH  12  18
ATOM     18  O   UNL     1      -0.432   9.593  20.257  0.00  0.00    +0.000 OA
BRANCH  18  20
ATOM     19  C   UNL     1      -0.612  10.636  22.393  0.00  0.00    +0.000 C 
ATOM     20  C   UNL     1      -0.174  10.816  20.950  0.00  0.00    +0.000 C 
ENDBRANCH  18  20
ENDBRANCH  12  18
ENDBRANCH   1  15
BRANCH   9  21
ATOM     21  C   UNL     1       3.741   2.637  18.426  0.00  0.00    +0.000 C 
ATOM     22  C   UNL     1       4.324   2.517  19.839  0.00  0.00    +0.000 C 
ENDBRANCH   9  21
BRANCH   9  23
ATOM     23  C   UNL     1       1.998   4.345  17.726  0.00  0.00    +0.000 C 
ATOM     24  C   UNL     1       0.971   3.689  18.623  0.00  0.00    +0.000 C 
ENDBRANCH   9  23
TORSDOF 5
ENDMDL
MODEL 8
REMARK VINA RESULT:      -6.4      4.850      7.847
REMARK  Name = 
REMARK  8 active torsions:
REMARK  status: ('A' for Active; 'I' for Inactive)
REMARK    1  A    between atoms: C_1  and  C_2
REMARK    2  A    between atoms: C_2  and  O_3
REMARK    3  A    between atoms: O_3  and  C_4
REMARK    4  A    between atoms: C_7  and  C_8
REMARK    5  A    between atoms: C_16  and  C_17
REMARK    6  A    between atoms: C_16  and  C_19
REMARK    7  A    between atoms: C_17  and  C_18
REMARK    8  A    between atoms: C_19  and  C_20
REMARK                            x       y       z     vdW  Elec       q    Type
REMARK                         _______ _______ _______ _____ _____    ______ ____
ROOT
ATOM      1  C   UNL     1       1.012  10.417  20.283  0.00  0.00    +0.000 C 
ATOM      2  N   UNL     1       0.110  10.182  21.408  0.00  0.00    +0.000 N 
ATOM      3  C   UNL     1      -0.881  11.146  21.590  0.00  0.00    +0.000 A 
ATOM      4  C   UNL     1      -1.307  11.428  22.895  0.00  0.00    +0.000 A 
ATOM      5  C   UNL     1      -2.386  12.275  23.117  0.00  0.00    +0.000 A 
ATOM      6  C   UNL     1      -3.101  12.759  22.026  0.00  0.00    +0.000 A 
ATOM      7  C   UNL     1      -2.696  12.444  20.721  0.00  0.00    +0.000 A 
ATOM      8  C   UNL     1      -1.547  11.673  20.482  0.00  0.00    +0.000 A 
ATOM      9  C   UNL     1      -0.883  11.502  19.118  0.00  0.00    +0.000 C 
ATOM     10  O   UNL     1       0.551  11.357  19.311  0.00  0.00    +0.000 OA
ATOM     11  H   UNL     1      -0.387   9.305  21.250  0.00  0.00    +0.000 HD
ENDROOT
BRANCH   1  15
ATOM     12  C   UNL     1       2.464   6.583  18.777  0.00  0.00    +0.000 A 
ATOM     13  C   UNL     1       2.370   7.684  17.925  0.00  0.00    +0.000 A 
ATOM     14  C   UNL     1       1.913   8.921  18.398  0.00  0.00    +0.000 A 
ATOM     15  C   UNL     1       1.495   9.068  19.727  0.00  0.00    +0.000 A 
ATOM     16  C   UNL     1       1.577   7.936  20.567  0.00  0.00    +0.000 A 
ATOM     17  C   UNL     1       2.038   6.702  20.095  0.00  0.00    +0.000 A 
BRANCH  12  18
ATOM     18  O   UNL     1       2.982   5.448  18.218  0.00  0.00    +0.000 OA
BRANCH  18  20
ATOM     19  C   UNL     1       1.539   3.554  18.100  0.00  0.00    +0.000 C 
ATOM     20  C   UNL     1       2.660   4.221  18.878  0.00  0.00    +0.000 C 
ENDBRANCH  18  20
ENDBRANCH  12  18
ENDBRANCH   1  15
BRANCH   9  21
ATOM     21  C   UNL     1      -1.036  12.814  18.273  0.00  0.00    +0.000 C 
ATOM     22  C   UNL     1      -0.031  13.920  18.611  0.00  0.00    +0.000 C 
ENDBRANCH   9  21
BRANCH   9  23
ATOM     23  C   UNL     1      -1.294  10.288  18.239  0.00  0.00    +0.000 C 
ATOM     24  C   UNL     1      -2.624  10.249  17.518  0.00  0.00    +0.000 C 
ENDBRANCH   9  23
TORSDOF 5
ENDMDL
MODEL 9
REMARK VINA RESULT:      -6.4      2.666      7.135
REMARK  Name = 
REMARK  8 active torsions:
REMARK  status: ('A' for Active; 'I' for Inactive)
REMARK    1  A    between atoms: C_1  and  C_2
REMARK    2  A    between atoms: C_2  and  O_3
REMARK    3  A    between atoms: O_3  and  C_4
REMARK    4  A    between atoms: C_7  and  C_8
REMARK    5  A    between atoms: C_16  and  C_17
REMARK    6  A    between atoms: C_16  and  C_19
REMARK    7  A    between atoms: C_17  and  C_18
REMARK    8  A    between atoms: C_19  and  C_20
REMARK                            x       y       z     vdW  Elec       q    Type
REMARK                         _______ _______ _______ _____ _____    ______ ____
ROOT
ATOM      1  C   UNL     1       3.725   7.214  18.657  0.00  0.00    +0.000 C 
ATOM      2  N   UNL     1       4.013   7.142  17.226  0.00  0.00    +0.000 N 
ATOM      3  C   UNL     1       4.637   5.970  16.801  0.00  0.00    +0.000 A 
ATOM      4  C   UNL     1       5.538   6.042  15.730  0.00  0.00    +0.000 A 
ATOM      5  C   UNL     1       6.075   4.884  15.181  0.00  0.00    +0.000 A 
ATOM      6  C   UNL     1       5.630   3.649  15.640  0.00  0.00    +0.000 A 
ATOM      7  C   UNL     1       4.700   3.578  16.687  0.00  0.00    +0.000 A 
ATOM      8  C   UNL     1       4.226   4.739  17.318  0.00  0.00    +0.000 A 
ATOM      9  C   UNL     1       3.429   4.757  18.620  0.00  0.00    +0.000 C 
ATOM     10  O   UNL     1       3.760   5.969  19.355  0.00  0.00    +0.000 OA
ATOM     11  H   UNL     1       3.132   7.185  16.713  0.00  0.00    +0.000 HD
ENDROOT
BRANCH   1  15
ATOM     12  C   UNL     1       0.096   9.551  19.324  0.00  0.00    +0.000 A 
ATOM     13  C   UNL     1       0.706   9.541  18.069  0.00  0.00    +0.000 A 
ATOM     14  C   UNL     1       1.866   8.789  17.841  0.00  0.00    +0.000 A 
ATOM     15  C   UNL     1       2.467   8.068  18.881  0.00  0.00    +0.000 A 
ATOM     16  C   UNL     1       1.847   8.110  20.149  0.00  0.00    +0.000 A 
ATOM     17  C   UNL     1       0.686   8.857  20.375  0.00  0.00    +0.000 A 
BRANCH  12  18
ATOM     18  O   UNL     1      -1.063  10.270  19.409  0.00  0.00    +0.000 OA
BRANCH  18  20
ATOM     19  C   UNL     1      -1.273  11.959  21.080  0.00  0.00    +0.000 C 
ATOM     20  C   UNL     1      -0.915  11.675  19.631  0.00  0.00    +0.000 C 
ENDBRANCH  18  20
ENDBRANCH  12  18
ENDBRANCH   1  15
BRANCH   9  21
ATOM     21  C   UNL     1       3.895   3.589  19.557  0.00  0.00    +0.000 C 
ATOM     22  C   UNL     1       2.861   3.143  20.596  0.00  0.00    +0.000 C 
ENDBRANCH   9  21
BRANCH   9  23
ATOM     23  C   UNL     1       1.877   4.748  18.542  0.00  0.00    +0.000 C 
ATOM     24  C   UNL     1       1.147   4.039  17.422  0.00  0.00    +0.000 C 
ENDBRANCH   9  23
TORSDOF 5
ENDMDL
