MODEL 1
REMARK VINA RESULT:      -6.1      0.000      0.000
REMARK  Name = 
REMARK  8 active torsions:
REMARK  status: ('A' for Active; 'I' for Inactive)
REMARK    1  A    between atoms: C_1  and  C_2
REMARK    2  A    between atoms: C_2  and  C_3
REMARK    3  A    between atoms: C_3  and  C_4
REMARK    4  A    between atoms: C_3  and  N_7
REMARK    5  A    between atoms: C_4  and  C_5
REMARK    6  A    between atoms: N_7  and  C_8
REMARK    7  A    between atoms: C_8  and  C_9
REMARK    8  A    between atoms: C_14  and  C_15
REMARK                            x       y       z     vdW  Elec       q    Type
REMARK                         _______ _______ _______ _____ _____    ______ ____
ROOT
ATOM      1  N   UNL     1       4.124   3.933  18.848  0.00  0.00    +0.000 NA
ATOM      2  H   UNL     1       4.195   3.289  18.059  0.00  0.00    +0.000 HD
ENDROOT
BRANCH   1   3
ATOM      3  C   UNL     1       2.767   4.503  18.935  0.00  0.00    +0.000 C 
BRANCH   3   5
ATOM      4  C   UNL     1       2.462   2.180  17.809  0.00  0.00    +0.000 C 
ATOM      5  C   UNL     1       1.798   3.437  18.360  0.00  0.00    +0.000 C 
ENDBRANCH   3   5
BRANCH   3   6
ATOM      6  C   UNL     1       2.391   4.943  20.366  0.00  0.00    +0.000 C 
BRANCH   6   7
ATOM      7  C   UNL     1       2.206   3.797  21.263  0.00  0.00    +0.000 C 
ATOM      8  N   UNL     1       2.059   2.883  21.968  0.00  0.00    +0.000 NA
ENDBRANCH   6   7
ENDBRANCH   3   6
ENDBRANCH   1   3
BRANCH   1   9
ATOM      9  C   UNL     1       5.213   4.906  18.778  0.00  0.00    +0.000 C 
BRANCH   9  10
ATOM     10  C   UNL     1       5.847   4.883  17.410  0.00  0.00    +0.000 A 
ATOM     11  C   UNL     1       5.344   3.995  16.444  0.00  0.00    +0.000 A 
ATOM     12  C   UNL     1       5.890   3.966  15.168  0.00  0.00    +0.000 A 
ATOM     13  C   UNL     1       6.940   4.821  14.898  0.00  0.00    +0.000 A 
ATOM     14  N   UNL     1       7.464   5.677  15.800  0.00  0.00    +0.000 NA
ATOM     15  C   UNL     1       6.914   5.709  17.041  0.00  0.00    +0.000 A 
ATOM     16  C   UNL     1       7.524   6.699  17.989  0.00  0.00    +0.000 C 
ENDBRANCH   9  10
ENDBRANCH   1   9
TORSDOF 6
ENDMDL
MODEL 2
REMARK VINA RESULT:      -6.1      0.847      1.011
REMARK  Name = 
REMARK  8 active torsions:
REMARK  status: ('A' for Active; 'I' for Inactive)
REMARK    1  A    between atoms: C_1  and  C_2
REMARK    2  A    between atoms: C_2  and  C_3
REMARK    3  A    between atoms: C_3  and  C_4
REMARK    4  A    between atoms: C_3  and  N_7
REMARK    5  A    between atoms: C_4  and  C_5
REMARK    6  A    between atoms: N_7  and  C_8
REMARK    7  A    between atoms: C_8  and  C_9
REMARK    8  A    between atoms: C_14  and  C_15
REMARK                            x       y       z     vdW  Elec       q    Type
REMARK                         _______ _______ _______ _____ _____    ______ ____
ROOT
ATOM      1  N   UNL     1       4.367   5.519  19.256  0.00  0.00    +0.000 NA
ATOM      2  H   UNL     1       4.659   6.262  19.893  0.00  0.00    +0.000 HD
ENDROOT
BRANCH   1   3
ATOM      3  C   UNL     1       3.128   4.880  19.733  0.00  0.00    +0.000 C 
BRANCH   3   5
ATOM      4  C   UNL     1       1.871   4.022  17.625  0.00  0.00    +0.000 C 
ATOM      5  C   UNL     1       2.048   5.137  18.649  0.00  0.00    +0.000 C 
ENDBRANCH   3   5
BRANCH   3   6
ATOM      6  C   UNL     1       3.309   3.380  20.052  0.00  0.00    +0.000 C 
BRANCH   6   7
ATOM      7  C   UNL     1       2.475   2.953  21.180  0.00  0.00    +0.000 C 
ATOM      8  N   UNL     1       1.815   2.620  22.078  0.00  0.00    +0.000 NA
ENDBRANCH   6   7
ENDBRANCH   3   6
ENDBRANCH   1   3
BRANCH   1   9
ATOM      9  C   UNL     1       5.492   4.616  19.018  0.00  0.00    +0.000 C 
BRANCH   9  10
ATOM     10  C   UNL     1       5.981   4.754  17.598  0.00  0.00    +0.000 A 
ATOM     11  C   UNL     1       5.396   3.959  16.598  0.00  0.00    +0.000 A 
ATOM     12  C   UNL     1       5.806   4.079  15.279  0.00  0.00    +0.000 A 
ATOM     13  C   UNL     1       6.809   4.985  14.996  0.00  0.00    +0.000 A 
ATOM     14  N   UNL     1       7.409   5.757  15.927  0.00  0.00    +0.000 NA
ATOM     15  C   UNL     1       6.990   5.644  17.213  0.00  0.00    +0.000 A 
ATOM     16  C   UNL     1       7.679   6.546  18.195  0.00  0.00    +0.000 C 
ENDBRANCH   9  10
ENDBRANCH   1   9
TORSDOF 6
ENDMDL
MODEL 3
REMARK VINA RESULT:      -6.0      1.489      1.721
REMARK  Name = 
REMARK  8 active torsions:
REMARK  status: ('A' for Active; 'I' for Inactive)
REMARK    1  A    between atoms: C_1  and  C_2
REMARK    2  A    between atoms: C_2  and  C_3
REMARK    3  A    between atoms: C_3  and  C_4
REMARK    4  A    between atoms: C_3  and  N_7
REMARK    5  A    between atoms: C_4  and  C_5
REMARK    6  A    between atoms: N_7  and  C_8
REMARK    7  A    between atoms: C_8  and  C_9
REMARK    8  A    between atoms: C_14  and  C_15
REMARK                            x       y       z     vdW  Elec       q    Type
REMARK                         _______ _______ _______ _____ _____    ______ ____
ROOT
ATOM      1  N   UNL     1       4.702   5.353  19.115  0.00  0.00    +0.000 NA
ATOM      2  H   UNL     1       5.577   4.830  19.071  0.00  0.00    +0.000 HD
ENDROOT
BRANCH   1   3
ATOM      3  C   UNL     1       3.566   4.449  19.369  0.00  0.00    +0.000 C 
BRANCH   3   5
ATOM      4  C   UNL     1       1.434   3.974  17.961  0.00  0.00    +0.000 C 
ATOM      5  C   UNL     1       2.359   5.016  18.577  0.00  0.00    +0.000 C 
ENDBRANCH   3   5
BRANCH   3   6
ATOM      6  C   UNL     1       3.877   2.979  19.014  0.00  0.00    +0.000 C 
BRANCH   6   7
ATOM      7  C   UNL     1       4.526   2.271  20.122  0.00  0.00    +0.000 C 
ATOM      8  N   UNL     1       5.048   1.710  20.998  0.00  0.00    +0.000 NA
ENDBRANCH   6   7
ENDBRANCH   3   6
ENDBRANCH   1   3
BRANCH   1   9
ATOM      9  C   UNL     1       4.582   6.198  17.928  0.00  0.00    +0.000 C 
BRANCH   9  10
ATOM     10  C   UNL     1       5.461   5.671  16.821  0.00  0.00    +0.000 A 
ATOM     11  C   UNL     1       4.934   4.719  15.931  0.00  0.00    +0.000 A 
ATOM     12  C   UNL     1       5.708   4.232  14.888  0.00  0.00    +0.000 A 
ATOM     13  C   UNL     1       7.002   4.701  14.774  0.00  0.00    +0.000 A 
ATOM     14  N   UNL     1       7.553   5.601  15.615  0.00  0.00    +0.000 NA
ATOM     15  C   UNL     1       6.783   6.084  16.624  0.00  0.00    +0.000 A 
ATOM     16  C   UNL     1       7.445   7.099  17.508  0.00  0.00    +0.000 C 
ENDBRANCH   9  10
ENDBRANCH   1   9
TORSDOF 6
ENDMDL
MODEL 4
REMARK VINA RESULT:      -5.9      0.946      1.161
REMARK  Name = 
REMARK  8 active torsions:
REMARK  status: ('A' for Active; 'I' for Inactive)
REMARK    1  A    between atoms: C_1  and  C_2
REMARK    2  A    between atoms: C_2  and  C_3
REMARK    3  A    between atoms: C_3  and  C_4
REMARK    4  A    between atoms: C_3  and  N_7
REMARK    5  A    between atoms: C_4  and  C_5
REMARK    6  A    between atoms: N_7  and  C_8
REMARK    7  A    between atoms: C_8  and  C_9
REMARK    8  A    between atoms: C_14  and  C_15
REMARK                            x       y       z     vdW  Elec       q    Type
REMARK                         _______ _______ _______ _____ _____    ______ ____
ROOT
ATOM      1  N   UNL     1       4.778   3.999  18.671  0.00  0.00    +0.000 NA
ATOM      2  H   UNL     1       5.110   3.257  18.054  0.00  0.00    +0.000 HD
ENDROOT
BRANCH   1   3
ATOM      3  C   UNL     1       3.465   3.655  19.244  0.00  0.00    +0.000 C 
BRANCH   3   5
ATOM      4  C   UNL     1       1.460   4.220  17.689  0.00  0.00    +0.000 C 
ATOM      5  C   UNL     1       2.559   3.231  18.058  0.00  0.00    +0.000 C 
ENDBRANCH   3   5
BRANCH   3   6
ATOM      6  C   UNL     1       3.553   2.576  20.344  0.00  0.00    +0.000 C 
BRANCH   6   7
ATOM      7  C   UNL     1       2.434   2.661  21.289  0.00  0.00    +0.000 C 
ATOM      8  N   UNL     1       1.543   2.733  22.034  0.00  0.00    +0.000 NA
ENDBRANCH   6   7
ENDBRANCH   3   6
ENDBRANCH   1   3
BRANCH   1   9
ATOM      9  C   UNL     1       4.845   5.279  17.967  0.00  0.00    +0.000 C 
BRANCH   9  10
ATOM     10  C   UNL     1       5.637   5.133  16.693  0.00  0.00    +0.000 A 
ATOM     11  C   UNL     1       5.159   4.273  15.690  0.00  0.00    +0.000 A 
ATOM     12  C   UNL     1       5.853   4.135  14.496  0.00  0.00    +0.000 A 
ATOM     13  C   UNL     1       7.022   4.854  14.344  0.00  0.00    +0.000 A 
ATOM     14  N   UNL     1       7.526   5.678  15.287  0.00  0.00    +0.000 NA
ATOM     15  C   UNL     1       6.832   5.819  16.446  0.00  0.00    +0.000 A 
ATOM     16  C   UNL     1       7.431   6.768  17.441  0.00  0.00    +0.000 C 
ENDBRANCH   9  10
ENDBRANCH   1   9
TORSDOF 6
ENDMDL
MODEL 5
REMARK VINA RESULT:      -5.8      1.411      1.833
REMARK  Name = 
REMARK  8 active torsions:
REMARK  status: ('A' for Active; 'I' for Inactive)
REMARK    1  A    between atoms: C_1  and  C_2
REMARK    2  A    between atoms: C_2  and  C_3
REMARK    3  A    between atoms: C_3  and  C_4
REMARK    4  A    between atoms: C_3  and  N_7
REMARK    5  A    between atoms: C_4  and  C_5
REMARK    6  A    between atoms: N_7  and  C_8
REMARK    7  A    between atoms: C_8  and  C_9
REMARK    8  A    between atoms: C_14  and  C_15
REMARK                            x       y       z     vdW  Elec       q    Type
REMARK                         _______ _______ _______ _____ _____    ______ ____
ROOT
ATOM      1  N   UNL     1       3.492   3.956  19.543  0.00  0.00    +0.000 NA
ATOM      2  H   UNL     1       4.134   3.293  19.104  0.00  0.00    +0.000 HD
ENDROOT
BRANCH   1   3
ATOM      3  C   UNL     1       2.169   3.908  18.895  0.00  0.00    +0.000 C 
BRANCH   3   5
ATOM      4  C   UNL     1       3.411   1.799  18.021  0.00  0.00    +0.000 C 
ATOM      5  C   UNL     1       2.204   2.721  17.898  0.00  0.00    +0.000 C 
ENDBRANCH   3   5
BRANCH   3   6
ATOM      6  C   UNL     1       1.008   3.805  19.907  0.00  0.00    +0.000 C 
BRANCH   6   7
ATOM      7  C   UNL     1       1.405   3.099  21.130  0.00  0.00    +0.000 C 
ATOM      8  N   UNL     1       1.726   2.544  22.101  0.00  0.00    +0.000 NA
ENDBRANCH   6   7
ENDBRANCH   3   6
ENDBRANCH   1   3
BRANCH   1   9
ATOM      9  C   UNL     1       4.122   5.274  19.597  0.00  0.00    +0.000 C 
BRANCH   9  10
ATOM     10  C   UNL     1       5.070   5.448  18.438  0.00  0.00    +0.000 A 
ATOM     11  C   UNL     1       6.195   4.611  18.351  0.00  0.00    +0.000 A 
ATOM     12  C   UNL     1       7.075   4.729  17.284  0.00  0.00    +0.000 A 
ATOM     13  C   UNL     1       6.812   5.700  16.338  0.00  0.00    +0.000 A 
ATOM     14  N   UNL     1       5.753   6.536  16.392  0.00  0.00    +0.000 NA
ATOM     15  C   UNL     1       4.889   6.402  17.431  0.00  0.00    +0.000 A 
ATOM     16  C   UNL     1       3.721   7.343  17.420  0.00  0.00    +0.000 C 
ENDBRANCH   9  10
ENDBRANCH   1   9
TORSDOF 6
ENDMDL
MODEL 6
REMARK VINA RESULT:      -5.8      1.806      5.552
REMARK  Name = 
REMARK  8 active torsions:
REMARK  status: ('A' for Active; 'I' for Inactive)
REMARK    1  A    between atoms: C_1  and  C_2
REMARK    2  A    between atoms: C_2  and  C_3
REMARK    3  A    between atoms: C_3  and  C_4
REMARK    4  A    between atoms: C_3  and  N_7
REMARK    5  A    between atoms: C_4  and  C_5
REMARK    6  A    between atoms: N_7  and  C_8
REMARK    7  A    between atoms: C_8  and  C_9
REMARK    8  A    between atoms: C_14  and  C_15
REMARK                            x       y       z     vdW  Elec       q    Type
REMARK                         _______ _______ _______ _____ _____    ______ ____
ROOT
ATOM      1  N   UNL     1       5.438   3.814  18.306  0.00  0.00    +0.000 NA
ATOM      2  H   UNL     1       5.254   4.411  19.114  0.00  0.00    +0.000 HD
ENDROOT
BRANCH   1   3
ATOM      3  C   UNL     1       6.029   4.595  17.205  0.00  0.00    +0.000 C 
BRANCH   3   5
ATOM      4  C   UNL     1       5.218   6.478  15.607  0.00  0.00    +0.000 C 
ATOM      5  C   UNL     1       4.851   5.262  16.449  0.00  0.00    +0.000 C 
ENDBRANCH   3   5
BRANCH   3   6
ATOM      6  C   UNL     1       7.083   5.615  17.689  0.00  0.00    +0.000 C 
BRANCH   6   7
ATOM      7  C   UNL     1       7.381   5.461  19.117  0.00  0.00    +0.000 C 
ATOM      8  N   UNL     1       7.611   5.340  20.251  0.00  0.00    +0.000 NA
ENDBRANCH   6   7
ENDBRANCH   3   6
ENDBRANCH   1   3
BRANCH   1   9
ATOM      9  C   UNL     1       4.227   3.066  17.971  0.00  0.00    +0.000 C 
BRANCH   9  10
ATOM     10  C   UNL     1       3.230   3.155  19.098  0.00  0.00    +0.000 A 
ATOM     11  C   UNL     1       3.569   2.612  20.349  0.00  0.00    +0.000 A 
ATOM     12  C   UNL     1       2.683   2.699  21.413  0.00  0.00    +0.000 A 
ATOM     13  C   UNL     1       1.468   3.316  21.190  0.00  0.00    +0.000 A 
ATOM     14  N   UNL     1       1.095   3.836  20.002  0.00  0.00    +0.000 NA
ATOM     15  C   UNL     1       1.975   3.761  18.971  0.00  0.00    +0.000 A 
ATOM     16  C   UNL     1       1.512   4.379  17.685  0.00  0.00    +0.000 C 
ENDBRANCH   9  10
ENDBRANCH   1   9
TORSDOF 6
ENDMDL
MODEL 7
REMARK VINA RESULT:      -5.8      1.707      5.132
REMARK  Name = 
REMARK  8 active torsions:
REMARK  status: ('A' for Active; 'I' for Inactive)
REMARK    1  A    between atoms: C_1  and  C_2
REMARK    2  A    between atoms: C_2  and  C_3
REMARK    3  A    between atoms: C_3  and  C_4
REMARK    4  A    between atoms: C_3  and  N_7
REMARK    5  A    between atoms: C_4  and  C_5
REMARK    6  A    between atoms: N_7  and  C_8
REMARK    7  A    between atoms: C_8  and  C_9
REMARK    8  A    between atoms: C_14  and  C_15
REMARK                            x       y       z     vdW  Elec       q    Type
REMARK                         _______ _______ _______ _____ _____    ______ ____
ROOT
ATOM      1  N   UNL     1       5.478   3.768  17.069  0.00  0.00    +0.000 NA
ATOM      2  H   UNL     1       5.514   3.974  18.068  0.00  0.00    +0.000 HD
ENDROOT
BRANCH   1   3
ATOM      3  C   UNL     1       6.604   4.407  16.364  0.00  0.00    +0.000 C 
BRANCH   3   5
ATOM      4  C   UNL     1       6.278   3.994  13.819  0.00  0.00    +0.000 C 
ATOM      5  C   UNL     1       6.049   4.918  15.009  0.00  0.00    +0.000 C 
ENDBRANCH   3   5
BRANCH   3   6
ATOM      6  C   UNL     1       7.277   5.522  17.193  0.00  0.00    +0.000 C 
BRANCH   6   7
ATOM      7  C   UNL     1       6.971   5.405  18.623  0.00  0.00    +0.000 C 
ATOM      8  N   UNL     1       6.723   5.307  19.756  0.00  0.00    +0.000 NA
ENDBRANCH   6   7
ENDBRANCH   3   6
ENDBRANCH   1   3
BRANCH   1   9
ATOM      9  C   UNL     1       4.147   4.091  16.556  0.00  0.00    +0.000 C 
BRANCH   9  10
ATOM     10  C   UNL     1       3.106   3.853  17.620  0.00  0.00    +0.000 A 
ATOM     11  C   UNL     1       2.528   2.576  17.730  0.00  0.00    +0.000 A 
ATOM     12  C   UNL     1       1.585   2.317  18.714  0.00  0.00    +0.000 A 
ATOM     13  C   UNL     1       1.230   3.353  19.554  0.00  0.00    +0.000 A 
ATOM     14  N   UNL     1       1.747   4.598  19.473  0.00  0.00    +0.000 NA
ATOM     15  C   UNL     1       2.681   4.838  18.518  0.00  0.00    +0.000 A 
ATOM     16  C   UNL     1       3.234   6.232  18.497  0.00  0.00    +0.000 C 
ENDBRANCH   9  10
ENDBRANCH   1   9
TORSDOF 6
ENDMDL
MODEL 8
REMARK VINA RESULT:      -5.8      1.212      1.960
REMARK  Name = 
REMARK  8 active torsions:
REMARK  status: ('A' for Active; 'I' for Inactive)
REMARK    1  A    between atoms: C_1  and  C_2
REMARK    2  A    between atoms: C_2  and  C_3
REMARK    3  A    between atoms: C_3  and  C_4
REMARK    4  A    between atoms: C_3  and  N_7
REMARK    5  A    between atoms: C_4  and  C_5
REMARK    6  A    between atoms: N_7  and  C_8
REMARK    7  A    between atoms: C_8  and  C_9
REMARK    8  A    between atoms: C_14  and  C_15
REMARK                            x       y       z     vdW  Elec       q    Type
REMARK                         _______ _______ _______ _____ _____    ______ ____
ROOT
ATOM      1  N   UNL     1       4.110   5.376  19.149  0.00  0.00    +0.000 NA
ATOM      2  H   UNL     1       4.078   6.103  19.865  0.00  0.00    +0.000 HD
ENDROOT
BRANCH   1   3
ATOM      3  C   UNL     1       3.062   4.366  19.383  0.00  0.00    +0.000 C 
BRANCH   3   5
ATOM      4  C   UNL     1       2.166   3.542  21.679  0.00  0.00    +0.000 C 
ATOM      5  C   UNL     1       2.398   4.719  20.739  0.00  0.00    +0.000 C 
ENDBRANCH   3   5
BRANCH   3   6
ATOM      6  C   UNL     1       2.045   4.277  18.224  0.00  0.00    +0.000 C 
BRANCH   6   7
ATOM      7  C   UNL     1       1.128   3.144  18.384  0.00  0.00    +0.000 C 
ATOM      8  N   UNL     1       0.398   2.247  18.517  0.00  0.00    +0.000 NA
ENDBRANCH   6   7
ENDBRANCH   3   6
ENDBRANCH   1   3
BRANCH   1   9
ATOM      9  C   UNL     1       5.474   4.858  19.047  0.00  0.00    +0.000 C 
BRANCH   9  10
ATOM     10  C   UNL     1       5.946   4.908  17.616  0.00  0.00    +0.000 A 
ATOM     11  C   UNL     1       5.361   4.039  16.679  0.00  0.00    +0.000 A 
ATOM     12  C   UNL     1       5.756   4.076  15.349  0.00  0.00    +0.000 A 
ATOM     13  C   UNL     1       6.742   4.975  14.995  0.00  0.00    +0.000 A 
ATOM     14  N   UNL     1       7.342   5.816  15.865  0.00  0.00    +0.000 NA
ATOM     15  C   UNL     1       6.938   5.783  17.161  0.00  0.00    +0.000 A 
ATOM     16  C   UNL     1       7.624   6.758  18.072  0.00  0.00    +0.000 C 
ENDBRANCH   9  10
ENDBRANCH   1   9
TORSDOF 6
ENDMDL
MODEL 9
REMARK VINA RESULT:      -5.7      1.445      5.462
REMARK  Name = 
REMARK  8 active torsions:
REMARK  status: ('A' for Active; 'I' for Inactive)
REMARK    1  A    between atoms: C_1  and  C_2
REMARK    2  A    between atoms: C_2  and  C_3
REMARK    3  A    between atoms: C_3  and  C_4
REMARK    4  A    between atoms: C_3  and  N_7
REMARK    5  A    between atoms: C_4  and  C_5
REMARK    6  A    between atoms: N_7  and  C_8
REMARK    7  A    between atoms: C_8  and  C_9
REMARK    8  A    between atoms: C_14  and  C_15
REMARK                            x       y       z     vdW  Elec       q    Type
REMARK                         _______ _______ _______ _____ _____    ______ ____
ROOT
ATOM      1  N   UNL     1       5.933   3.931  18.554  0.00  0.00    +0.000 NA
ATOM      2  H   UNL     1       6.509   3.451  19.247  0.00  0.00    +0.000 HD
ENDROOT
BRANCH   1   3
ATOM      3  C   UNL     1       6.763   4.790  17.691  0.00  0.00    +0.000 C 
BRANCH   3   5
ATOM      4  C   UNL     1       5.596   4.660  15.372  0.00  0.00    +0.000 C 
ATOM      5  C   UNL     1       5.805   5.445  16.662  0.00  0.00    +0.000 C 
ENDBRANCH   3   5
BRANCH   3   6
ATOM      6  C   UNL     1       7.585   5.827  18.486  0.00  0.00    +0.000 C 
BRANCH   6   7
ATOM      7  C   UNL     1       7.644   7.123  17.803  0.00  0.00    +0.000 C 
ATOM      8  N   UNL     1       7.686   8.155  17.266  0.00  0.00    +0.000 NA
ENDBRANCH   6   7
ENDBRANCH   3   6
ENDBRANCH   1   3
BRANCH   1   9
ATOM      9  C   UNL     1       4.822   4.600  19.229  0.00  0.00    +0.000 C 
BRANCH   9  10
ATOM     10  C   UNL     1       3.537   3.848  18.990  0.00  0.00    +0.000 A 
ATOM     11  C   UNL     1       3.532   2.789  18.066  0.00  0.00    +0.000 A 
ATOM     12  C   UNL     1       2.372   2.063  17.841  0.00  0.00    +0.000 A 
ATOM     13  C   UNL     1       1.237   2.428  18.537  0.00  0.00    +0.000 A 
ATOM     14  N   UNL     1       1.193   3.449  19.421  0.00  0.00    +0.000 NA
ATOM     15  C   UNL     1       2.337   4.144  19.646  0.00  0.00    +0.000 A 
ATOM     16  C   UNL     1       2.229   5.248  20.657  0.00  0.00    +0.000 C 
ENDBRANCH   9  10
ENDBRANCH   1   9
TORSDOF 6
ENDMDL
