MODEL 1
REMARK VINA RESULT:      -7.2      0.000      0.000
REMARK  Name = 
REMARK  4 active torsions:
REMARK  status: ('A' for Active; 'I' for Inactive)
REMARK    1  A    between atoms: C_6  and  C_7
REMARK    2  A    between atoms: C_10  and  O_11
REMARK    3  A    between atoms: C_12  and  O_13
REMARK    4  A    between atoms: C_14  and  O_15
REMARK                            x       y       z     vdW  Elec       q    Type
REMARK                         _______ _______ _______ _____ _____    ______ ____
ROOT
ATOM      1  O   UNL     1       3.708   2.172  17.262  0.00  0.00    +0.000 OA
ATOM      2  C   UNL     1       3.358   3.123  17.936  0.00  0.00    +0.000 C 
ATOM      3  C   UNL     1       3.805   4.508  17.941  0.00  0.00    +0.000 A 
ATOM      4  S   UNL     1       4.939   5.346  17.060  0.00  0.00    +0.000 S 
ATOM      5  C   UNL     1       4.292   6.851  17.661  0.00  0.00    +0.000 A 
ATOM      6  C   UNL     1       3.212   6.688  18.531  0.00  0.00    +0.000 A 
ATOM      7  C   UNL     1       3.091   5.308  18.796  0.00  0.00    +0.000 A 
ATOM      8  N   UNL     1       2.242   4.452  19.497  0.00  0.00    +0.000 N 
ATOM      9  C   UNL     1       1.365   4.480  20.527  0.00  0.00    +0.000 A 
ATOM     10  C   UNL     1       0.658   3.288  20.457  0.00  0.00    +0.000 A 
ATOM     11  C   UNL     1       1.214   2.495  19.401  0.00  0.00    +0.000 A 
ATOM     12  C   UNL     1       2.292   3.202  18.932  0.00  0.00    +0.000 A 
ENDROOT
BRANCH   6  13
ATOM     13  C   UNL     1       2.230   7.758  18.785  0.00  0.00    +0.000 A 
ATOM     14  C   UNL     1       1.838   8.580  17.700  0.00  0.00    +0.000 A 
ATOM     15  C   UNL     1       0.962   9.660  17.849  0.00  0.00    +0.000 A 
ATOM     16  C   UNL     1       0.486   9.960  19.113  0.00  0.00    +0.000 A 
ATOM     17  C   UNL     1       0.890   9.199  20.203  0.00  0.00    +0.000 A 
ATOM     18  C   UNL     1       1.751   8.108  20.051  0.00  0.00    +0.000 A 
BRANCH  16  19
ATOM     19  O   UNL     1      -0.359  11.011  19.334  0.00  0.00    +0.000 OA
ATOM     20  H   UNL     1      -0.292  11.625  18.582  0.00  0.00    +0.000 HD
ENDBRANCH  16  19
BRANCH  17  21
ATOM     21  O   UNL     1       0.455   9.526  21.462  0.00  0.00    +0.000 OA
ATOM     22  H   UNL     1      -0.357  10.053  21.305  0.00  0.00    +0.000 HD
ENDBRANCH  17  21
BRANCH  18  23
ATOM     23  O   UNL     1       2.118   7.436  21.186  0.00  0.00    +0.000 OA
ATOM     24  H   UNL     1       3.015   7.770  21.393  0.00  0.00    +0.000 HD
ENDBRANCH  18  23
ENDBRANCH   6  13
TORSDOF 4
ENDMDL
MODEL 2
REMARK VINA RESULT:      -7.2      2.494      4.120
REMARK  Name = 
REMARK  4 active torsions:
REMARK  status: ('A' for Active; 'I' for Inactive)
REMARK    1  A    between atoms: C_6  and  C_7
REMARK    2  A    between atoms: C_10  and  O_11
REMARK    3  A    between atoms: C_12  and  O_13
REMARK    4  A    between atoms: C_14  and  O_15
REMARK                            x       y       z     vdW  Elec       q    Type
REMARK                         _______ _______ _______ _____ _____    ______ ____
ROOT
ATOM      1  O   UNL     1       8.118   4.076  17.699  0.00  0.00    +0.000 OA
ATOM      2  C   UNL     1       7.267   4.939  17.585  0.00  0.00    +0.000 C 
ATOM      3  C   UNL     1       5.828   4.844  17.394  0.00  0.00    +0.000 A 
ATOM      4  S   UNL     1       4.775   3.564  17.257  0.00  0.00    +0.000 S 
ATOM      5  C   UNL     1       3.427   4.652  17.461  0.00  0.00    +0.000 A 
ATOM      6  C   UNL     1       3.805   5.986  17.632  0.00  0.00    +0.000 A 
ATOM      7  C   UNL     1       5.195   6.060  17.404  0.00  0.00    +0.000 A 
ATOM      8  N   UNL     1       6.210   7.015  17.456  0.00  0.00    +0.000 N 
ATOM      9  C   UNL     1       6.372   8.358  17.390  0.00  0.00    +0.000 A 
ATOM     10  C   UNL     1       7.663   8.607  17.833  0.00  0.00    +0.000 A 
ATOM     11  C   UNL     1       8.308   7.351  18.075  0.00  0.00    +0.000 A 
ATOM     12  C   UNL     1       7.410   6.389  17.684  0.00  0.00    +0.000 A 
ENDROOT
BRANCH   6  13
ATOM     13  C   UNL     1       2.928   6.982  18.273  0.00  0.00    +0.000 A 
ATOM     14  C   UNL     1       2.541   8.118  17.522  0.00  0.00    +0.000 A 
ATOM     15  C   UNL     1       1.764   9.150  18.058  0.00  0.00    +0.000 A 
ATOM     16  C   UNL     1       1.387   9.076  19.387  0.00  0.00    +0.000 A 
ATOM     17  C   UNL     1       1.791   7.995  20.162  0.00  0.00    +0.000 A 
ATOM     18  C   UNL     1       2.552   6.955  19.620  0.00  0.00    +0.000 A 
BRANCH  16  19
ATOM     19  O   UNL     1       0.643  10.056  19.981  0.00  0.00    +0.000 OA
ATOM     20  H   UNL     1       1.181  10.866  20.029  0.00  0.00    +0.000 HD
ENDBRANCH  16  19
BRANCH  17  21
ATOM     21  O   UNL     1       1.457   7.946  21.491  0.00  0.00    +0.000 OA
ATOM     22  H   UNL     1       2.138   8.499  21.929  0.00  0.00    +0.000 HD
ENDBRANCH  17  21
BRANCH  18  23
ATOM     23  O   UNL     1       2.929   5.947  20.466  0.00  0.00    +0.000 OA
ATOM     24  H   UNL     1       2.993   6.372  21.346  0.00  0.00    +0.000 HD
ENDBRANCH  18  23
ENDBRANCH   6  13
TORSDOF 4
ENDMDL
MODEL 3
REMARK VINA RESULT:      -6.9      1.149      1.750
REMARK  Name = 
REMARK  4 active torsions:
REMARK  status: ('A' for Active; 'I' for Inactive)
REMARK    1  A    between atoms: C_6  and  C_7
REMARK    2  A    between atoms: C_10  and  O_11
REMARK    3  A    between atoms: C_12  and  O_13
REMARK    4  A    between atoms: C_14  and  O_15
REMARK                            x       y       z     vdW  Elec       q    Type
REMARK                         _______ _______ _______ _____ _____    ______ ____
ROOT
ATOM      1  O   UNL     1       3.603   2.129  17.466  0.00  0.00    +0.000 OA
ATOM      2  C   UNL     1       3.393   3.082  18.194  0.00  0.00    +0.000 C 
ATOM      3  C   UNL     1       3.777   4.480  18.072  0.00  0.00    +0.000 A 
ATOM      4  S   UNL     1       4.633   5.336  16.932  0.00  0.00    +0.000 S 
ATOM      5  C   UNL     1       4.098   6.832  17.653  0.00  0.00    +0.000 A 
ATOM      6  C   UNL     1       3.267   6.652  18.762  0.00  0.00    +0.000 A 
ATOM      7  C   UNL     1       3.264   5.275  19.066  0.00  0.00    +0.000 A 
ATOM      8  N   UNL     1       2.642   4.406  19.962  0.00  0.00    +0.000 N 
ATOM      9  C   UNL     1       2.040   4.428  21.174  0.00  0.00    +0.000 A 
ATOM     10  C   UNL     1       1.380   3.213  21.293  0.00  0.00    +0.000 A 
ATOM     11  C   UNL     1       1.692   2.416  20.144  0.00  0.00    +0.000 A 
ATOM     12  C   UNL     1       2.598   3.147  19.417  0.00  0.00    +0.000 A 
ENDROOT
BRANCH   6  13
ATOM     13  C   UNL     1       2.339   7.695  19.234  0.00  0.00    +0.000 A 
ATOM     14  C   UNL     1       1.800   7.574  20.538  0.00  0.00    +0.000 A 
ATOM     15  C   UNL     1       0.863   8.476  21.055  0.00  0.00    +0.000 A 
ATOM     16  C   UNL     1       0.419   9.507  20.248  0.00  0.00    +0.000 A 
ATOM     17  C   UNL     1       0.896   9.624  18.948  0.00  0.00    +0.000 A 
ATOM     18  C   UNL     1       1.846   8.734  18.438  0.00  0.00    +0.000 A 
BRANCH  16  19
ATOM     19  O   UNL     1      -0.507  10.414  20.682  0.00  0.00    +0.000 OA
ATOM     20  H   UNL     1      -0.268  11.291  20.334  0.00  0.00    +0.000 HD
ENDBRANCH  16  19
BRANCH  17  21
ATOM     21  O   UNL     1       0.420  10.619  18.134  0.00  0.00    +0.000 OA
ATOM     22  H   UNL     1       0.241  11.364  18.746  0.00  0.00    +0.000 HD
ENDBRANCH  17  21
BRANCH  18  23
ATOM     23  O   UNL     1       2.235   8.909  17.137  0.00  0.00    +0.000 OA
ATOM     24  H   UNL     1       3.092   9.379  17.195  0.00  0.00    +0.000 HD
ENDBRANCH  18  23
ENDBRANCH   6  13
TORSDOF 4
ENDMDL
MODEL 4
REMARK VINA RESULT:      -6.8      3.915      7.334
REMARK  Name = 
REMARK  4 active torsions:
REMARK  status: ('A' for Active; 'I' for Inactive)
REMARK    1  A    between atoms: C_6  and  C_7
REMARK    2  A    between atoms: C_10  and  O_11
REMARK    3  A    between atoms: C_12  and  O_13
REMARK    4  A    between atoms: C_14  and  O_15
REMARK                            x       y       z     vdW  Elec       q    Type
REMARK                         _______ _______ _______ _____ _____    ______ ____
ROOT
ATOM      1  O   UNL     1      -3.822  12.916  20.092  0.00  0.00    +0.000 OA
ATOM      2  C   UNL     1      -2.926  12.257  19.597  0.00  0.00    +0.000 C 
ATOM      3  C   UNL     1      -1.521  12.134  19.954  0.00  0.00    +0.000 A 
ATOM      4  S   UNL     1      -0.579  12.814  21.145  0.00  0.00    +0.000 S 
ATOM      5  C   UNL     1       0.687  11.665  20.799  0.00  0.00    +0.000 A 
ATOM      6  C   UNL     1       0.369  10.773  19.772  0.00  0.00    +0.000 A 
ATOM      7  C   UNL     1      -0.846  11.207  19.201  0.00  0.00    +0.000 A 
ATOM      8  N   UNL     1      -1.745  10.789  18.221  0.00  0.00    +0.000 N 
ATOM      9  C   UNL     1      -1.779  10.017  17.109  0.00  0.00    +0.000 A 
ATOM     10  C   UNL     1      -3.122   9.823  16.821  0.00  0.00    +0.000 A 
ATOM     11  C   UNL     1      -3.898  10.592  17.747  0.00  0.00    +0.000 A 
ATOM     12  C   UNL     1      -2.991  11.291  18.504  0.00  0.00    +0.000 A 
ENDROOT
BRANCH   6  13
ATOM     13  C   UNL     1       1.036   9.468  19.621  0.00  0.00    +0.000 A 
ATOM     14  C   UNL     1       1.031   8.580  20.724  0.00  0.00    +0.000 A 
ATOM     15  C   UNL     1       1.689   7.346  20.704  0.00  0.00    +0.000 A 
ATOM     16  C   UNL     1       2.402   6.992  19.573  0.00  0.00    +0.000 A 
ATOM     17  C   UNL     1       2.463   7.864  18.492  0.00  0.00    +0.000 A 
ATOM     18  C   UNL     1       1.790   9.089  18.506  0.00  0.00    +0.000 A 
BRANCH  16  19
ATOM     19  O   UNL     1       3.083   5.810  19.490  0.00  0.00    +0.000 OA
ATOM     20  H   UNL     1       2.997   5.344  20.341  0.00  0.00    +0.000 HD
ENDBRANCH  16  19
BRANCH  17  21
ATOM     21  O   UNL     1       3.209   7.533  17.390  0.00  0.00    +0.000 OA
ATOM     22  H   UNL     1       4.129   7.493  17.728  0.00  0.00    +0.000 HD
ENDBRANCH  17  21
BRANCH  18  23
ATOM     23  O   UNL     1       1.932   9.895  17.408  0.00  0.00    +0.000 OA
ATOM     24  H   UNL     1       2.423   9.348  16.761  0.00  0.00    +0.000 HD
ENDBRANCH  18  23
ENDBRANCH   6  13
TORSDOF 4
ENDMDL
MODEL 5
REMARK VINA RESULT:      -6.6      3.724      7.068
REMARK  Name = 
REMARK  4 active torsions:
REMARK  status: ('A' for Active; 'I' for Inactive)
REMARK    1  A    between atoms: C_6  and  C_7
REMARK    2  A    between atoms: C_10  and  O_11
REMARK    3  A    between atoms: C_12  and  O_13
REMARK    4  A    between atoms: C_14  and  O_15
REMARK                            x       y       z     vdW  Elec       q    Type
REMARK                         _______ _______ _______ _____ _____    ______ ____
ROOT
ATOM      1  O   UNL     1      -3.599  12.861  20.224  0.00  0.00    +0.000 OA
ATOM      2  C   UNL     1      -2.726  12.234  19.652  0.00  0.00    +0.000 C 
ATOM      3  C   UNL     1      -1.291  12.164  19.883  0.00  0.00    +0.000 A 
ATOM      4  S   UNL     1      -0.274  12.883  20.985  0.00  0.00    +0.000 S 
ATOM      5  C   UNL     1       0.998  11.780  20.529  0.00  0.00    +0.000 A 
ATOM      6  C   UNL     1       0.624  10.873  19.535  0.00  0.00    +0.000 A 
ATOM      7  C   UNL     1      -0.652  11.260  19.073  0.00  0.00    +0.000 A 
ATOM      8  N   UNL     1      -1.618  10.805  18.177  0.00  0.00    +0.000 N 
ATOM      9  C   UNL     1      -1.721  10.028  17.073  0.00  0.00    +0.000 A 
ATOM     10  C   UNL     1      -3.076   9.783  16.905  0.00  0.00    +0.000 A 
ATOM     11  C   UNL     1      -3.796  10.527  17.896  0.00  0.00    +0.000 A 
ATOM     12  C   UNL     1      -2.852  11.262  18.569  0.00  0.00    +0.000 A 
ENDROOT
BRANCH   6  13
ATOM     13  C   UNL     1       1.323   9.592  19.326  0.00  0.00    +0.000 A 
ATOM     14  C   UNL     1       1.858   9.322  18.044  0.00  0.00    +0.000 A 
ATOM     15  C   UNL     1       2.484   8.111  17.727  0.00  0.00    +0.000 A 
ATOM     16  C   UNL     1       2.550   7.125  18.694  0.00  0.00    +0.000 A 
ATOM     17  C   UNL     1       1.993   7.345  19.948  0.00  0.00    +0.000 A 
ATOM     18  C   UNL     1       1.385   8.562  20.270  0.00  0.00    +0.000 A 
BRANCH  16  19
ATOM     19  O   UNL     1       3.131   5.912  18.448  0.00  0.00    +0.000 OA
ATOM     20  H   UNL     1       2.428   5.266  18.255  0.00  0.00    +0.000 HD
ENDBRANCH  16  19
BRANCH  17  21
ATOM     21  O   UNL     1       2.018   6.350  20.890  0.00  0.00    +0.000 OA
ATOM     22  H   UNL     1       2.926   5.986  20.829  0.00  0.00    +0.000 HD
ENDBRANCH  17  21
BRANCH  18  23
ATOM     23  O   UNL     1       0.836   8.677  21.519  0.00  0.00    +0.000 OA
ATOM     24  H   UNL     1       1.429   8.158  22.099  0.00  0.00    +0.000 HD
ENDBRANCH  18  23
ENDBRANCH   6  13
TORSDOF 4
ENDMDL
MODEL 6
REMARK VINA RESULT:      -6.6      2.621      5.438
REMARK  Name = 
REMARK  4 active torsions:
REMARK  status: ('A' for Active; 'I' for Inactive)
REMARK    1  A    between atoms: C_6  and  C_7
REMARK    2  A    between atoms: C_10  and  O_11
REMARK    3  A    between atoms: C_12  and  O_13
REMARK    4  A    between atoms: C_14  and  O_15
REMARK                            x       y       z     vdW  Elec       q    Type
REMARK                         _______ _______ _______ _____ _____    ______ ____
ROOT
ATOM      1  O   UNL     1       0.844   7.247  21.628  0.00  0.00    +0.000 OA
ATOM      2  C   UNL     1       1.399   6.695  20.696  0.00  0.00    +0.000 C 
ATOM      3  C   UNL     1       1.948   7.229  19.458  0.00  0.00    +0.000 A 
ATOM      4  S   UNL     1       2.046   8.761  18.818  0.00  0.00    +0.000 S 
ATOM      5  C   UNL     1       3.173   8.185  17.616  0.00  0.00    +0.000 A 
ATOM      6  C   UNL     1       3.458   6.822  17.724  0.00  0.00    +0.000 A 
ATOM      7  C   UNL     1       2.584   6.285  18.693  0.00  0.00    +0.000 A 
ATOM      8  N   UNL     1       2.353   5.065  19.326  0.00  0.00    +0.000 N 
ATOM      9  C   UNL     1       2.555   3.741  19.127  0.00  0.00    +0.000 A 
ATOM     10  C   UNL     1       2.328   3.133  20.353  0.00  0.00    +0.000 A 
ATOM     11  C   UNL     1       1.883   4.133  21.277  0.00  0.00    +0.000 A 
ATOM     12  C   UNL     1       1.774   5.292  20.550  0.00  0.00    +0.000 A 
ENDROOT
BRANCH   6  13
ATOM     13  C   UNL     1       4.683   6.222  17.165  0.00  0.00    +0.000 A 
ATOM     14  C   UNL     1       4.825   6.178  15.757  0.00  0.00    +0.000 A 
ATOM     15  C   UNL     1       5.919   5.575  15.126  0.00  0.00    +0.000 A 
ATOM     16  C   UNL     1       6.883   4.965  15.909  0.00  0.00    +0.000 A 
ATOM     17  C   UNL     1       6.746   4.953  17.292  0.00  0.00    +0.000 A 
ATOM     18  C   UNL     1       5.663   5.572  17.922  0.00  0.00    +0.000 A 
BRANCH  16  19
ATOM     19  O   UNL     1       7.968   4.341  15.360  0.00  0.00    +0.000 OA
ATOM     20  H   UNL     1       8.424   3.841  16.060  0.00  0.00    +0.000 HD
ENDBRANCH  16  19
BRANCH  17  21
ATOM     21  O   UNL     1       7.677   4.307  18.064  0.00  0.00    +0.000 OA
ATOM     22  H   UNL     1       7.459   4.579  18.980  0.00  0.00    +0.000 HD
ENDBRANCH  17  21
BRANCH  18  23
ATOM     23  O   UNL     1       5.596   5.482  19.286  0.00  0.00    +0.000 OA
ATOM     24  H   UNL     1       4.645   5.354  19.480  0.00  0.00    +0.000 HD
ENDBRANCH  18  23
ENDBRANCH   6  13
TORSDOF 4
ENDMDL
MODEL 7
REMARK VINA RESULT:      -6.5      2.134      3.469
REMARK  Name = 
REMARK  4 active torsions:
REMARK  status: ('A' for Active; 'I' for Inactive)
REMARK    1  A    between atoms: C_6  and  C_7
REMARK    2  A    between atoms: C_10  and  O_11
REMARK    3  A    between atoms: C_12  and  O_13
REMARK    4  A    between atoms: C_14  and  O_15
REMARK                            x       y       z     vdW  Elec       q    Type
REMARK                         _______ _______ _______ _____ _____    ______ ____
ROOT
ATOM      1  O   UNL     1       5.185   2.285  20.098  0.00  0.00    +0.000 OA
ATOM      2  C   UNL     1       4.660   3.303  19.683  0.00  0.00    +0.000 C 
ATOM      3  C   UNL     1       3.306   3.811  19.837  0.00  0.00    +0.000 A 
ATOM      4  S   UNL     1       1.951   3.240  20.614  0.00  0.00    +0.000 S 
ATOM      5  C   UNL     1       1.187   4.797  20.425  0.00  0.00    +0.000 A 
ATOM      6  C   UNL     1       1.985   5.736  19.766  0.00  0.00    +0.000 A 
ATOM      7  C   UNL     1       3.126   5.057  19.291  0.00  0.00    +0.000 A 
ATOM      8  N   UNL     1       4.316   5.355  18.628  0.00  0.00    +0.000 N 
ATOM      9  C   UNL     1       4.835   6.300  17.809  0.00  0.00    +0.000 A 
ATOM     10  C   UNL     1       6.206   6.087  17.804  0.00  0.00    +0.000 A 
ATOM     11  C   UNL     1       6.483   4.911  18.575  0.00  0.00    +0.000 A 
ATOM     12  C   UNL     1       5.260   4.410  18.943  0.00  0.00    +0.000 A 
ENDROOT
BRANCH   6  13
ATOM     13  C   UNL     1       1.774   7.188  19.900  0.00  0.00    +0.000 A 
ATOM     14  C   UNL     1       1.425   7.700  21.173  0.00  0.00    +0.000 A 
ATOM     15  C   UNL     1       1.143   9.054  21.392  0.00  0.00    +0.000 A 
ATOM     16  C   UNL     1       1.172   9.920  20.314  0.00  0.00    +0.000 A 
ATOM     17  C   UNL     1       1.467   9.437  19.045  0.00  0.00    +0.000 A 
ATOM     18  C   UNL     1       1.767   8.089  18.831  0.00  0.00    +0.000 A 
BRANCH  16  19
ATOM     19  O   UNL     1       0.890  11.251  20.452  0.00  0.00    +0.000 OA
ATOM     20  H   UNL     1       0.150  11.347  21.076  0.00  0.00    +0.000 HD
ENDBRANCH  16  19
BRANCH  17  21
ATOM     21  O   UNL     1       1.450  10.289  17.970  0.00  0.00    +0.000 OA
ATOM     22  H   UNL     1       0.584  10.118  17.544  0.00  0.00    +0.000 HD
ENDBRANCH  17  21
BRANCH  18  23
ATOM     23  O   UNL     1       2.016   7.699  17.542  0.00  0.00    +0.000 OA
ATOM     24  H   UNL     1       1.568   6.833  17.454  0.00  0.00    +0.000 HD
ENDBRANCH  18  23
ENDBRANCH   6  13
TORSDOF 4
ENDMDL
MODEL 8
REMARK VINA RESULT:      -6.5      3.313      5.379
REMARK  Name = 
REMARK  4 active torsions:
REMARK  status: ('A' for Active; 'I' for Inactive)
REMARK    1  A    between atoms: C_6  and  C_7
REMARK    2  A    between atoms: C_10  and  O_11
REMARK    3  A    between atoms: C_12  and  O_13
REMARK    4  A    between atoms: C_14  and  O_15
REMARK                            x       y       z     vdW  Elec       q    Type
REMARK                         _______ _______ _______ _____ _____    ______ ____
ROOT
ATOM      1  O   UNL     1       1.560   3.376  22.031  0.00  0.00    +0.000 OA
ATOM      2  C   UNL     1       2.017   3.524  20.913  0.00  0.00    +0.000 C 
ATOM      3  C   UNL     1       2.298   4.728  20.146  0.00  0.00    +0.000 A 
ATOM      4  S   UNL     1       2.121   6.352  20.462  0.00  0.00    +0.000 S 
ATOM      5  C   UNL     1       3.099   6.728  19.067  0.00  0.00    +0.000 A 
ATOM      6  C   UNL     1       3.548   5.600  18.377  0.00  0.00    +0.000 A 
ATOM      7  C   UNL     1       2.905   4.479  18.942  0.00  0.00    +0.000 A 
ATOM      8  N   UNL     1       2.915   3.091  18.803  0.00  0.00    +0.000 N 
ATOM      9  C   UNL     1       3.228   2.146  17.886  0.00  0.00    +0.000 A 
ATOM     10  C   UNL     1       3.270   0.944  18.579  0.00  0.00    +0.000 A 
ATOM     11  C   UNL     1       2.869   1.189  19.932  0.00  0.00    +0.000 A 
ATOM     12  C   UNL     1       2.517   2.514  19.983  0.00  0.00    +0.000 A 
ENDROOT
BRANCH   6  13
ATOM     13  C   UNL     1       4.726   5.629  17.492  0.00  0.00    +0.000 A 
ATOM     14  C   UNL     1       4.634   6.346  16.275  0.00  0.00    +0.000 A 
ATOM     15  C   UNL     1       5.673   6.383  15.338  0.00  0.00    +0.000 A 
ATOM     16  C   UNL     1       6.824   5.660  15.596  0.00  0.00    +0.000 A 
ATOM     17  C   UNL     1       6.925   4.911  16.761  0.00  0.00    +0.000 A 
ATOM     18  C   UNL     1       5.894   4.890  17.705  0.00  0.00    +0.000 A 
BRANCH  16  19
ATOM     19  O   UNL     1       7.871   5.637  14.718  0.00  0.00    +0.000 OA
ATOM     20  H   UNL     1       7.541   5.884  13.836  0.00  0.00    +0.000 HD
ENDBRANCH  16  19
BRANCH  17  21
ATOM     21  O   UNL     1       8.047   4.158  16.993  0.00  0.00    +0.000 OA
ATOM     22  H   UNL     1       8.091   4.088  17.970  0.00  0.00    +0.000 HD
ENDBRANCH  17  21
BRANCH  18  23
ATOM     23  O   UNL     1       6.070   4.098  18.808  0.00  0.00    +0.000 OA
ATOM     24  H   UNL     1       6.951   4.348  19.155  0.00  0.00    +0.000 HD
ENDBRANCH  18  23
ENDBRANCH   6  13
TORSDOF 4
ENDMDL
MODEL 9
REMARK VINA RESULT:      -6.4      4.383      7.791
REMARK  Name = 
REMARK  4 active torsions:
REMARK  status: ('A' for Active; 'I' for Inactive)
REMARK    1  A    between atoms: C_6  and  C_7
REMARK    2  A    between atoms: C_10  and  O_11
REMARK    3  A    between atoms: C_12  and  O_13
REMARK    4  A    between atoms: C_14  and  O_15
REMARK                            x       y       z     vdW  Elec       q    Type
REMARK                         _______ _______ _______ _____ _____    ______ ____
ROOT
ATOM      1  O   UNL     1      -5.036  12.845  19.701  0.00  0.00    +0.000 OA
ATOM      2  C   UNL     1      -3.986  12.334  19.358  0.00  0.00    +0.000 C 
ATOM      3  C   UNL     1      -2.673  12.332  19.986  0.00  0.00    +0.000 A 
ATOM      4  S   UNL     1      -2.074  13.001  21.385  0.00  0.00    +0.000 S 
ATOM      5  C   UNL     1      -0.632  12.031  21.231  0.00  0.00    +0.000 A 
ATOM      6  C   UNL     1      -0.632  11.205  20.105  0.00  0.00    +0.000 A 
ATOM      7  C   UNL     1      -1.756  11.554  19.327  0.00  0.00    +0.000 A 
ATOM      8  N   UNL     1      -2.387  11.130  18.159  0.00  0.00    +0.000 N 
ATOM      9  C   UNL     1      -2.107  10.461  17.015  0.00  0.00    +0.000 A 
ATOM     10  C   UNL     1      -3.334  10.149  16.447  0.00  0.00    +0.000 A 
ATOM     11  C   UNL     1      -4.365  10.745  17.243  0.00  0.00    +0.000 A 
ATOM     12  C   UNL     1      -3.717  11.468  18.213  0.00  0.00    +0.000 A 
ENDROOT
BRANCH   6  13
ATOM     13  C   UNL     1       0.208   9.997  20.008  0.00  0.00    +0.000 A 
ATOM     14  C   UNL     1       0.247   9.117  21.116  0.00  0.00    +0.000 A 
ATOM     15  C   UNL     1       1.060   7.978  21.148  0.00  0.00    +0.000 A 
ATOM     16  C   UNL     1       1.886   7.722  20.069  0.00  0.00    +0.000 A 
ATOM     17  C   UNL     1       1.902   8.593  18.987  0.00  0.00    +0.000 A 
ATOM     18  C   UNL     1       1.076   9.720  18.947  0.00  0.00    +0.000 A 
BRANCH  16  19
ATOM     19  O   UNL     1       2.718   6.638  20.041  0.00  0.00    +0.000 OA
ATOM     20  H   UNL     1       2.363   5.960  20.642  0.00  0.00    +0.000 HD
ENDBRANCH  16  19
BRANCH  17  21
ATOM     21  O   UNL     1       2.755   8.363  17.939  0.00  0.00    +0.000 OA
ATOM     22  H   UNL     1       3.579   8.830  18.194  0.00  0.00    +0.000 HD
ENDBRANCH  17  21
BRANCH  18  23
ATOM     23  O   UNL     1       1.183  10.538  17.854  0.00  0.00    +0.000 OA
ATOM     24  H   UNL     1       1.062   9.943  17.086  0.00  0.00    +0.000 HD
ENDBRANCH  18  23
ENDBRANCH   6  13
TORSDOF 4
ENDMDL
