MODEL 1
REMARK VINA RESULT:      -6.3      0.000      0.000
REMARK  Name = 
REMARK  10 active torsions:
REMARK  status: ('A' for Active; 'I' for Inactive)
REMARK    1  A    between atoms: C_1  and  C_2
REMARK    2  A    between atoms: C_2  and  C_3
REMARK    3  A    between atoms: C_3  and  N_4
REMARK    4  A    between atoms: N_4  and  C_18
REMARK    5  A    between atoms: C_5  and  C_7
REMARK    6  A    between atoms: C_7  and  N_8
REMARK    7  A    between atoms: N_11  and  C_12
REMARK    8  A    between atoms: C_12  and  C_13
REMARK    9  A    between atoms: C_13  and  C_14
REMARK   10  A    between atoms: C_13  and  O_15
REMARK                            x       y       z     vdW  Elec       q    Type
REMARK                         _______ _______ _______ _____ _____    ______ ____
ROOT
ATOM      1  N   UNL     1       3.034   4.350  19.762  0.00  0.00    +0.000 N 
ATOM      2  C   UNL     1       4.367   3.874  19.737  0.00  0.00    +0.000 C 
ATOM      3  O   UNL     1       4.659   2.791  20.260  0.00  0.00    +0.000 OA
ENDROOT
BRANCH   1   4
ATOM      4  C   UNL     1       2.718   5.685  19.527  0.00  0.00    +0.000 C 
ATOM      5  C   UNL     1       2.310   6.477  20.536  0.00  0.00    +0.000 C 
ATOM      6  C   UNL     1       1.857   7.892  20.359  0.00  0.00    +0.000 C 
ATOM      7  C   UNL     1       1.593   8.260  18.898  0.00  0.00    +0.000 C 
ATOM      8  C   UNL     1       2.683   7.703  17.987  0.00  0.00    +0.000 C 
ATOM      9  C   UNL     1       2.775   6.178  18.098  0.00  0.00    +0.000 C 
ENDBRANCH   1   4
BRANCH   1  10
ATOM     10  C   UNL     1       2.069   3.550  20.553  0.00  0.00    +0.000 C 
BRANCH  10  12
ATOM     11  C   UNL     1       0.546   2.652  18.720  0.00  0.00    +0.000 C 
ATOM     12  C   UNL     1       1.517   2.307  19.840  0.00  0.00    +0.000 C 
ENDBRANCH  10  12
ENDBRANCH   1  10
BRANCH   2  13
ATOM     13  C   UNL     1       5.448   4.739  19.014  0.00  0.00    +0.000 C 
BRANCH  13  14
ATOM     14  N   UNL     1       6.057   4.022  17.861  0.00  0.00    +0.000 NA
ATOM     15  C   UNL     1       5.131   3.813  16.726  0.00  0.00    +0.000 C 
ATOM     16  C   UNL     1       5.013   4.950  15.658  0.00  0.00    +0.000 C 
ATOM     17  N   UNL     1       6.223   5.741  15.329  0.00  0.00    +0.000 NA
ATOM     18  C   UNL     1       6.978   5.977  16.583  0.00  0.00    +0.000 C 
ATOM     19  C   UNL     1       7.276   4.681  17.372  0.00  0.00    +0.000 C 
BRANCH  17  20
ATOM     20  C   UNL     1       7.127   5.130  14.338  0.00  0.00    +0.000 C 
BRANCH  20  21
ATOM     21  C   UNL     1       6.561   4.447  13.073  0.00  0.00    +0.000 C 
ATOM     22  C   UNL     1       7.413   4.591  11.822  0.00  0.00    +0.000 C 
BRANCH  21  23
ATOM     23  O   UNL     1       6.451   3.037  13.348  0.00  0.00    +0.000 OA
ATOM     24  H   UNL     1       6.547   2.563  12.505  0.00  0.00    +0.000 HD
ENDBRANCH  21  23
ENDBRANCH  20  21
ENDBRANCH  17  20
ENDBRANCH  13  14
ENDBRANCH   2  13
TORSDOF 8
ENDMDL
MODEL 2
REMARK VINA RESULT:      -6.2      1.162      1.723
REMARK  Name = 
REMARK  10 active torsions:
REMARK  status: ('A' for Active; 'I' for Inactive)
REMARK    1  A    between atoms: C_1  and  C_2
REMARK    2  A    between atoms: C_2  and  C_3
REMARK    3  A    between atoms: C_3  and  N_4
REMARK    4  A    between atoms: N_4  and  C_18
REMARK    5  A    between atoms: C_5  and  C_7
REMARK    6  A    between atoms: C_7  and  N_8
REMARK    7  A    between atoms: N_11  and  C_12
REMARK    8  A    between atoms: C_12  and  C_13
REMARK    9  A    between atoms: C_13  and  C_14
REMARK   10  A    between atoms: C_13  and  O_15
REMARK                            x       y       z     vdW  Elec       q    Type
REMARK                         _______ _______ _______ _____ _____    ______ ____
ROOT
ATOM      1  N   UNL     1       2.533   4.626  18.883  0.00  0.00    +0.000 N 
ATOM      2  C   UNL     1       3.834   4.068  18.849  0.00  0.00    +0.000 C 
ATOM      3  O   UNL     1       4.006   2.858  19.040  0.00  0.00    +0.000 OA
ENDROOT
BRANCH   1   4
ATOM      4  C   UNL     1       2.315   5.992  19.039  0.00  0.00    +0.000 C 
ATOM      5  C   UNL     1       2.121   6.516  20.264  0.00  0.00    +0.000 C 
ATOM      6  C   UNL     1       1.782   7.951  20.516  0.00  0.00    +0.000 C 
ATOM      7  C   UNL     1       1.360   8.700  19.252  0.00  0.00    +0.000 C 
ATOM      8  C   UNL     1       2.260   8.339  18.075  0.00  0.00    +0.000 C 
ATOM      9  C   UNL     1       2.224   6.835  17.786  0.00  0.00    +0.000 C 
ENDBRANCH   1   4
BRANCH   1  10
ATOM     10  C   UNL     1       1.440   3.710  19.286  0.00  0.00    +0.000 C 
BRANCH  10  12
ATOM     11  C   UNL     1       1.778   2.627  21.566  0.00  0.00    +0.000 C 
ATOM     12  C   UNL     1       1.090   3.735  20.781  0.00  0.00    +0.000 C 
ENDBRANCH  10  12
ENDBRANCH   1  10
BRANCH   2  13
ATOM     13  C   UNL     1       5.037   5.017  18.541  0.00  0.00    +0.000 C 
BRANCH  13  14
ATOM     14  N   UNL     1       4.964   5.582  17.167  0.00  0.00    +0.000 NA
ATOM     15  C   UNL     1       6.118   6.436  16.807  0.00  0.00    +0.000 C 
ATOM     16  C   UNL     1       7.383   5.740  16.203  0.00  0.00    +0.000 C 
ATOM     17  N   UNL     1       7.192   4.559  15.328  0.00  0.00    +0.000 NA
ATOM     18  C   UNL     1       6.092   3.739  15.889  0.00  0.00    +0.000 C 
ATOM     19  C   UNL     1       4.796   4.544  16.142  0.00  0.00    +0.000 C 
BRANCH  17  20
ATOM     20  C   UNL     1       6.889   4.860  13.917  0.00  0.00    +0.000 C 
BRANCH  20  21
ATOM     21  C   UNL     1       6.521   3.728  12.933  0.00  0.00    +0.000 C 
ATOM     22  C   UNL     1       5.064   3.693  12.500  0.00  0.00    +0.000 C 
BRANCH  21  23
ATOM     23  O   UNL     1       7.311   3.908  11.741  0.00  0.00    +0.000 OA
ATOM     24  H   UNL     1       8.233   3.692  11.963  0.00  0.00    +0.000 HD
ENDBRANCH  21  23
ENDBRANCH  20  21
ENDBRANCH  17  20
ENDBRANCH  13  14
ENDBRANCH   2  13
TORSDOF 8
ENDMDL
MODEL 3
REMARK VINA RESULT:      -6.1      1.049      1.192
REMARK  Name = 
REMARK  10 active torsions:
REMARK  status: ('A' for Active; 'I' for Inactive)
REMARK    1  A    between atoms: C_1  and  C_2
REMARK    2  A    between atoms: C_2  and  C_3
REMARK    3  A    between atoms: C_3  and  N_4
REMARK    4  A    between atoms: N_4  and  C_18
REMARK    5  A    between atoms: C_5  and  C_7
REMARK    6  A    between atoms: C_7  and  N_8
REMARK    7  A    between atoms: N_11  and  C_12
REMARK    8  A    between atoms: C_12  and  C_13
REMARK    9  A    between atoms: C_13  and  C_14
REMARK   10  A    between atoms: C_13  and  O_15
REMARK                            x       y       z     vdW  Elec       q    Type
REMARK                         _______ _______ _______ _____ _____    ______ ____
ROOT
ATOM      1  N   UNL     1       3.237   4.849  19.235  0.00  0.00    +0.000 N 
ATOM      2  C   UNL     1       4.605   4.508  19.357  0.00  0.00    +0.000 C 
ATOM      3  O   UNL     1       4.942   3.392  19.769  0.00  0.00    +0.000 OA
ENDROOT
BRANCH   1   4
ATOM      4  C   UNL     1       2.806   6.169  19.134  0.00  0.00    +0.000 C 
ATOM      5  C   UNL     1       2.270   6.795  20.199  0.00  0.00    +0.000 C 
ATOM      6  C   UNL     1       1.693   8.175  20.156  0.00  0.00    +0.000 C 
ATOM      7  C   UNL     1       1.472   8.689  18.733  0.00  0.00    +0.000 C 
ATOM      8  C   UNL     1       2.656   8.345  17.835  0.00  0.00    +0.000 C 
ATOM      9  C   UNL     1       2.889   6.831  17.777  0.00  0.00    +0.000 C 
ENDBRANCH   1   4
BRANCH   1  10
ATOM     10  C   UNL     1       2.267   3.853  19.749  0.00  0.00    +0.000 C 
BRANCH  10  12
ATOM     11  C   UNL     1       2.247   2.255  17.767  0.00  0.00    +0.000 C 
ATOM     12  C   UNL     1       1.420   3.155  18.675  0.00  0.00    +0.000 C 
ENDBRANCH  10  12
ENDBRANCH   1  10
BRANCH   2  13
ATOM     13  C   UNL     1       5.671   5.570  18.935  0.00  0.00    +0.000 C 
BRANCH  13  14
ATOM     14  N   UNL     1       6.615   5.038  17.916  0.00  0.00    +0.000 NA
ATOM     15  C   UNL     1       6.155   3.792  17.264  0.00  0.00    +0.000 C 
ATOM     16  C   UNL     1       5.234   3.920  16.006  0.00  0.00    +0.000 C 
ATOM     17  N   UNL     1       5.454   5.056  15.080  0.00  0.00    +0.000 NA
ATOM     18  C   UNL     1       5.780   6.256  15.886  0.00  0.00    +0.000 C 
ATOM     19  C   UNL     1       6.941   6.030  16.882  0.00  0.00    +0.000 C 
BRANCH  17  20
ATOM     20  C   UNL     1       6.515   4.856  14.076  0.00  0.00    +0.000 C 
BRANCH  20  21
ATOM     21  C   UNL     1       6.377   3.764  12.991  0.00  0.00    +0.000 C 
ATOM     22  C   UNL     1       4.986   3.614  12.397  0.00  0.00    +0.000 C 
BRANCH  21  23
ATOM     23  O   UNL     1       7.264   4.107  11.908  0.00  0.00    +0.000 OA
ATOM     24  H   UNL     1       6.855   4.836  11.411  0.00  0.00    +0.000 HD
ENDBRANCH  21  23
ENDBRANCH  20  21
ENDBRANCH  17  20
ENDBRANCH  13  14
ENDBRANCH   2  13
TORSDOF 8
ENDMDL
MODEL 4
REMARK VINA RESULT:      -6.1      3.651      7.775
REMARK  Name = 
REMARK  10 active torsions:
REMARK  status: ('A' for Active; 'I' for Inactive)
REMARK    1  A    between atoms: C_1  and  C_2
REMARK    2  A    between atoms: C_2  and  C_3
REMARK    3  A    between atoms: C_3  and  N_4
REMARK    4  A    between atoms: N_4  and  C_18
REMARK    5  A    between atoms: C_5  and  C_7
REMARK    6  A    between atoms: C_7  and  N_8
REMARK    7  A    between atoms: N_11  and  C_12
REMARK    8  A    between atoms: C_12  and  C_13
REMARK    9  A    between atoms: C_13  and  C_14
REMARK   10  A    between atoms: C_13  and  O_15
REMARK                            x       y       z     vdW  Elec       q    Type
REMARK                         _______ _______ _______ _____ _____    ______ ____
ROOT
ATOM      1  N   UNL     1       3.319   5.406  18.166  0.00  0.00    +0.000 N 
ATOM      2  C   UNL     1       3.132   6.799  18.003  0.00  0.00    +0.000 C 
ATOM      3  O   UNL     1       4.004   7.495  17.467  0.00  0.00    +0.000 OA
ENDROOT
BRANCH   1   4
ATOM      4  C   UNL     1       2.564   4.655  19.062  0.00  0.00    +0.000 C 
ATOM      5  C   UNL     1       2.770   4.765  20.387  0.00  0.00    +0.000 C 
ATOM      6  C   UNL     1       2.076   3.927  21.415  0.00  0.00    +0.000 C 
ATOM      7  C   UNL     1       1.354   2.719  20.817  0.00  0.00    +0.000 C 
ATOM      8  C   UNL     1       0.615   3.100  19.538  0.00  0.00    +0.000 C 
ATOM      9  C   UNL     1       1.576   3.664  18.486  0.00  0.00    +0.000 C 
ENDBRANCH   1   4
BRANCH   1  10
ATOM     10  C   UNL     1       4.651   4.877  17.786  0.00  0.00    +0.000 C 
BRANCH  10  12
ATOM     11  C   UNL     1       5.475   4.942  15.377  0.00  0.00    +0.000 C 
ATOM     12  C   UNL     1       4.702   4.159  16.429  0.00  0.00    +0.000 C 
ENDBRANCH  10  12
ENDBRANCH   1  10
BRANCH   2  13
ATOM     13  C   UNL     1       1.788   7.426  18.494  0.00  0.00    +0.000 C 
BRANCH  13  14
ATOM     14  N   UNL     1       2.010   8.624  19.349  0.00  0.00    +0.000 NA
ATOM     15  C   UNL     1       1.257   9.821  18.913  0.00  0.00    +0.000 C 
ATOM     16  C   UNL     1      -0.204  10.001  19.444  0.00  0.00    +0.000 C 
ATOM     17  N   UNL     1      -0.520   9.539  20.816  0.00  0.00    +0.000 NA
ATOM     18  C   UNL     1       0.206   8.269  21.057  0.00  0.00    +0.000 C 
ATOM     19  C   UNL     1       1.721   8.364  20.766  0.00  0.00    +0.000 C 
BRANCH  17  20
ATOM     20  C   UNL     1      -0.188  10.487  21.895  0.00  0.00    +0.000 C 
BRANCH  20  21
ATOM     21  C   UNL     1      -0.387  12.007  21.695  0.00  0.00    +0.000 C 
ATOM     22  C   UNL     1      -1.108  12.720  22.827  0.00  0.00    +0.000 C 
BRANCH  21  23
ATOM     23  O   UNL     1       0.917  12.609  21.579  0.00  0.00    +0.000 OA
ATOM     24  H   UNL     1       1.462  12.027  21.022  0.00  0.00    +0.000 HD
ENDBRANCH  21  23
ENDBRANCH  20  21
ENDBRANCH  17  20
ENDBRANCH  13  14
ENDBRANCH   2  13
TORSDOF 8
ENDMDL
MODEL 5
REMARK VINA RESULT:      -6.1      3.525      7.638
REMARK  Name = 
REMARK  10 active torsions:
REMARK  status: ('A' for Active; 'I' for Inactive)
REMARK    1  A    between atoms: C_1  and  C_2
REMARK    2  A    between atoms: C_2  and  C_3
REMARK    3  A    between atoms: C_3  and  N_4
REMARK    4  A    between atoms: N_4  and  C_18
REMARK    5  A    between atoms: C_5  and  C_7
REMARK    6  A    between atoms: C_7  and  N_8
REMARK    7  A    between atoms: N_11  and  C_12
REMARK    8  A    between atoms: C_12  and  C_13
REMARK    9  A    between atoms: C_13  and  C_14
REMARK   10  A    between atoms: C_13  and  O_15
REMARK                            x       y       z     vdW  Elec       q    Type
REMARK                         _______ _______ _______ _____ _____    ______ ____
ROOT
ATOM      1  N   UNL     1       3.523   5.286  17.969  0.00  0.00    +0.000 N 
ATOM      2  C   UNL     1       3.384   6.674  17.723  0.00  0.00    +0.000 C 
ATOM      3  O   UNL     1       4.299   7.314  17.190  0.00  0.00    +0.000 OA
ENDROOT
BRANCH   1   4
ATOM      4  C   UNL     1       2.708   4.607  18.870  0.00  0.00    +0.000 C 
ATOM      5  C   UNL     1       2.880   4.762  20.196  0.00  0.00    +0.000 C 
ATOM      6  C   UNL     1       2.119   3.998  21.234  0.00  0.00    +0.000 C 
ATOM      7  C   UNL     1       1.360   2.800  20.662  0.00  0.00    +0.000 C 
ATOM      8  C   UNL     1       0.677   3.161  19.346  0.00  0.00    +0.000 C 
ATOM      9  C   UNL     1       1.693   3.638  18.304  0.00  0.00    +0.000 C 
ENDBRANCH   1   4
BRANCH   1  10
ATOM     10  C   UNL     1       4.853   4.701  17.677  0.00  0.00    +0.000 C 
BRANCH  10  12
ATOM     11  C   UNL     1       6.325   4.065  15.699  0.00  0.00    +0.000 C 
ATOM     12  C   UNL     1       4.952   3.945  16.344  0.00  0.00    +0.000 C 
ENDBRANCH  10  12
ENDBRANCH   1  10
BRANCH   2  13
ATOM     13  C   UNL     1       2.040   7.363  18.121  0.00  0.00    +0.000 C 
BRANCH  13  14
ATOM     14  N   UNL     1       2.260   8.579  18.949  0.00  0.00    +0.000 NA
ATOM     15  C   UNL     1       1.666   9.810  18.381  0.00  0.00    +0.000 C 
ATOM     16  C   UNL     1       0.174  10.129  18.725  0.00  0.00    +0.000 C 
ATOM     17  N   UNL     1      -0.339   9.759  20.065  0.00  0.00    +0.000 NA
ATOM     18  C   UNL     1       0.245   8.449  20.440  0.00  0.00    +0.000 C 
ATOM     19  C   UNL     1       1.786   8.410  20.330  0.00  0.00    +0.000 C 
BRANCH  17  20
ATOM     20  C   UNL     1      -0.057  10.729  21.139  0.00  0.00    +0.000 C 
BRANCH  20  21
ATOM     21  C   UNL     1      -0.725  10.585  22.525  0.00  0.00    +0.000 C 
ATOM     22  C   UNL     1      -0.052   9.601  23.469  0.00  0.00    +0.000 C 
BRANCH  21  23
ATOM     23  O   UNL     1      -0.690  11.875  23.165  0.00  0.00    +0.000 OA
ATOM     24  H   UNL     1      -0.811  12.551  22.476  0.00  0.00    +0.000 HD
ENDBRANCH  21  23
ENDBRANCH  20  21
ENDBRANCH  17  20
ENDBRANCH  13  14
ENDBRANCH   2  13
TORSDOF 8
ENDMDL
MODEL 6
REMARK VINA RESULT:      -6.1      1.002      1.062
REMARK  Name = 
REMARK  10 active torsions:
REMARK  status: ('A' for Active; 'I' for Inactive)
REMARK    1  A    between atoms: C_1  and  C_2
REMARK    2  A    between atoms: C_2  and  C_3
REMARK    3  A    between atoms: C_3  and  N_4
REMARK    4  A    between atoms: N_4  and  C_18
REMARK    5  A    between atoms: C_5  and  C_7
REMARK    6  A    between atoms: C_7  and  N_8
REMARK    7  A    between atoms: N_11  and  C_12
REMARK    8  A    between atoms: C_12  and  C_13
REMARK    9  A    between atoms: C_13  and  C_14
REMARK   10  A    between atoms: C_13  and  O_15
REMARK                            x       y       z     vdW  Elec       q    Type
REMARK                         _______ _______ _______ _____ _____    ______ ____
ROOT
ATOM      1  N   UNL     1       2.488   4.895  19.725  0.00  0.00    +0.000 N 
ATOM      2  C   UNL     1       3.767   4.332  19.954  0.00  0.00    +0.000 C 
ATOM      3  O   UNL     1       3.882   3.228  20.500  0.00  0.00    +0.000 OA
ENDROOT
BRANCH   1   4
ATOM      4  C   UNL     1       2.308   6.250  19.463  0.00  0.00    +0.000 C 
ATOM      5  C   UNL     1       1.876   7.081  20.429  0.00  0.00    +0.000 C 
ATOM      6  C   UNL     1       1.562   8.528  20.211  0.00  0.00    +0.000 C 
ATOM      7  C   UNL     1       1.466   8.905  18.733  0.00  0.00    +0.000 C 
ATOM      8  C   UNL     1       2.585   8.252  17.926  0.00  0.00    +0.000 C 
ATOM      9  C   UNL     1       2.537   6.725  18.045  0.00  0.00    +0.000 C 
ENDBRANCH   1   4
BRANCH   1  10
ATOM     10  C   UNL     1       1.337   4.152  20.293  0.00  0.00    +0.000 C 
BRANCH  10  12
ATOM     11  C   UNL     1       1.226   2.180  18.686  0.00  0.00    +0.000 C 
ATOM     12  C   UNL     1       0.493   3.380  19.268  0.00  0.00    +0.000 C 
ENDBRANCH  10  12
ENDBRANCH   1  10
BRANCH   2  13
ATOM     13  C   UNL     1       5.021   5.133  19.477  0.00  0.00    +0.000 C 
BRANCH  13  14
ATOM     14  N   UNL     1       5.907   4.314  18.605  0.00  0.00    +0.000 NA
ATOM     15  C   UNL     1       5.205   3.667  17.474  0.00  0.00    +0.000 C 
ATOM     16  C   UNL     1       5.043   4.483  16.149  0.00  0.00    +0.000 C 
ATOM     17  N   UNL     1       6.129   5.411  15.752  0.00  0.00    +0.000 NA
ATOM     18  C   UNL     1       6.643   6.075  16.974  0.00  0.00    +0.000 C 
ATOM     19  C   UNL     1       7.048   5.081  18.087  0.00  0.00    +0.000 C 
BRANCH  17  20
ATOM     20  C   UNL     1       7.259   4.791  15.037  0.00  0.00    +0.000 C 
BRANCH  20  21
ATOM     21  C   UNL     1       7.110   4.344  13.566  0.00  0.00    +0.000 C 
ATOM     22  C   UNL     1       5.687   4.054  13.118  0.00  0.00    +0.000 C 
BRANCH  21  23
ATOM     23  O   UNL     1       7.607   5.408  12.731  0.00  0.00    +0.000 OA
ATOM     24  H   UNL     1       6.862   5.742  12.203  0.00  0.00    +0.000 HD
ENDBRANCH  21  23
ENDBRANCH  20  21
ENDBRANCH  17  20
ENDBRANCH  13  14
ENDBRANCH   2  13
TORSDOF 8
ENDMDL
MODEL 7
REMARK VINA RESULT:      -6.0      1.424      3.213
REMARK  Name = 
REMARK  10 active torsions:
REMARK  status: ('A' for Active; 'I' for Inactive)
REMARK    1  A    between atoms: C_1  and  C_2
REMARK    2  A    between atoms: C_2  and  C_3
REMARK    3  A    between atoms: C_3  and  N_4
REMARK    4  A    between atoms: N_4  and  C_18
REMARK    5  A    between atoms: C_5  and  C_7
REMARK    6  A    between atoms: C_7  and  N_8
REMARK    7  A    between atoms: N_11  and  C_12
REMARK    8  A    between atoms: C_12  and  C_13
REMARK    9  A    between atoms: C_13  and  C_14
REMARK   10  A    between atoms: C_13  and  O_15
REMARK                            x       y       z     vdW  Elec       q    Type
REMARK                         _______ _______ _______ _____ _____    ______ ____
ROOT
ATOM      1  N   UNL     1       2.985   6.282  18.800  0.00  0.00    +0.000 N 
ATOM      2  C   UNL     1       4.335   6.316  18.376  0.00  0.00    +0.000 C 
ATOM      3  O   UNL     1       4.730   7.193  17.598  0.00  0.00    +0.000 OA
ENDROOT
BRANCH   1   4
ATOM      4  C   UNL     1       2.410   5.145  19.360  0.00  0.00    +0.000 C 
ATOM      5  C   UNL     1       2.461   4.938  20.689  0.00  0.00    +0.000 C 
ATOM      6  C   UNL     1       1.959   3.701  21.363  0.00  0.00    +0.000 C 
ATOM      7  C   UNL     1       1.676   2.558  20.388  0.00  0.00    +0.000 C 
ATOM      8  C   UNL     1       0.969   3.067  19.137  0.00  0.00    +0.000 C 
ATOM      9  C   UNL     1       1.808   4.128  18.416  0.00  0.00    +0.000 C 
ENDBRANCH   1   4
BRANCH   1  10
ATOM     10  C   UNL     1       2.074   7.260  18.158  0.00  0.00    +0.000 C 
BRANCH  10  12
ATOM     11  C   UNL     1       1.351   9.701  18.127  0.00  0.00    +0.000 C 
ATOM     12  C   UNL     1       1.791   8.524  18.984  0.00  0.00    +0.000 C 
ENDBRANCH  10  12
ENDBRANCH   1  10
BRANCH   2  13
ATOM     13  C   UNL     1       5.312   5.232  18.935  0.00  0.00    +0.000 C 
BRANCH  13  14
ATOM     14  N   UNL     1       5.704   4.244  17.895  0.00  0.00    +0.000 NA
ATOM     15  C   UNL     1       4.777   4.184  16.743  0.00  0.00    +0.000 C 
ATOM     16  C   UNL     1       5.016   5.178  15.558  0.00  0.00    +0.000 C 
ATOM     17  N   UNL     1       6.409   5.543  15.210  0.00  0.00    +0.000 NA
ATOM     18  C   UNL     1       7.179   5.691  16.468  0.00  0.00    +0.000 C 
ATOM     19  C   UNL     1       7.071   4.462  17.401  0.00  0.00    +0.000 C 
BRANCH  17  20
ATOM     20  C   UNL     1       7.112   4.589  14.333  0.00  0.00    +0.000 C 
BRANCH  20  21
ATOM     21  C   UNL     1       6.537   4.225  12.946  0.00  0.00    +0.000 C 
ATOM     22  C   UNL     1       7.463   4.490  11.770  0.00  0.00    +0.000 C 
BRANCH  21  23
ATOM     23  O   UNL     1       6.249   2.813  12.947  0.00  0.00    +0.000 OA
ATOM     24  H   UNL     1       5.759   2.611  12.131  0.00  0.00    +0.000 HD
ENDBRANCH  21  23
ENDBRANCH  20  21
ENDBRANCH  17  20
ENDBRANCH  13  14
ENDBRANCH   2  13
TORSDOF 8
ENDMDL
MODEL 8
REMARK VINA RESULT:      -6.0      0.760      1.337
REMARK  Name = 
REMARK  10 active torsions:
REMARK  status: ('A' for Active; 'I' for Inactive)
REMARK    1  A    between atoms: C_1  and  C_2
REMARK    2  A    between atoms: C_2  and  C_3
REMARK    3  A    between atoms: C_3  and  N_4
REMARK    4  A    between atoms: N_4  and  C_18
REMARK    5  A    between atoms: C_5  and  C_7
REMARK    6  A    between atoms: C_7  and  N_8
REMARK    7  A    between atoms: N_11  and  C_12
REMARK    8  A    between atoms: C_12  and  C_13
REMARK    9  A    between atoms: C_13  and  C_14
REMARK   10  A    between atoms: C_13  and  O_15
REMARK                            x       y       z     vdW  Elec       q    Type
REMARK                         _______ _______ _______ _____ _____    ______ ____
ROOT
ATOM      1  N   UNL     1       3.028   4.389  19.700  0.00  0.00    +0.000 N 
ATOM      2  C   UNL     1       4.381   3.981  19.618  0.00  0.00    +0.000 C 
ATOM      3  O   UNL     1       4.772   2.969  20.214  0.00  0.00    +0.000 OA
ENDROOT
BRANCH   1   4
ATOM      4  C   UNL     1       2.620   5.678  19.369  0.00  0.00    +0.000 C 
ATOM      5  C   UNL     1       2.541   6.059  18.080  0.00  0.00    +0.000 C 
ATOM      6  C   UNL     1       2.208   7.448  17.637  0.00  0.00    +0.000 C 
ATOM      7  C   UNL     1       2.280   8.473  18.769  0.00  0.00    +0.000 C 
ATOM      8  C   UNL     1       1.652   7.925  20.046  0.00  0.00    +0.000 C 
ATOM      9  C   UNL     1       2.353   6.641  20.504  0.00  0.00    +0.000 C 
ENDBRANCH   1   4
BRANCH   1  10
ATOM     10  C   UNL     1       2.169   3.621  20.633  0.00  0.00    +0.000 C 
BRANCH  10  12
ATOM     11  C   UNL     1       1.052   2.361  18.723  0.00  0.00    +0.000 C 
ATOM     12  C   UNL     1       0.851   3.111  20.032  0.00  0.00    +0.000 C 
ENDBRANCH  10  12
ENDBRANCH   1  10
BRANCH   2  13
ATOM     13  C   UNL     1       5.356   4.827  18.737  0.00  0.00    +0.000 C 
BRANCH  13  14
ATOM     14  N   UNL     1       5.982   4.014  17.660  0.00  0.00    +0.000 NA
ATOM     15  C   UNL     1       5.016   3.462  16.685  0.00  0.00    +0.000 C 
ATOM     16  C   UNL     1       4.619   4.354  15.462  0.00  0.00    +0.000 C 
ATOM     17  N   UNL     1       5.645   5.248  14.875  0.00  0.00    +0.000 NA
ATOM     18  C   UNL     1       6.449   5.821  15.981  0.00  0.00    +0.000 C 
ATOM     19  C   UNL     1       7.027   4.752  16.937  0.00  0.00    +0.000 C 
BRANCH  17  20
ATOM     20  C   UNL     1       6.556   4.613  13.905  0.00  0.00    +0.000 C 
BRANCH  20  21
ATOM     21  C   UNL     1       6.078   3.429  13.035  0.00  0.00    +0.000 C 
ATOM     22  C   UNL     1       4.917   3.737  12.103  0.00  0.00    +0.000 C 
BRANCH  21  23
ATOM     23  O   UNL     1       7.185   3.017  12.209  0.00  0.00    +0.000 OA
ATOM     24  H   UNL     1       7.726   2.398  12.727  0.00  0.00    +0.000 HD
ENDBRANCH  21  23
ENDBRANCH  20  21
ENDBRANCH  17  20
ENDBRANCH  13  14
ENDBRANCH   2  13
TORSDOF 8
ENDMDL
MODEL 9
REMARK VINA RESULT:      -5.9      1.768      3.509
REMARK  Name = 
REMARK  10 active torsions:
REMARK  status: ('A' for Active; 'I' for Inactive)
REMARK    1  A    between atoms: C_1  and  C_2
REMARK    2  A    between atoms: C_2  and  C_3
REMARK    3  A    between atoms: C_3  and  N_4
REMARK    4  A    between atoms: N_4  and  C_18
REMARK    5  A    between atoms: C_5  and  C_7
REMARK    6  A    between atoms: C_7  and  N_8
REMARK    7  A    between atoms: N_11  and  C_12
REMARK    8  A    between atoms: C_12  and  C_13
REMARK    9  A    between atoms: C_13  and  C_14
REMARK   10  A    between atoms: C_13  and  O_15
REMARK                            x       y       z     vdW  Elec       q    Type
REMARK                         _______ _______ _______ _____ _____    ______ ____
ROOT
ATOM      1  N   UNL     1       2.435   6.606  19.383  0.00  0.00    +0.000 N 
ATOM      2  C   UNL     1       3.491   6.983  18.519  0.00  0.00    +0.000 C 
ATOM      3  O   UNL     1       3.510   8.106  18.000  0.00  0.00    +0.000 OA
ENDROOT
BRANCH   1   4
ATOM      4  C   UNL     1       2.168   5.275  19.693  0.00  0.00    +0.000 C 
ATOM      5  C   UNL     1       2.328   4.823  20.951  0.00  0.00    +0.000 C 
ATOM      6  C   UNL     1       2.160   3.391  21.353  0.00  0.00    +0.000 C 
ATOM      7  C   UNL     1       2.108   2.435  20.162  0.00  0.00    +0.000 C 
ATOM      8  C   UNL     1       1.244   3.003  19.040  0.00  0.00    +0.000 C 
ATOM      9  C   UNL     1       1.778   4.356  18.557  0.00  0.00    +0.000 C 
ENDBRANCH   1   4
BRANCH   1  10
ATOM     10  C   UNL     1       1.317   7.572  19.510  0.00  0.00    +0.000 C 
BRANCH  10  12
ATOM     11  C   UNL     1       0.002   8.460  21.500  0.00  0.00    +0.000 C 
ATOM     12  C   UNL     1       1.343   8.432  20.782  0.00  0.00    +0.000 C 
ENDBRANCH  10  12
ENDBRANCH   1  10
BRANCH   2  13
ATOM     13  C   UNL     1       4.637   5.953  18.260  0.00  0.00    +0.000 C 
BRANCH  13  14
ATOM     14  N   UNL     1       5.545   6.392  17.166  0.00  0.00    +0.000 NA
ATOM     15  C   UNL     1       6.920   5.856  17.275  0.00  0.00    +0.000 C 
ATOM     16  C   UNL     1       7.213   4.455  16.642  0.00  0.00    +0.000 C 
ATOM     17  N   UNL     1       6.501   4.078  15.398  0.00  0.00    +0.000 NA
ATOM     18  C   UNL     1       5.106   4.572  15.494  0.00  0.00    +0.000 C 
ATOM     19  C   UNL     1       5.011   6.077  15.834  0.00  0.00    +0.000 C 
BRANCH  17  20
ATOM     20  C   UNL     1       7.099   4.583  14.149  0.00  0.00    +0.000 C 
BRANCH  20  21
ATOM     21  C   UNL     1       6.516   4.176  12.777  0.00  0.00    +0.000 C 
ATOM     22  C   UNL     1       7.399   4.488  11.580  0.00  0.00    +0.000 C 
BRANCH  21  23
ATOM     23  O   UNL     1       6.313   2.750  12.792  0.00  0.00    +0.000 OA
ATOM     24  H   UNL     1       5.473   2.566  12.339  0.00  0.00    +0.000 HD
ENDBRANCH  21  23
ENDBRANCH  20  21
ENDBRANCH  17  20
ENDBRANCH  13  14
ENDBRANCH   2  13
TORSDOF 8
ENDMDL
