MODEL 1
REMARK VINA RESULT:      -7.7      0.000      0.000
REMARK  Name = 
REMARK  8 active torsions:
REMARK  status: ('A' for Active; 'I' for Inactive)
REMARK    1  A    between atoms: C_1  and  C_2
REMARK    2  A    between atoms: C_2  and  O_4
REMARK    3  A    between atoms: O_4  and  C_5
REMARK    4  A    between atoms: C_8  and  C_9
REMARK    5  A    between atoms: C_11  and  C_12
REMARK    6  A    between atoms: C_13  and  C_14
REMARK    7  A    between atoms: C_17  and  O_18
REMARK    8  A    between atoms: O_18  and  C_19
REMARK                            x       y       z     vdW  Elec       q    Type
REMARK                         _______ _______ _______ _____ _____    ______ ____
ROOT
ATOM      1  C   UNL     1       2.311   7.341  19.112  0.00  0.00    +0.000 A 
ATOM      2  C   UNL     1       2.229   8.053  17.900  0.00  0.00    +0.000 A 
ATOM      3  C   UNL     1       1.542   9.275  17.800  0.00  0.00    +0.000 A 
ATOM      4  C   UNL     1       0.965   9.853  18.930  0.00  0.00    +0.000 A 
ATOM      5  C   UNL     1       1.148   9.236  20.162  0.00  0.00    +0.000 A 
ATOM      6  C   UNL     1       1.735   7.972  20.232  0.00  0.00    +0.000 A 
ENDROOT
BRANCH   1  15
ATOM      7  C   UNL     1       4.265   5.701  18.819  0.00  0.00    +0.000 A 
ATOM      8  C   UNL     1       4.831   4.409  18.912  0.00  0.00    +0.000 A 
ATOM      9 CL   UNL     1       6.508   4.114  18.584  0.00  0.00    +0.000 Cl
ATOM     10  C   UNL     1       4.023   3.373  19.357  0.00  0.00    +0.000 A 
ATOM     11  C   UNL     1       4.477   1.951  19.480  0.00  0.00    +0.000 C 
ATOM     12  N   UNL     1       2.759   3.598  19.778  0.00  0.00    +0.000 NA
ATOM     13  C   UNL     1       2.245   4.863  19.754  0.00  0.00    +0.000 A 
ATOM     14  C   UNL     1       0.890   4.927  20.405  0.00  0.00    +0.000 C 
ATOM     15  C   UNL     1       2.936   5.981  19.231  0.00  0.00    +0.000 A 
BRANCH   7  16
ATOM     16  O   UNL     1       5.122   6.777  18.472  0.00  0.00    +0.000 OA
BRANCH  16  18
ATOM     17  C   UNL     1       7.022   7.262  17.172  0.00  0.00    +0.000 C 
ATOM     18  C   UNL     1       5.584   6.814  17.160  0.00  0.00    +0.000 C 
ATOM     19  O   UNL     1       4.952   6.492  16.166  0.00  0.00    +0.000 OA
ENDBRANCH  16  18
ENDBRANCH   7  16
ENDBRANCH   1  15
BRANCH   4  20
ATOM     20  O   UNL     1       0.255  11.016  18.761  0.00  0.00    +0.000 OA
BRANCH  20  21
ATOM     21  C   UNL     1      -1.095  10.941  18.479  0.00  0.00    +0.000 A 
ATOM     22  C   UNL     1      -1.909  11.899  19.093  0.00  0.00    +0.000 A 
ATOM     23  C   UNL     1      -3.290  11.890  18.878  0.00  0.00    +0.000 A 
ATOM     24  C   UNL     1      -3.857  10.920  18.053  0.00  0.00    +0.000 A 
ATOM     25 CL   UNL     1      -5.560  10.888  17.809  0.00  0.00    +0.000 Cl
ATOM     26  C   UNL     1      -3.053   9.978  17.417  0.00  0.00    +0.000 A 
ATOM     27  C   UNL     1      -1.671  10.009  17.605  0.00  0.00    +0.000 A 
ENDBRANCH  20  21
ENDBRANCH   4  20
TORSDOF 5
ENDMDL
MODEL 2
REMARK VINA RESULT:      -7.4      3.919      7.552
REMARK  Name = 
REMARK  8 active torsions:
REMARK  status: ('A' for Active; 'I' for Inactive)
REMARK    1  A    between atoms: C_1  and  C_2
REMARK    2  A    between atoms: C_2  and  O_4
REMARK    3  A    between atoms: O_4  and  C_5
REMARK    4  A    between atoms: C_8  and  C_9
REMARK    5  A    between atoms: C_11  and  C_12
REMARK    6  A    between atoms: C_13  and  C_14
REMARK    7  A    between atoms: C_17  and  O_18
REMARK    8  A    between atoms: O_18  and  C_19
REMARK                            x       y       z     vdW  Elec       q    Type
REMARK                         _______ _______ _______ _____ _____    ______ ____
ROOT
ATOM      1  C   UNL     1       5.738   6.097  18.054  0.00  0.00    +0.000 A 
ATOM      2  C   UNL     1       6.987   5.992  18.698  0.00  0.00    +0.000 A 
ATOM      3  C   UNL     1       8.003   6.945  18.511  0.00  0.00    +0.000 A 
ATOM      4  C   UNL     1       7.777   8.068  17.717  0.00  0.00    +0.000 A 
ATOM      5  C   UNL     1       6.510   8.261  17.180  0.00  0.00    +0.000 A 
ATOM      6  C   UNL     1       5.545   7.259  17.281  0.00  0.00    +0.000 A 
ENDROOT
BRANCH   1  15
ATOM      7  C   UNL     1       3.604   5.096  19.071  0.00  0.00    +0.000 A 
ATOM      8  C   UNL     1       2.623   4.082  19.158  0.00  0.00    +0.000 A 
ATOM      9 CL   UNL     1       1.219   4.244  20.164  0.00  0.00    +0.000 Cl
ATOM     10  C   UNL     1       2.765   2.966  18.347  0.00  0.00    +0.000 A 
ATOM     11  C   UNL     1       1.821   1.803  18.352  0.00  0.00    +0.000 C 
ATOM     12  N   UNL     1       3.756   2.882  17.432  0.00  0.00    +0.000 NA
ATOM     13  C   UNL     1       4.656   3.901  17.305  0.00  0.00    +0.000 A 
ATOM     14  C   UNL     1       5.578   3.687  16.135  0.00  0.00    +0.000 C 
ATOM     15  C   UNL     1       4.673   5.043  18.140  0.00  0.00    +0.000 A 
BRANCH   7  16
ATOM     16  O   UNL     1       3.396   6.285  19.818  0.00  0.00    +0.000 OA
BRANCH  16  18
ATOM     17  C   UNL     1       1.732   7.796  20.511  0.00  0.00    +0.000 C 
ATOM     18  C   UNL     1       2.437   7.170  19.337  0.00  0.00    +0.000 C 
ATOM     19  O   UNL     1       2.230   7.438  18.163  0.00  0.00    +0.000 OA
ENDBRANCH  16  18
ENDBRANCH   7  16
ENDBRANCH   1  15
BRANCH   4  20
ATOM     20  O   UNL     1       8.825   8.933  17.521  0.00  0.00    +0.000 OA
BRANCH  20  21
ATOM     21  C   UNL     1       8.953  10.029  18.351  0.00  0.00    +0.000 A 
ATOM     22  C   UNL     1       8.748  11.280  17.761  0.00  0.00    +0.000 A 
ATOM     23  C   UNL     1       8.873  12.446  18.522  0.00  0.00    +0.000 A 
ATOM     24  C   UNL     1       9.208  12.360  19.872  0.00  0.00    +0.000 A 
ATOM     25 CL   UNL     1       9.391  13.794  20.805  0.00  0.00    +0.000 Cl
ATOM     26  C   UNL     1       9.389  11.119  20.476  0.00  0.00    +0.000 A 
ATOM     27  C   UNL     1       9.229   9.955  19.724  0.00  0.00    +0.000 A 
ENDBRANCH  20  21
ENDBRANCH   4  20
TORSDOF 5
ENDMDL
MODEL 3
REMARK VINA RESULT:      -7.4      3.207      4.414
REMARK  Name = 
REMARK  8 active torsions:
REMARK  status: ('A' for Active; 'I' for Inactive)
REMARK    1  A    between atoms: C_1  and  C_2
REMARK    2  A    between atoms: C_2  and  O_4
REMARK    3  A    between atoms: O_4  and  C_5
REMARK    4  A    between atoms: C_8  and  C_9
REMARK    5  A    between atoms: C_11  and  C_12
REMARK    6  A    between atoms: C_13  and  C_14
REMARK    7  A    between atoms: C_17  and  O_18
REMARK    8  A    between atoms: O_18  and  C_19
REMARK                            x       y       z     vdW  Elec       q    Type
REMARK                         _______ _______ _______ _____ _____    ______ ____
ROOT
ATOM      1  C   UNL     1       1.504   7.866  20.774  0.00  0.00    +0.000 A 
ATOM      2  C   UNL     1       2.081   8.660  21.784  0.00  0.00    +0.000 A 
ATOM      3  C   UNL     1       1.299   9.422  22.670  0.00  0.00    +0.000 A 
ATOM      4  C   UNL     1      -0.092   9.363  22.609  0.00  0.00    +0.000 A 
ATOM      5  C   UNL     1      -0.684   8.485  21.710  0.00  0.00    +0.000 A 
ATOM      6  C   UNL     1       0.095   7.818  20.764  0.00  0.00    +0.000 A 
ENDROOT
BRANCH   1  15
ATOM      7  C   UNL     1       2.829   5.829  19.948  0.00  0.00    +0.000 A 
ATOM      8  C   UNL     1       3.607   5.160  18.974  0.00  0.00    +0.000 A 
ATOM      9 CL   UNL     1       4.082   3.502  19.158  0.00  0.00    +0.000 Cl
ATOM     10  C   UNL     1       3.922   5.843  17.810  0.00  0.00    +0.000 A 
ATOM     11  C   UNL     1       4.760   5.273  16.706  0.00  0.00    +0.000 C 
ATOM     12  N   UNL     1       3.430   7.077  17.561  0.00  0.00    +0.000 NA
ATOM     13  C   UNL     1       2.618   7.684  18.476  0.00  0.00    +0.000 A 
ATOM     14  C   UNL     1       2.053   8.976  17.948  0.00  0.00    +0.000 C 
ATOM     15  C   UNL     1       2.306   7.131  19.740  0.00  0.00    +0.000 A 
BRANCH   7  16
ATOM     16  O   UNL     1       2.414   5.090  21.086  0.00  0.00    +0.000 OA
BRANCH  16  18
ATOM     17  C   UNL     1       1.799   2.927  21.775  0.00  0.00    +0.000 C 
ATOM     18  C   UNL     1       1.470   4.090  20.877  0.00  0.00    +0.000 C 
ATOM     19  O   UNL     1       0.506   4.157  20.131  0.00  0.00    +0.000 OA
ENDBRANCH  16  18
ENDBRANCH   7  16
ENDBRANCH   1  15
BRANCH   4  20
ATOM     20  O   UNL     1      -0.804  10.174  23.458  0.00  0.00    +0.000 OA
BRANCH  20  21
ATOM     21  C   UNL     1      -1.316  11.363  22.976  0.00  0.00    +0.000 A 
ATOM     22  C   UNL     1      -2.563  11.748  23.479  0.00  0.00    +0.000 A 
ATOM     23  C   UNL     1      -3.166  12.928  23.036  0.00  0.00    +0.000 A 
ATOM     24  C   UNL     1      -2.524  13.721  22.086  0.00  0.00    +0.000 A 
ATOM     25 CL   UNL     1      -3.276  15.160  21.516  0.00  0.00    +0.000 Cl
ATOM     26  C   UNL     1      -1.271  13.360  21.598  0.00  0.00    +0.000 A 
ATOM     27  C   UNL     1      -0.654  12.200  22.067  0.00  0.00    +0.000 A 
ENDBRANCH  20  21
ENDBRANCH   4  20
TORSDOF 5
ENDMDL
MODEL 4
REMARK VINA RESULT:      -7.4      3.402      8.261
REMARK  Name = 
REMARK  8 active torsions:
REMARK  status: ('A' for Active; 'I' for Inactive)
REMARK    1  A    between atoms: C_1  and  C_2
REMARK    2  A    between atoms: C_2  and  O_4
REMARK    3  A    between atoms: O_4  and  C_5
REMARK    4  A    between atoms: C_8  and  C_9
REMARK    5  A    between atoms: C_11  and  C_12
REMARK    6  A    between atoms: C_13  and  C_14
REMARK    7  A    between atoms: C_17  and  O_18
REMARK    8  A    between atoms: O_18  and  C_19
REMARK                            x       y       z     vdW  Elec       q    Type
REMARK                         _______ _______ _______ _____ _____    ______ ____
ROOT
ATOM      1  C   UNL     1       0.566  10.204  19.393  0.00  0.00    +0.000 A 
ATOM      2  C   UNL     1       1.136  10.074  18.111  0.00  0.00    +0.000 A 
ATOM      3  C   UNL     1       2.038   9.042  17.798  0.00  0.00    +0.000 A 
ATOM      4  C   UNL     1       2.350   8.069  18.747  0.00  0.00    +0.000 A 
ATOM      5  C   UNL     1       1.698   8.100  19.973  0.00  0.00    +0.000 A 
ATOM      6  C   UNL     1       0.891   9.186  20.312  0.00  0.00    +0.000 A 
ENDROOT
BRANCH   1  15
ATOM      7  C   UNL     1       0.118  12.379  20.680  0.00  0.00    +0.000 A 
ATOM      8  C   UNL     1      -0.727  13.443  21.073  0.00  0.00    +0.000 A 
ATOM      9 CL   UNL     1      -0.142  14.787  22.000  0.00  0.00    +0.000 Cl
ATOM     10  C   UNL     1      -2.039  13.432  20.626  0.00  0.00    +0.000 A 
ATOM     11  C   UNL     1      -3.053  14.475  20.983  0.00  0.00    +0.000 C 
ATOM     12  N   UNL     1      -2.483  12.487  19.767  0.00  0.00    +0.000 NA
ATOM     13  C   UNL     1      -1.638  11.506  19.335  0.00  0.00    +0.000 A 
ATOM     14  C   UNL     1      -2.273  10.651  18.271  0.00  0.00    +0.000 C 
ATOM     15  C   UNL     1      -0.309  11.355  19.796  0.00  0.00    +0.000 A 
BRANCH   7  16
ATOM     16  O   UNL     1       1.488  12.451  21.045  0.00  0.00    +0.000 OA
BRANCH  16  18
ATOM     17  C   UNL     1       3.255  14.001  21.148  0.00  0.00    +0.000 C 
ATOM     18  C   UNL     1       2.308  13.247  20.252  0.00  0.00    +0.000 C 
ATOM     19  O   UNL     1       2.302  13.293  19.031  0.00  0.00    +0.000 OA
ENDBRANCH  16  18
ENDBRANCH   7  16
ENDBRANCH   1  15
BRANCH   4  20
ATOM     20  O   UNL     1       3.283   7.121  18.405  0.00  0.00    +0.000 OA
BRANCH  20  21
ATOM     21  C   UNL     1       3.001   5.790  18.643  0.00  0.00    +0.000 A 
ATOM     22  C   UNL     1       1.976   5.227  17.875  0.00  0.00    +0.000 A 
ATOM     23  C   UNL     1       1.612   3.891  18.059  0.00  0.00    +0.000 A 
ATOM     24  C   UNL     1       2.269   3.118  19.015  0.00  0.00    +0.000 A 
ATOM     25 CL   UNL     1       1.804   1.480  19.265  0.00  0.00    +0.000 Cl
ATOM     26  C   UNL     1       3.308   3.660  19.767  0.00  0.00    +0.000 A 
ATOM     27  C   UNL     1       3.695   4.985  19.558  0.00  0.00    +0.000 A 
ENDBRANCH  20  21
ENDBRANCH   4  20
TORSDOF 5
ENDMDL
MODEL 5
REMARK VINA RESULT:      -7.4      0.381      1.360
REMARK  Name = 
REMARK  8 active torsions:
REMARK  status: ('A' for Active; 'I' for Inactive)
REMARK    1  A    between atoms: C_1  and  C_2
REMARK    2  A    between atoms: C_2  and  O_4
REMARK    3  A    between atoms: O_4  and  C_5
REMARK    4  A    between atoms: C_8  and  C_9
REMARK    5  A    between atoms: C_11  and  C_12
REMARK    6  A    between atoms: C_13  and  C_14
REMARK    7  A    between atoms: C_17  and  O_18
REMARK    8  A    between atoms: O_18  and  C_19
REMARK                            x       y       z     vdW  Elec       q    Type
REMARK                         _______ _______ _______ _____ _____    ______ ____
ROOT
ATOM      1  C   UNL     1       2.294   7.106  19.187  0.00  0.00    +0.000 A 
ATOM      2  C   UNL     1       1.738   7.795  20.282  0.00  0.00    +0.000 A 
ATOM      3  C   UNL     1       1.181   9.079  20.148  0.00  0.00    +0.000 A 
ATOM      4  C   UNL     1       1.109   9.687  18.896  0.00  0.00    +0.000 A 
ATOM      5  C   UNL     1       1.528   8.973  17.781  0.00  0.00    +0.000 A 
ATOM      6  C   UNL     1       2.178   7.748  17.938  0.00  0.00    +0.000 A 
ENDROOT
BRANCH   1  15
ATOM      7  C   UNL     1       4.340   5.583  18.899  0.00  0.00    +0.000 A 
ATOM      8  C   UNL     1       4.982   4.327  18.998  0.00  0.00    +0.000 A 
ATOM      9 CL   UNL     1       6.674   4.130  18.668  0.00  0.00    +0.000 Cl
ATOM     10  C   UNL     1       4.237   3.248  19.450  0.00  0.00    +0.000 A 
ATOM     11  C   UNL     1       4.775   1.856  19.579  0.00  0.00    +0.000 C 
ATOM     12  N   UNL     1       2.963   3.400  19.873  0.00  0.00    +0.000 NA
ATOM     13  C   UNL     1       2.376   4.632  19.843  0.00  0.00    +0.000 A 
ATOM     14  C   UNL     1       1.020   4.620  20.496  0.00  0.00    +0.000 C 
ATOM     15  C   UNL     1       2.998   5.786  19.312  0.00  0.00    +0.000 A 
BRANCH   7  16
ATOM     16  O   UNL     1       5.132   6.706  18.544  0.00  0.00    +0.000 OA
BRANCH  16  18
ATOM     17  C   UNL     1       6.992   7.292  17.227  0.00  0.00    +0.000 C 
ATOM     18  C   UNL     1       5.579   6.769  17.228  0.00  0.00    +0.000 C 
ATOM     19  O   UNL     1       4.956   6.414  16.240  0.00  0.00    +0.000 OA
ENDBRANCH  16  18
ENDBRANCH   7  16
ENDBRANCH   1  15
BRANCH   4  20
ATOM     20  O   UNL     1       0.610  10.966  18.834  0.00  0.00    +0.000 OA
BRANCH  20  21
ATOM     21  C   UNL     1      -0.756  11.147  18.737  0.00  0.00    +0.000 A 
ATOM     22  C   UNL     1      -1.424  10.330  17.819  0.00  0.00    +0.000 A 
ATOM     23  C   UNL     1      -2.805  10.456  17.642  0.00  0.00    +0.000 A 
ATOM     24  C   UNL     1      -3.516  11.402  18.379  0.00  0.00    +0.000 A 
ATOM     25 CL   UNL     1      -5.211  11.579  18.143  0.00  0.00    +0.000 Cl
ATOM     26  C   UNL     1      -2.865  12.202  19.314  0.00  0.00    +0.000 A 
ATOM     27  C   UNL     1      -1.492  12.052  19.515  0.00  0.00    +0.000 A 
ENDBRANCH  20  21
ENDBRANCH   4  20
TORSDOF 5
ENDMDL
MODEL 6
REMARK VINA RESULT:      -7.3      1.035      1.192
REMARK  Name = 
REMARK  8 active torsions:
REMARK  status: ('A' for Active; 'I' for Inactive)
REMARK    1  A    between atoms: C_1  and  C_2
REMARK    2  A    between atoms: C_2  and  O_4
REMARK    3  A    between atoms: O_4  and  C_5
REMARK    4  A    between atoms: C_8  and  C_9
REMARK    5  A    between atoms: C_11  and  C_12
REMARK    6  A    between atoms: C_13  and  C_14
REMARK    7  A    between atoms: C_17  and  O_18
REMARK    8  A    between atoms: O_18  and  C_19
REMARK                            x       y       z     vdW  Elec       q    Type
REMARK                         _______ _______ _______ _____ _____    ______ ____
ROOT
ATOM      1  C   UNL     1       2.326   6.930  18.864  0.00  0.00    +0.000 A 
ATOM      2  C   UNL     1       2.338   7.907  17.850  0.00  0.00    +0.000 A 
ATOM      3  C   UNL     1       1.825   9.200  18.056  0.00  0.00    +0.000 A 
ATOM      4  C   UNL     1       1.339   9.572  19.308  0.00  0.00    +0.000 A 
ATOM      5  C   UNL     1       1.440   8.669  20.359  0.00  0.00    +0.000 A 
ATOM      6  C   UNL     1       1.848   7.357  20.119  0.00  0.00    +0.000 A 
ENDROOT
BRANCH   1  15
ATOM      7  C   UNL     1       3.839   5.148  17.802  0.00  0.00    +0.000 A 
ATOM      8  C   UNL     1       4.218   3.803  17.586  0.00  0.00    +0.000 A 
ATOM      9 CL   UNL     1       5.650   3.381  16.704  0.00  0.00    +0.000 Cl
ATOM     10  C   UNL     1       3.450   2.808  18.173  0.00  0.00    +0.000 A 
ATOM     11  C   UNL     1       3.714   1.343  18.009  0.00  0.00    +0.000 C 
ATOM     12  N   UNL     1       2.425   3.105  19.001  0.00  0.00    +0.000 NA
ATOM     13  C   UNL     1       2.114   4.409  19.262  0.00  0.00    +0.000 A 
ATOM     14  C   UNL     1       1.052   4.528  20.322  0.00  0.00    +0.000 C 
ATOM     15  C   UNL     1       2.759   5.509  18.648  0.00  0.00    +0.000 A 
BRANCH   7  16
ATOM     16  O   UNL     1       4.689   6.165  17.295  0.00  0.00    +0.000 OA
BRANCH  16  18
ATOM     17  C   UNL     1       6.746   7.296  17.127  0.00  0.00    +0.000 C 
ATOM     18  C   UNL     1       5.907   6.347  17.942  0.00  0.00    +0.000 C 
ATOM     19  O   UNL     1       6.229   5.863  19.016  0.00  0.00    +0.000 OA
ENDBRANCH  16  18
ENDBRANCH   7  16
ENDBRANCH   1  15
BRANCH   4  20
ATOM     20  O   UNL     1       0.795  10.827  19.435  0.00  0.00    +0.000 OA
BRANCH  20  21
ATOM     21  C   UNL     1      -0.529  11.020  19.093  0.00  0.00    +0.000 A 
ATOM     22  C   UNL     1      -1.211  12.017  19.799  0.00  0.00    +0.000 A 
ATOM     23  C   UNL     1      -2.559  12.271  19.530  0.00  0.00    +0.000 A 
ATOM     24  C   UNL     1      -3.226  11.525  18.560  0.00  0.00    +0.000 A 
ATOM     25 CL   UNL     1      -4.892  11.816  18.248  0.00  0.00    +0.000 Cl
ATOM     26  C   UNL     1      -2.550  10.548  17.834  0.00  0.00    +0.000 A 
ATOM     27  C   UNL     1      -1.195  10.319  18.078  0.00  0.00    +0.000 A 
ENDBRANCH  20  21
ENDBRANCH   4  20
TORSDOF 5
ENDMDL
MODEL 7
REMARK VINA RESULT:      -7.3      3.216      8.538
REMARK  Name = 
REMARK  8 active torsions:
REMARK  status: ('A' for Active; 'I' for Inactive)
REMARK    1  A    between atoms: C_1  and  C_2
REMARK    2  A    between atoms: C_2  and  O_4
REMARK    3  A    between atoms: O_4  and  C_5
REMARK    4  A    between atoms: C_8  and  C_9
REMARK    5  A    between atoms: C_11  and  C_12
REMARK    6  A    between atoms: C_13  and  C_14
REMARK    7  A    between atoms: C_17  and  O_18
REMARK    8  A    between atoms: O_18  and  C_19
REMARK                            x       y       z     vdW  Elec       q    Type
REMARK                         _______ _______ _______ _____ _____    ______ ____
ROOT
ATOM      1  C   UNL     1      -0.429  10.192  19.306  0.00  0.00    +0.000 A 
ATOM      2  C   UNL     1       0.048   9.468  20.416  0.00  0.00    +0.000 A 
ATOM      3  C   UNL     1       1.133   8.579  20.316  0.00  0.00    +0.000 A 
ATOM      4  C   UNL     1       1.814   8.435  19.108  0.00  0.00    +0.000 A 
ATOM      5  C   UNL     1       1.448   9.237  18.035  0.00  0.00    +0.000 A 
ATOM      6  C   UNL     1       0.304  10.033  18.113  0.00  0.00    +0.000 A 
ENDROOT
BRANCH   1  15
ATOM      7  C   UNL     1      -1.760  12.206  20.178  0.00  0.00    +0.000 A 
ATOM      8  C   UNL     1      -2.930  12.999  20.228  0.00  0.00    +0.000 A 
ATOM      9 CL   UNL     1      -2.988  14.498  21.097  0.00  0.00    +0.000 Cl
ATOM     10  C   UNL     1      -4.028  12.587  19.488  0.00  0.00    +0.000 A 
ATOM     11  C   UNL     1      -5.340  13.309  19.466  0.00  0.00    +0.000 C 
ATOM     12  N   UNL     1      -3.964  11.513  18.670  0.00  0.00    +0.000 NA
ATOM     13  C   UNL     1      -2.806  10.797  18.572  0.00  0.00    +0.000 A 
ATOM     14  C   UNL     1      -2.889   9.744  17.500  0.00  0.00    +0.000 C 
ATOM     15  C   UNL     1      -1.652  11.060  19.348  0.00  0.00    +0.000 A 
BRANCH   7  16
ATOM     16  O   UNL     1      -0.604  12.688  20.844  0.00  0.00    +0.000 OA
BRANCH  16  18
ATOM     17  C   UNL     1       1.703  12.988  20.490  0.00  0.00    +0.000 C 
ATOM     18  C   UNL     1       0.314  13.399  20.077  0.00  0.00    +0.000 C 
ATOM     19  O   UNL     1       0.046  14.186  19.182  0.00  0.00    +0.000 OA
ENDBRANCH  16  18
ENDBRANCH   7  16
ENDBRANCH   1  15
BRANCH   4  20
ATOM     20  O   UNL     1       2.827   7.509  19.053  0.00  0.00    +0.000 OA
BRANCH  20  21
ATOM     21  C   UNL     1       2.509   6.166  19.098  0.00  0.00    +0.000 A 
ATOM     22  C   UNL     1       2.278   5.543  17.867  0.00  0.00    +0.000 A 
ATOM     23  C   UNL     1       1.933   4.189  17.818  0.00  0.00    +0.000 A 
ATOM     24  C   UNL     1       1.815   3.460  19.000  0.00  0.00    +0.000 A 
ATOM     25 CL   UNL     1       1.364   1.801  18.944  0.00  0.00    +0.000 Cl
ATOM     26  C   UNL     1       2.068   4.063  20.229  0.00  0.00    +0.000 A 
ATOM     27  C   UNL     1       2.446   5.406  20.275  0.00  0.00    +0.000 A 
ENDBRANCH  20  21
ENDBRANCH   4  20
TORSDOF 5
ENDMDL
MODEL 8
REMARK VINA RESULT:      -7.1      3.300      8.641
REMARK  Name = 
REMARK  8 active torsions:
REMARK  status: ('A' for Active; 'I' for Inactive)
REMARK    1  A    between atoms: C_1  and  C_2
REMARK    2  A    between atoms: C_2  and  O_4
REMARK    3  A    between atoms: O_4  and  C_5
REMARK    4  A    between atoms: C_8  and  C_9
REMARK    5  A    between atoms: C_11  and  C_12
REMARK    6  A    between atoms: C_13  and  C_14
REMARK    7  A    between atoms: C_17  and  O_18
REMARK    8  A    between atoms: O_18  and  C_19
REMARK                            x       y       z     vdW  Elec       q    Type
REMARK                         _______ _______ _______ _____ _____    ______ ____
ROOT
ATOM      1  C   UNL     1      -0.415  10.358  20.068  0.00  0.00    +0.000 A 
ATOM      2  C   UNL     1      -0.088   9.400  21.047  0.00  0.00    +0.000 A 
ATOM      3  C   UNL     1       0.930   8.450  20.850  0.00  0.00    +0.000 A 
ATOM      4  C   UNL     1       1.695   8.472  19.684  0.00  0.00    +0.000 A 
ATOM      5  C   UNL     1       1.481   9.489  18.764  0.00  0.00    +0.000 A 
ATOM      6  C   UNL     1       0.399  10.357  18.917  0.00  0.00    +0.000 A 
ENDROOT
BRANCH   1  15
ATOM      7  C   UNL     1      -2.634  11.364  19.262  0.00  0.00    +0.000 A 
ATOM      8  C   UNL     1      -3.700  12.286  19.380  0.00  0.00    +0.000 A 
ATOM      9 CL   UNL     1      -5.091  12.222  18.346  0.00  0.00    +0.000 Cl
ATOM     10  C   UNL     1      -3.649  13.212  20.411  0.00  0.00    +0.000 A 
ATOM     11  C   UNL     1      -4.690  14.265  20.642  0.00  0.00    +0.000 C 
ATOM     12  N   UNL     1      -2.663  13.185  21.334  0.00  0.00    +0.000 NA
ATOM     13  C   UNL     1      -1.678  12.243  21.253  0.00  0.00    +0.000 A 
ATOM     14  C   UNL     1      -0.769  12.282  22.453  0.00  0.00    +0.000 C 
ATOM     15  C   UNL     1      -1.567  11.310  20.195  0.00  0.00    +0.000 A 
BRANCH   7  16
ATOM     16  O   UNL     1      -2.743  10.348  18.277  0.00  0.00    +0.000 OA
BRANCH  16  18
ATOM     17  C   UNL     1      -3.061   9.670  16.047  0.00  0.00    +0.000 C 
ATOM     18  C   UNL     1      -2.483  10.718  16.961  0.00  0.00    +0.000 C 
ATOM     19  O   UNL     1      -1.924  11.742  16.600  0.00  0.00    +0.000 OA
ENDBRANCH  16  18
ENDBRANCH   7  16
ENDBRANCH   1  15
BRANCH   4  20
ATOM     20  O   UNL     1       2.635   7.483  19.519  0.00  0.00    +0.000 OA
BRANCH  20  21
ATOM     21  C   UNL     1       2.214   6.173  19.402  0.00  0.00    +0.000 A 
ATOM     22  C   UNL     1       2.158   5.655  18.104  0.00  0.00    +0.000 A 
ATOM     23  C   UNL     1       1.728   4.343  17.889  0.00  0.00    +0.000 A 
ATOM     24  C   UNL     1       1.350   3.550  18.971  0.00  0.00    +0.000 A 
ATOM     25 CL   UNL     1       0.793   1.944  18.707  0.00  0.00    +0.000 Cl
ATOM     26  C   UNL     1       1.426   4.047  20.269  0.00  0.00    +0.000 A 
ATOM     27  C   UNL     1       1.889   5.346  20.486  0.00  0.00    +0.000 A 
ENDBRANCH  20  21
ENDBRANCH   4  20
TORSDOF 5
ENDMDL
MODEL 9
REMARK VINA RESULT:      -7.1      3.308      8.869
REMARK  Name = 
REMARK  8 active torsions:
REMARK  status: ('A' for Active; 'I' for Inactive)
REMARK    1  A    between atoms: C_1  and  C_2
REMARK    2  A    between atoms: C_2  and  O_4
REMARK    3  A    between atoms: O_4  and  C_5
REMARK    4  A    between atoms: C_8  and  C_9
REMARK    5  A    between atoms: C_11  and  C_12
REMARK    6  A    between atoms: C_13  and  C_14
REMARK    7  A    between atoms: C_17  and  O_18
REMARK    8  A    between atoms: O_18  and  C_19
REMARK                            x       y       z     vdW  Elec       q    Type
REMARK                         _______ _______ _______ _____ _____    ______ ____
ROOT
ATOM      1  C   UNL     1      -0.701  10.304  19.623  0.00  0.00    +0.000 A 
ATOM      2  C   UNL     1      -0.373   9.526  20.751  0.00  0.00    +0.000 A 
ATOM      3  C   UNL     1       0.722   8.644  20.755  0.00  0.00    +0.000 A 
ATOM      4  C   UNL     1       1.562   8.562  19.645  0.00  0.00    +0.000 A 
ATOM      5  C   UNL     1       1.338   9.416  18.573  0.00  0.00    +0.000 A 
ATOM      6  C   UNL     1       0.188  10.205  18.534  0.00  0.00    +0.000 A 
ENDROOT
BRANCH   1  15
ATOM      7  C   UNL     1      -2.125  12.307  20.364  0.00  0.00    +0.000 A 
ATOM      8  C   UNL     1      -3.297  13.096  20.295  0.00  0.00    +0.000 A 
ATOM      9 CL   UNL     1      -3.453  14.588  21.164  0.00  0.00    +0.000 Cl
ATOM     10  C   UNL     1      -4.309  12.686  19.440  0.00  0.00    +0.000 A 
ATOM     11  C   UNL     1      -5.614  13.404  19.285  0.00  0.00    +0.000 C 
ATOM     12  N   UNL     1      -4.154  11.619  18.626  0.00  0.00    +0.000 NA
ATOM     13  C   UNL     1      -2.989  10.908  18.646  0.00  0.00    +0.000 A 
ATOM     14  C   UNL     1      -2.955   9.863  17.564  0.00  0.00    +0.000 C 
ATOM     15  C   UNL     1      -1.926  11.168  19.542  0.00  0.00    +0.000 A 
BRANCH   7  16
ATOM     16  O   UNL     1      -1.048  12.788  21.153  0.00  0.00    +0.000 OA
BRANCH  16  18
ATOM     17  C   UNL     1      -0.818  13.975  23.171  0.00  0.00    +0.000 C 
ATOM     18  C   UNL     1      -1.172  12.658  22.532  0.00  0.00    +0.000 C 
ATOM     19  O   UNL     1      -1.553  11.662  23.129  0.00  0.00    +0.000 OA
ENDBRANCH  16  18
ENDBRANCH   7  16
ENDBRANCH   1  15
BRANCH   4  20
ATOM     20  O   UNL     1       2.580   7.640  19.682  0.00  0.00    +0.000 OA
BRANCH  20  21
ATOM     21  C   UNL     1       2.297   6.319  19.394  0.00  0.00    +0.000 A 
ATOM     22  C   UNL     1       1.940   5.512  20.479  0.00  0.00    +0.000 A 
ATOM     23  C   UNL     1       1.653   4.158  20.284  0.00  0.00    +0.000 A 
ATOM     24  C   UNL     1       1.729   3.610  19.005  0.00  0.00    +0.000 A 
ATOM     25 CL   UNL     1       1.405   1.938  18.765  0.00  0.00    +0.000 Cl
ATOM     26  C   UNL     1       2.058   4.410  17.914  0.00  0.00    +0.000 A 
ATOM     27  C   UNL     1       2.310   5.769  18.104  0.00  0.00    +0.000 A 
ENDBRANCH  20  21
ENDBRANCH   4  20
TORSDOF 5
ENDMDL
