MODEL 1
REMARK VINA RESULT:      -7.5      0.000      0.000
REMARK  Name = 
REMARK  6 active torsions:
REMARK  status: ('A' for Active; 'I' for Inactive)
REMARK    1  A    between atoms: C_1  and  C_2
REMARK    2  A    between atoms: C_2  and  N_3
REMARK    3  A    between atoms: C_8  and  C_9
REMARK    4  A    between atoms: N_11  and  C_12
REMARK    5  A    between atoms: C_15  and  O_16
REMARK    6  A    between atoms: O_16  and  C_17
REMARK                            x       y       z     vdW  Elec       q    Type
REMARK                         _______ _______ _______ _____ _____    ______ ____
ROOT
ATOM      1  C   UNL     1       2.153   8.248  18.414  0.00  0.00    +0.000 C 
ATOM      2  O   UNL     1       2.284   8.715  17.289  0.00  0.00    +0.000 OA
ATOM      3  N   UNL     1       2.665   7.048  18.880  0.00  0.00    +0.000 N 
ATOM      4  H   UNL     1       2.297   6.693  19.753  0.00  0.00    +0.000 HD
ENDROOT
BRANCH   1  10
ATOM      5  N   UNL     1      -0.821  11.080  22.178  0.00  0.00    +0.000 N 
ATOM      6  N   UNL     1      -0.366  10.511  23.310  0.00  0.00    +0.000 NA
ATOM      7  N   UNL     1       0.521   9.588  22.966  0.00  0.00    +0.000 NA
ATOM      8  C   UNL     1       0.613   9.572  21.602  0.00  0.00    +0.000 A 
ATOM      9  C   UNL     1       1.415   8.795  20.756  0.00  0.00    +0.000 A 
ATOM     10  C   UNL     1       1.300   8.998  19.374  0.00  0.00    +0.000 A 
ATOM     11  C   UNL     1       0.412   9.954  18.856  0.00  0.00    +0.000 A 
ATOM     12  C   UNL     1      -0.393  10.735  19.691  0.00  0.00    +0.000 A 
ATOM     13  C   UNL     1      -0.254  10.516  21.063  0.00  0.00    +0.000 A 
BRANCH   5  15
ATOM     14  C   UNL     1      -2.767  12.009  23.365  0.00  0.00    +0.000 C 
ATOM     15  C   UNL     1      -1.755  12.181  22.248  0.00  0.00    +0.000 C 
ENDBRANCH   5  15
ENDBRANCH   1  10
BRANCH   3  16
ATOM     16  C   UNL     1       3.468   6.156  18.137  0.00  0.00    +0.000 A 
ATOM     17  C   UNL     1       4.711   6.509  17.612  0.00  0.00    +0.000 A 
ATOM     18  C   UNL     1       5.407   5.622  16.788  0.00  0.00    +0.000 A 
ATOM     19  C   UNL     1       4.888   4.362  16.498  0.00  0.00    +0.000 A 
ATOM     20  C   UNL     1       3.677   3.977  17.072  0.00  0.00    +0.000 A 
ATOM     21  C   UNL     1       2.975   4.870  17.896  0.00  0.00    +0.000 A 
BRANCH  19  22
ATOM     22  O   UNL     1       5.618   3.640  15.598  0.00  0.00    +0.000 OA
ATOM     23  C   UNL     1       6.224   4.362  14.536  0.00  0.00    +0.000 C 
ENDBRANCH  19  22
ENDBRANCH   3  16
TORSDOF 4
ENDMDL
MODEL 2
REMARK VINA RESULT:      -7.4      0.410      1.097
REMARK  Name = 
REMARK  6 active torsions:
REMARK  status: ('A' for Active; 'I' for Inactive)
REMARK    1  A    between atoms: C_1  and  C_2
REMARK    2  A    between atoms: C_2  and  N_3
REMARK    3  A    between atoms: C_8  and  C_9
REMARK    4  A    between atoms: N_11  and  C_12
REMARK    5  A    between atoms: C_15  and  O_16
REMARK    6  A    between atoms: O_16  and  C_17
REMARK                            x       y       z     vdW  Elec       q    Type
REMARK                         _______ _______ _______ _____ _____    ______ ____
ROOT
ATOM      1  C   UNL     1       1.883   8.555  18.404  0.00  0.00    +0.000 C 
ATOM      2  O   UNL     1       1.943   9.028  17.275  0.00  0.00    +0.000 OA
ATOM      3  N   UNL     1       2.436   7.360  18.834  0.00  0.00    +0.000 N 
ATOM      4  H   UNL     1       2.124   6.997  19.725  0.00  0.00    +0.000 HD
ENDROOT
BRANCH   1  10
ATOM      5  N   UNL     1      -0.909  11.316  22.356  0.00  0.00    +0.000 N 
ATOM      6  N   UNL     1      -0.450  10.683  23.451  0.00  0.00    +0.000 NA
ATOM      7  N   UNL     1       0.398   9.746  23.047  0.00  0.00    +0.000 NA
ATOM      8  C   UNL     1       0.459   9.787  21.681  0.00  0.00    +0.000 A 
ATOM      9  C   UNL     1       1.216   9.022  20.784  0.00  0.00    +0.000 A 
ATOM     10  C   UNL     1       1.077   9.290  19.415  0.00  0.00    +0.000 A 
ATOM     11  C   UNL     1       0.212  10.297  18.960  0.00  0.00    +0.000 A 
ATOM     12  C   UNL     1      -0.547  11.067  19.846  0.00  0.00    +0.000 A 
ATOM     13  C   UNL     1      -0.386  10.783  21.204  0.00  0.00    +0.000 A 
BRANCH   5  15
ATOM     14  C   UNL     1      -2.957  12.152  23.436  0.00  0.00    +0.000 C 
ATOM     15  C   UNL     1      -1.803  12.443  22.495  0.00  0.00    +0.000 C 
ENDBRANCH   5  15
ENDBRANCH   1  10
BRANCH   3  16
ATOM     16  C   UNL     1       3.207   6.482  18.042  0.00  0.00    +0.000 A 
ATOM     17  C   UNL     1       2.904   5.129  17.891  0.00  0.00    +0.000 A 
ATOM     18  C   UNL     1       3.769   4.286  17.190  0.00  0.00    +0.000 A 
ATOM     19  C   UNL     1       4.932   4.783  16.606  0.00  0.00    +0.000 A 
ATOM     20  C   UNL     1       5.208   6.146  16.697  0.00  0.00    +0.000 A 
ATOM     21  C   UNL     1       4.343   6.994  17.405  0.00  0.00    +0.000 A 
BRANCH  19  22
ATOM     22  O   UNL     1       5.736   3.833  16.043  0.00  0.00    +0.000 OA
ATOM     23  C   UNL     1       6.668   4.277  15.069  0.00  0.00    +0.000 C 
ENDBRANCH  19  22
ENDBRANCH   3  16
TORSDOF 4
ENDMDL
MODEL 3
REMARK VINA RESULT:      -7.2      2.667      8.867
REMARK  Name = 
REMARK  6 active torsions:
REMARK  status: ('A' for Active; 'I' for Inactive)
REMARK    1  A    between atoms: C_1  and  C_2
REMARK    2  A    between atoms: C_2  and  N_3
REMARK    3  A    between atoms: C_8  and  C_9
REMARK    4  A    between atoms: N_11  and  C_12
REMARK    5  A    between atoms: C_15  and  O_16
REMARK    6  A    between atoms: O_16  and  C_17
REMARK                            x       y       z     vdW  Elec       q    Type
REMARK                         _______ _______ _______ _____ _____    ______ ____
ROOT
ATOM      1  C   UNL     1       2.335   6.707  19.543  0.00  0.00    +0.000 C 
ATOM      2  O   UNL     1       1.917   5.914  20.378  0.00  0.00    +0.000 OA
ATOM      3  N   UNL     1       2.071   8.065  19.482  0.00  0.00    +0.000 N 
ATOM      4  H   UNL     1       2.304   8.546  18.623  0.00  0.00    +0.000 HD
ENDROOT
BRANCH   1  10
ATOM      5  N   UNL     1       5.628   4.812  15.469  0.00  0.00    +0.000 N 
ATOM      6  N   UNL     1       6.292   5.941  15.161  0.00  0.00    +0.000 NA
ATOM      7  N   UNL     1       5.833   6.903  15.950  0.00  0.00    +0.000 NA
ATOM      8  C   UNL     1       4.861   6.370  16.752  0.00  0.00    +0.000 A 
ATOM      9  C   UNL     1       4.090   6.965  17.758  0.00  0.00    +0.000 A 
ATOM     10  C   UNL     1       3.156   6.162  18.429  0.00  0.00    +0.000 A 
ATOM     11  C   UNL     1       3.005   4.804  18.104  0.00  0.00    +0.000 A 
ATOM     12  C   UNL     1       3.770   4.201  17.102  0.00  0.00    +0.000 A 
ATOM     13  C   UNL     1       4.696   5.022  16.454  0.00  0.00    +0.000 A 
BRANCH   5  15
ATOM     14  C   UNL     1       6.190   3.746  13.322  0.00  0.00    +0.000 C 
ATOM     15  C   UNL     1       5.972   3.571  14.813  0.00  0.00    +0.000 C 
ENDBRANCH   5  15
ENDBRANCH   1  10
BRANCH   3  16
ATOM     16  C   UNL     1       1.289   8.790  20.407  0.00  0.00    +0.000 A 
ATOM     17  C   UNL     1       1.468   8.705  21.787  0.00  0.00    +0.000 A 
ATOM     18  C   UNL     1       0.589   9.355  22.655  0.00  0.00    +0.000 A 
ATOM     19  C   UNL     1      -0.464  10.122  22.161  0.00  0.00    +0.000 A 
ATOM     20  C   UNL     1      -0.611  10.265  20.782  0.00  0.00    +0.000 A 
ATOM     21  C   UNL     1       0.270   9.608  19.909  0.00  0.00    +0.000 A 
BRANCH  19  22
ATOM     22  O   UNL     1      -1.307  10.614  23.116  0.00  0.00    +0.000 OA
ATOM     23  C   UNL     1      -1.507  12.019  23.134  0.00  0.00    +0.000 C 
ENDBRANCH  19  22
ENDBRANCH   3  16
TORSDOF 4
ENDMDL
MODEL 4
REMARK VINA RESULT:      -7.2      2.476      8.654
REMARK  Name = 
REMARK  6 active torsions:
REMARK  status: ('A' for Active; 'I' for Inactive)
REMARK    1  A    between atoms: C_1  and  C_2
REMARK    2  A    between atoms: C_2  and  N_3
REMARK    3  A    between atoms: C_8  and  C_9
REMARK    4  A    between atoms: N_11  and  C_12
REMARK    5  A    between atoms: C_15  and  O_16
REMARK    6  A    between atoms: O_16  and  C_17
REMARK                            x       y       z     vdW  Elec       q    Type
REMARK                         _______ _______ _______ _____ _____    ______ ____
ROOT
ATOM      1  C   UNL     1       1.808   8.273  18.741  0.00  0.00    +0.000 C 
ATOM      2  O   UNL     1       1.339   9.074  17.941  0.00  0.00    +0.000 OA
ATOM      3  N   UNL     1       1.642   8.278  20.116  0.00  0.00    +0.000 N 
ATOM      4  H   UNL     1       2.260   7.690  20.661  0.00  0.00    +0.000 HD
ENDROOT
BRANCH   1  10
ATOM      5  N   UNL     1       4.964   4.172  16.676  0.00  0.00    +0.000 N 
ATOM      6  N   UNL     1       4.305   3.104  17.161  0.00  0.00    +0.000 NA
ATOM      7  N   UNL     1       3.279   3.555  17.871  0.00  0.00    +0.000 NA
ATOM      8  C   UNL     1       3.305   4.922  17.838  0.00  0.00    +0.000 A 
ATOM      9  C   UNL     1       2.436   5.859  18.411  0.00  0.00    +0.000 A 
ATOM     10  C   UNL     1       2.711   7.218  18.207  0.00  0.00    +0.000 A 
ATOM     11  C   UNL     1       3.819   7.625  17.447  0.00  0.00    +0.000 A 
ATOM     12  C   UNL     1       4.693   6.698  16.870  0.00  0.00    +0.000 A 
ATOM     13  C   UNL     1       4.392   5.352  17.085  0.00  0.00    +0.000 A 
BRANCH   5  15
ATOM     14  C   UNL     1       5.739   4.205  14.340  0.00  0.00    +0.000 C 
ATOM     15  C   UNL     1       6.096   3.984  15.797  0.00  0.00    +0.000 C 
ENDBRANCH   5  15
ENDBRANCH   1  10
BRANCH   3  16
ATOM     16  C   UNL     1       0.862   9.202  20.844  0.00  0.00    +0.000 A 
ATOM     17  C   UNL     1       0.839  10.567  20.561  0.00  0.00    +0.000 A 
ATOM     18  C   UNL     1       0.139  11.448  21.389  0.00  0.00    +0.000 A 
ATOM     19  C   UNL     1      -0.569  10.979  22.493  0.00  0.00    +0.000 A 
ATOM     20  C   UNL     1      -0.604   9.608  22.745  0.00  0.00    +0.000 A 
ATOM     21  C   UNL     1       0.103   8.722  21.916  0.00  0.00    +0.000 A 
BRANCH  19  22
ATOM     22  O   UNL     1      -1.117  11.956  23.274  0.00  0.00    +0.000 OA
ATOM     23  C   UNL     1      -2.530  12.086  23.241  0.00  0.00    +0.000 C 
ENDBRANCH  19  22
ENDBRANCH   3  16
TORSDOF 4
ENDMDL
MODEL 5
REMARK VINA RESULT:      -7.1      1.217      1.249
REMARK  Name = 
REMARK  6 active torsions:
REMARK  status: ('A' for Active; 'I' for Inactive)
REMARK    1  A    between atoms: C_1  and  C_2
REMARK    2  A    between atoms: C_2  and  N_3
REMARK    3  A    between atoms: C_8  and  C_9
REMARK    4  A    between atoms: N_11  and  C_12
REMARK    5  A    between atoms: C_15  and  O_16
REMARK    6  A    between atoms: O_16  and  C_17
REMARK                            x       y       z     vdW  Elec       q    Type
REMARK                         _______ _______ _______ _____ _____    ______ ____
ROOT
ATOM      1  C   UNL     1       2.303   7.103  19.649  0.00  0.00    +0.000 C 
ATOM      2  O   UNL     1       2.364   6.106  20.358  0.00  0.00    +0.000 OA
ATOM      3  N   UNL     1       2.930   7.294  18.429  0.00  0.00    +0.000 N 
ATOM      4  H   UNL     1       2.965   8.238  18.067  0.00  0.00    +0.000 HD
ENDROOT
BRANCH   1  10
ATOM      5  N   UNL     1      -0.396  11.469  21.815  0.00  0.00    +0.000 N 
ATOM      6  N   UNL     1      -0.459  11.088  23.104  0.00  0.00    +0.000 NA
ATOM      7  N   UNL     1       0.123   9.900  23.200  0.00  0.00    +0.000 NA
ATOM      8  C   UNL     1       0.545   9.530  21.952  0.00  0.00    +0.000 A 
ATOM      9  C   UNL     1       1.226   8.382  21.530  0.00  0.00    +0.000 A 
ATOM     10  C   UNL     1       1.538   8.269  20.167  0.00  0.00    +0.000 A 
ATOM     11  C   UNL     1       1.183   9.278  19.259  0.00  0.00    +0.000 A 
ATOM     12  C   UNL     1       0.504  10.429  19.670  0.00  0.00    +0.000 A 
ATOM     13  C   UNL     1       0.211  10.518  21.033  0.00  0.00    +0.000 A 
BRANCH   5  15
ATOM     14  C   UNL     1      -2.360  12.733  21.037  0.00  0.00    +0.000 C 
ATOM     15  C   UNL     1      -0.893  12.768  21.421  0.00  0.00    +0.000 C 
ENDBRANCH   5  15
ENDBRANCH   1  10
BRANCH   3  16
ATOM     16  C   UNL     1       3.734   6.345  17.763  0.00  0.00    +0.000 A 
ATOM     17  C   UNL     1       4.954   6.664  17.167  0.00  0.00    +0.000 A 
ATOM     18  C   UNL     1       5.648   5.708  16.424  0.00  0.00    +0.000 A 
ATOM     19  C   UNL     1       5.152   4.413  16.286  0.00  0.00    +0.000 A 
ATOM     20  C   UNL     1       3.966   4.068  16.933  0.00  0.00    +0.000 A 
ATOM     21  C   UNL     1       3.265   5.029  17.677  0.00  0.00    +0.000 A 
BRANCH  19  22
ATOM     22  O   UNL     1       5.875   3.614  15.448  0.00  0.00    +0.000 OA
ATOM     23  C   UNL     1       6.168   4.133  14.159  0.00  0.00    +0.000 C 
ENDBRANCH  19  22
ENDBRANCH   3  16
TORSDOF 4
ENDMDL
MODEL 6
REMARK VINA RESULT:      -7.1      1.221      1.600
REMARK  Name = 
REMARK  6 active torsions:
REMARK  status: ('A' for Active; 'I' for Inactive)
REMARK    1  A    between atoms: C_1  and  C_2
REMARK    2  A    between atoms: C_2  and  N_3
REMARK    3  A    between atoms: C_8  and  C_9
REMARK    4  A    between atoms: N_11  and  C_12
REMARK    5  A    between atoms: C_15  and  O_16
REMARK    6  A    between atoms: O_16  and  C_17
REMARK                            x       y       z     vdW  Elec       q    Type
REMARK                         _______ _______ _______ _____ _____    ______ ____
ROOT
ATOM      1  C   UNL     1       2.196   7.180  19.647  0.00  0.00    +0.000 C 
ATOM      2  O   UNL     1       2.312   6.167  20.326  0.00  0.00    +0.000 OA
ATOM      3  N   UNL     1       2.736   7.404  18.391  0.00  0.00    +0.000 N 
ATOM      4  H   UNL     1       2.739   8.356  18.049  0.00  0.00    +0.000 HD
ENDROOT
BRANCH   1  10
ATOM      5  N   UNL     1      -0.391  11.457  22.107  0.00  0.00    +0.000 N 
ATOM      6  N   UNL     1      -0.472  10.987  23.366  0.00  0.00    +0.000 NA
ATOM      7  N   UNL     1       0.076   9.780  23.379  0.00  0.00    +0.000 NA
ATOM      8  C   UNL     1       0.494   9.487  22.110  0.00  0.00    +0.000 A 
ATOM      9  C   UNL     1       1.145   8.353  21.609  0.00  0.00    +0.000 A 
ATOM     10  C   UNL     1       1.461   8.327  20.243  0.00  0.00    +0.000 A 
ATOM     11  C   UNL     1       1.139   9.408  19.407  0.00  0.00    +0.000 A 
ATOM     12  C   UNL     1       0.490  10.546  19.897  0.00  0.00    +0.000 A 
ATOM     13  C   UNL     1       0.193  10.546  21.261  0.00  0.00    +0.000 A 
BRANCH   5  15
ATOM     14  C   UNL     1      -1.090  13.619  23.054  0.00  0.00    +0.000 C 
ATOM     15  C   UNL     1      -0.850  12.794  21.804  0.00  0.00    +0.000 C 
ENDBRANCH   5  15
ENDBRANCH   1  10
BRANCH   3  16
ATOM     16  C   UNL     1       3.498   6.476  17.649  0.00  0.00    +0.000 A 
ATOM     17  C   UNL     1       3.271   5.101  17.687  0.00  0.00    +0.000 A 
ATOM     18  C   UNL     1       4.131   4.224  17.024  0.00  0.00    +0.000 A 
ATOM     19  C   UNL     1       5.214   4.706  16.290  0.00  0.00    +0.000 A 
ATOM     20  C   UNL     1       5.410   6.083  16.194  0.00  0.00    +0.000 A 
ATOM     21  C   UNL     1       4.548   6.964  16.865  0.00  0.00    +0.000 A 
BRANCH  19  22
ATOM     22  O   UNL     1       6.032   3.738  15.782  0.00  0.00    +0.000 OA
ATOM     23  C   UNL     1       6.327   3.810  14.395  0.00  0.00    +0.000 C 
ENDBRANCH  19  22
ENDBRANCH   3  16
TORSDOF 4
ENDMDL
MODEL 7
REMARK VINA RESULT:      -7.0      2.816      8.736
REMARK  Name = 
REMARK  6 active torsions:
REMARK  status: ('A' for Active; 'I' for Inactive)
REMARK    1  A    between atoms: C_1  and  C_2
REMARK    2  A    between atoms: C_2  and  N_3
REMARK    3  A    between atoms: C_8  and  C_9
REMARK    4  A    between atoms: N_11  and  C_12
REMARK    5  A    between atoms: C_15  and  O_16
REMARK    6  A    between atoms: O_16  and  C_17
REMARK                            x       y       z     vdW  Elec       q    Type
REMARK                         _______ _______ _______ _____ _____    ______ ____
ROOT
ATOM      1  C   UNL     1       2.248   6.869  19.997  0.00  0.00    +0.000 C 
ATOM      2  O   UNL     1       1.504   6.003  20.441  0.00  0.00    +0.000 OA
ATOM      3  N   UNL     1       2.121   8.238  20.165  0.00  0.00    +0.000 N 
ATOM      4  H   UNL     1       2.678   8.833  19.566  0.00  0.00    +0.000 HD
ENDROOT
BRANCH   1  10
ATOM      5  N   UNL     1       6.431   4.968  16.847  0.00  0.00    +0.000 N 
ATOM      6  N   UNL     1       7.084   4.218  17.754  0.00  0.00    +0.000 NA
ATOM      7  N   UNL     1       6.428   4.318  18.903  0.00  0.00    +0.000 NA
ATOM      8  C   UNL     1       5.359   5.151  18.713  0.00  0.00    +0.000 A 
ATOM      9  C   UNL     1       4.360   5.559  19.605  0.00  0.00    +0.000 A 
ATOM     10  C   UNL     1       3.370   6.430  19.126  0.00  0.00    +0.000 A 
ATOM     11  C   UNL     1       3.380   6.872  17.794  0.00  0.00    +0.000 A 
ATOM     12  C   UNL     1       4.373   6.470  16.895  0.00  0.00    +0.000 A 
ATOM     13  C   UNL     1       5.342   5.599  17.397  0.00  0.00    +0.000 A 
BRANCH   5  15
ATOM     14  C   UNL     1       6.088   4.049  14.589  0.00  0.00    +0.000 C 
ATOM     15  C   UNL     1       6.880   4.994  15.473  0.00  0.00    +0.000 C 
ENDBRANCH   5  15
ENDBRANCH   1  10
BRANCH   3  16
ATOM     16  C   UNL     1       1.115   8.882  20.917  0.00  0.00    +0.000 A 
ATOM     17  C   UNL     1       0.104   9.649  20.337  0.00  0.00    +0.000 A 
ATOM     18  C   UNL     1      -0.793  10.356  21.139  0.00  0.00    +0.000 A 
ATOM     19  C   UNL     1      -0.714  10.289  22.528  0.00  0.00    +0.000 A 
ATOM     20  C   UNL     1       0.253   9.473  23.115  0.00  0.00    +0.000 A 
ATOM     21  C   UNL     1       1.158   8.766  22.310  0.00  0.00    +0.000 A 
BRANCH  19  22
ATOM     22  O   UNL     1      -1.583  11.111  23.188  0.00  0.00    +0.000 OA
ATOM     23  C   UNL     1      -1.411  12.508  23.003  0.00  0.00    +0.000 C 
ENDBRANCH  19  22
ENDBRANCH   3  16
TORSDOF 4
ENDMDL
MODEL 8
REMARK VINA RESULT:      -7.0      0.798      1.560
REMARK  Name = 
REMARK  6 active torsions:
REMARK  status: ('A' for Active; 'I' for Inactive)
REMARK    1  A    between atoms: C_1  and  C_2
REMARK    2  A    between atoms: C_2  and  N_3
REMARK    3  A    between atoms: C_8  and  C_9
REMARK    4  A    between atoms: N_11  and  C_12
REMARK    5  A    between atoms: C_15  and  O_16
REMARK    6  A    between atoms: O_16  and  C_17
REMARK                            x       y       z     vdW  Elec       q    Type
REMARK                         _______ _______ _______ _____ _____    ______ ____
ROOT
ATOM      1  C   UNL     1       2.392   8.100  18.312  0.00  0.00    +0.000 C 
ATOM      2  O   UNL     1       2.451   8.518  17.161  0.00  0.00    +0.000 OA
ATOM      3  N   UNL     1       2.954   6.933  18.802  0.00  0.00    +0.000 N 
ATOM      4  H   UNL     1       2.642   6.612  19.709  0.00  0.00    +0.000 HD
ENDROOT
BRANCH   1  10
ATOM      5  N   UNL     1      -0.855  11.046  21.749  0.00  0.00    +0.000 N 
ATOM      6  N   UNL     1      -1.254  12.023  20.913  0.00  0.00    +0.000 NA
ATOM      7  N   UNL     1      -0.682  11.802  19.737  0.00  0.00    +0.000 NA
ATOM      8  C   UNL     1       0.094  10.680  19.844  0.00  0.00    +0.000 A 
ATOM      9  C   UNL     1       0.880  10.027  18.886  0.00  0.00    +0.000 A 
ATOM     10  C   UNL     1       1.576   8.877  19.283  0.00  0.00    +0.000 A 
ATOM     11  C   UNL     1       1.483   8.394  20.598  0.00  0.00    +0.000 A 
ATOM     12  C   UNL     1       0.701   9.037  21.562  0.00  0.00    +0.000 A 
ATOM     13  C   UNL     1       0.014  10.177  21.137  0.00  0.00    +0.000 A 
BRANCH   5  15
ATOM     14  C   UNL     1      -2.533  11.952  23.306  0.00  0.00    +0.000 C 
ATOM     15  C   UNL     1      -1.381  10.988  23.094  0.00  0.00    +0.000 C 
ENDBRANCH   5  15
ENDBRANCH   1  10
BRANCH   3  16
ATOM     16  C   UNL     1       3.735   6.023  18.057  0.00  0.00    +0.000 A 
ATOM     17  C   UNL     1       4.996   6.338  17.552  0.00  0.00    +0.000 A 
ATOM     18  C   UNL     1       5.670   5.439  16.724  0.00  0.00    +0.000 A 
ATOM     19  C   UNL     1       5.111   4.202  16.410  0.00  0.00    +0.000 A 
ATOM     20  C   UNL     1       3.879   3.853  16.964  0.00  0.00    +0.000 A 
ATOM     21  C   UNL     1       3.199   4.759  17.792  0.00  0.00    +0.000 A 
BRANCH  19  22
ATOM     22  O   UNL     1       5.826   3.467  15.509  0.00  0.00    +0.000 OA
ATOM     23  C   UNL     1       6.182   4.110  14.294  0.00  0.00    +0.000 C 
ENDBRANCH  19  22
ENDBRANCH   3  16
TORSDOF 4
ENDMDL
MODEL 9
REMARK VINA RESULT:      -6.9      2.733      8.792
REMARK  Name = 
REMARK  6 active torsions:
REMARK  status: ('A' for Active; 'I' for Inactive)
REMARK    1  A    between atoms: C_1  and  C_2
REMARK    2  A    between atoms: C_2  and  N_3
REMARK    3  A    between atoms: C_8  and  C_9
REMARK    4  A    between atoms: N_11  and  C_12
REMARK    5  A    between atoms: C_15  and  O_16
REMARK    6  A    between atoms: O_16  and  C_17
REMARK                            x       y       z     vdW  Elec       q    Type
REMARK                         _______ _______ _______ _____ _____    ______ ____
ROOT
ATOM      1  C   UNL     1       2.059   6.916  19.920  0.00  0.00    +0.000 C 
ATOM      2  O   UNL     1       1.541   6.110  20.685  0.00  0.00    +0.000 OA
ATOM      3  N   UNL     1       1.837   8.282  19.878  0.00  0.00    +0.000 N 
ATOM      4  H   UNL     1       2.164   8.782  19.062  0.00  0.00    +0.000 HD
ENDROOT
BRANCH   1  10
ATOM      5  N   UNL     1       5.299   4.699  15.968  0.00  0.00    +0.000 N 
ATOM      6  N   UNL     1       5.240   3.401  16.318  0.00  0.00    +0.000 NA
ATOM      7  N   UNL     1       4.474   3.313  17.398  0.00  0.00    +0.000 NA
ATOM      8  C   UNL     1       4.061   4.573  17.732  0.00  0.00    +0.000 A 
ATOM      9  C   UNL     1       3.230   5.008  18.772  0.00  0.00    +0.000 A 
ATOM     10  C   UNL     1       2.971   6.382  18.873  0.00  0.00    +0.000 A 
ATOM     11  C   UNL     1       3.523   7.291  17.957  0.00  0.00    +0.000 A 
ATOM     12  C   UNL     1       4.353   6.867  16.914  0.00  0.00    +0.000 A 
ATOM     13  C   UNL     1       4.590   5.493  16.835  0.00  0.00    +0.000 A 
BRANCH   5  15
ATOM     14  C   UNL     1       6.119   3.963  13.766  0.00  0.00    +0.000 C 
ATOM     15  C   UNL     1       6.012   5.093  14.773  0.00  0.00    +0.000 C 
ENDBRANCH   5  15
ENDBRANCH   1  10
BRANCH   3  16
ATOM     16  C   UNL     1       0.987   9.001  20.746  0.00  0.00    +0.000 A 
ATOM     17  C   UNL     1       0.049   9.931  20.297  0.00  0.00    +0.000 A 
ATOM     18  C   UNL     1      -0.681  10.695  21.208  0.00  0.00    +0.000 A 
ATOM     19  C   UNL     1      -0.509  10.525  22.580  0.00  0.00    +0.000 A 
ATOM     20  C   UNL     1       0.378   9.552  23.038  0.00  0.00    +0.000 A 
ATOM     21  C   UNL     1       1.117   8.787  22.122  0.00  0.00    +0.000 A 
BRANCH  19  22
ATOM     22  O   UNL     1      -1.207  11.408  23.354  0.00  0.00    +0.000 OA
ATOM     23  C   UNL     1      -1.182  12.770  22.956  0.00  0.00    +0.000 C 
ENDBRANCH  19  22
ENDBRANCH   3  16
TORSDOF 4
ENDMDL
