MODEL 1
REMARK VINA RESULT:      -7.8      0.000      0.000
REMARK  Name = 
REMARK  7 active torsions:
REMARK  status: ('A' for Active; 'I' for Inactive)
REMARK    1  A    between atoms: C_1  and  C_2
REMARK    2  A    between atoms: C_2  and  O_4
REMARK    3  A    between atoms: O_4  and  C_5
REMARK    4  A    between atoms: C_5  and  C_6
REMARK    5  A    between atoms: C_10  and  O_11
REMARK    6  A    between atoms: O_11  and  C_12
REMARK    7  A    between atoms: C_12  and  C_13
REMARK                            x       y       z     vdW  Elec       q    Type
REMARK                         _______ _______ _______ _____ _____    ______ ____
ROOT
ATOM      1  C   UNL     1       4.180   4.200  19.033  0.00  0.00    +0.000 C 
ATOM      2  C   UNL     1       4.270   3.764  17.644  0.00  0.00    +0.000 C 
ATOM      3  C   UNL     1       4.595   5.484  16.895  0.00  0.00    +0.000 C 
ATOM      4  C   UNL     1       5.137   4.299  16.434  0.00  0.00    +0.000 C 
ATOM      5  C   UNL     1       5.661   4.383  18.297  0.00  0.00    +0.000 C 
ATOM      6  C   UNL     1       3.696   6.224  17.734  0.00  0.00    +0.000 A 
ATOM      7  C   UNL     1       3.376   7.553  17.486  0.00  0.00    +0.000 A 
ATOM      8  C   UNL     1       2.541   8.170  18.388  0.00  0.00    +0.000 A 
ATOM      9  C   UNL     1       2.097   7.454  19.509  0.00  0.00    +0.000 A 
ATOM     10  C   UNL     1       2.517   6.134  19.773  0.00  0.00    +0.000 A 
ATOM     11  C   UNL     1       3.357   5.509  18.881  0.00  0.00    +0.000 A 
ENDROOT
BRANCH   1  12
ATOM     12  C   UNL     1       3.297   2.958  19.405  0.00  0.00    +0.000 C 
BRANCH  12  13
ATOM     13  O   UNL     1       3.093   2.791  20.808  0.00  0.00    +0.000 OA
BRANCH  13  15
ATOM     14  C   UNL     1       0.923   2.862  19.994  0.00  0.00    +0.000 C 
ATOM     15  C   UNL     1       1.805   2.700  21.194  0.00  0.00    +0.000 C 
ATOM     16  O   UNL     1       1.430   2.482  22.336  0.00  0.00    +0.000 OA
ENDBRANCH  13  15
ENDBRANCH  12  13
ENDBRANCH   1  12
BRANCH   5  17
ATOM     17  O   UNL     1       6.102   5.625  18.899  0.00  0.00    +0.000 OA
BRANCH  17  18
ATOM     18  C   UNL     1       7.459   5.880  19.006  0.00  0.00    +0.000 C 
ATOM     19  C   UNL     1       7.806   7.027  18.086  0.00  0.00    +0.000 C 
ATOM     20  O   UNL     1       8.219   5.189  19.630  0.00  0.00    +0.000 OA
ENDBRANCH  17  18
ENDBRANCH   5  17
TORSDOF 5
ENDMDL
MODEL 2
REMARK VINA RESULT:      -7.7      1.045      1.170
REMARK  Name = 
REMARK  7 active torsions:
REMARK  status: ('A' for Active; 'I' for Inactive)
REMARK    1  A    between atoms: C_1  and  C_2
REMARK    2  A    between atoms: C_2  and  O_4
REMARK    3  A    between atoms: O_4  and  C_5
REMARK    4  A    between atoms: C_5  and  C_6
REMARK    5  A    between atoms: C_10  and  O_11
REMARK    6  A    between atoms: O_11  and  C_12
REMARK    7  A    between atoms: C_12  and  C_13
REMARK                            x       y       z     vdW  Elec       q    Type
REMARK                         _______ _______ _______ _____ _____    ______ ____
ROOT
ATOM      1  C   UNL     1       4.266   4.225  19.085  0.00  0.00    +0.000 C 
ATOM      2  C   UNL     1       4.339   3.753  17.707  0.00  0.00    +0.000 C 
ATOM      3  C   UNL     1       4.613   5.458  16.906  0.00  0.00    +0.000 C 
ATOM      4  C   UNL     1       5.172   4.273  16.466  0.00  0.00    +0.000 C 
ATOM      5  C   UNL     1       5.728   4.419  18.317  0.00  0.00    +0.000 C 
ATOM      6  C   UNL     1       3.713   6.201  17.742  0.00  0.00    +0.000 A 
ATOM      7  C   UNL     1       3.359   7.516  17.465  0.00  0.00    +0.000 A 
ATOM      8  C   UNL     1       2.527   8.139  18.365  0.00  0.00    +0.000 A 
ATOM      9  C   UNL     1       2.119   7.444  19.514  0.00  0.00    +0.000 A 
ATOM     10  C   UNL     1       2.574   6.141  19.805  0.00  0.00    +0.000 A 
ATOM     11  C   UNL     1       3.411   5.511  18.913  0.00  0.00    +0.000 A 
ENDROOT
BRANCH   1  12
ATOM     12  C   UNL     1       3.417   2.974  19.507  0.00  0.00    +0.000 C 
BRANCH  12  13
ATOM     13  O   UNL     1       2.390   2.630  18.576  0.00  0.00    +0.000 OA
BRANCH  13  15
ATOM     14  C   UNL     1       1.212   2.830  20.563  0.00  0.00    +0.000 C 
ATOM     15  C   UNL     1       1.161   2.483  19.107  0.00  0.00    +0.000 C 
ATOM     16  O   UNL     1       0.164   2.153  18.483  0.00  0.00    +0.000 OA
ENDBRANCH  13  15
ENDBRANCH  12  13
ENDBRANCH   1  12
BRANCH   5  17
ATOM     17  O   UNL     1       6.153   5.687  18.877  0.00  0.00    +0.000 OA
BRANCH  17  18
ATOM     18  C   UNL     1       7.506   5.949  19.006  0.00  0.00    +0.000 C 
ATOM     19  C   UNL     1       7.864   7.090  18.082  0.00  0.00    +0.000 C 
ATOM     20  O   UNL     1       8.258   5.267  19.650  0.00  0.00    +0.000 OA
ENDBRANCH  17  18
ENDBRANCH   5  17
TORSDOF 5
ENDMDL
MODEL 3
REMARK VINA RESULT:      -7.3      2.688      5.038
REMARK  Name = 
REMARK  7 active torsions:
REMARK  status: ('A' for Active; 'I' for Inactive)
REMARK    1  A    between atoms: C_1  and  C_2
REMARK    2  A    between atoms: C_2  and  O_4
REMARK    3  A    between atoms: O_4  and  C_5
REMARK    4  A    between atoms: C_5  and  C_6
REMARK    5  A    between atoms: C_10  and  O_11
REMARK    6  A    between atoms: O_11  and  C_12
REMARK    7  A    between atoms: C_12  and  C_13
REMARK                            x       y       z     vdW  Elec       q    Type
REMARK                         _______ _______ _______ _____ _____    ______ ____
ROOT
ATOM      1  C   UNL     1       5.827   4.309  16.210  0.00  0.00    +0.000 C 
ATOM      2  C   UNL     1       5.463   5.543  15.521  0.00  0.00    +0.000 C 
ATOM      3  C   UNL     1       4.358   6.246  16.903  0.00  0.00    +0.000 C 
ATOM      4  C   UNL     1       5.165   6.997  16.069  0.00  0.00    +0.000 C 
ATOM      5  C   UNL     1       6.368   5.724  16.897  0.00  0.00    +0.000 C 
ATOM      6  C   UNL     1       3.742   5.011  17.294  0.00  0.00    +0.000 A 
ATOM      7  C   UNL     1       2.662   4.965  18.168  0.00  0.00    +0.000 A 
ATOM      8  C   UNL     1       2.188   3.719  18.505  0.00  0.00    +0.000 A 
ATOM      9  C   UNL     1       2.830   2.582  17.993  0.00  0.00    +0.000 A 
ATOM     10  C   UNL     1       3.979   2.668  17.182  0.00  0.00    +0.000 A 
ATOM     11  C   UNL     1       4.466   3.910  16.843  0.00  0.00    +0.000 A 
ENDROOT
BRANCH   1  12
ATOM     12  C   UNL     1       6.107   3.587  14.845  0.00  0.00    +0.000 C 
BRANCH  12  13
ATOM     13  O   UNL     1       5.276   4.032  13.773  0.00  0.00    +0.000 OA
BRANCH  13  15
ATOM     14  C   UNL     1       4.415   3.322  11.740  0.00  0.00    +0.000 C 
ATOM     15  C   UNL     1       5.644   3.609  12.548  0.00  0.00    +0.000 C 
ATOM     16  O   UNL     1       6.798   3.513  12.158  0.00  0.00    +0.000 OA
ENDBRANCH  13  15
ENDBRANCH  12  13
ENDBRANCH   1  12
BRANCH   5  17
ATOM     17  O   UNL     1       6.260   5.391  18.304  0.00  0.00    +0.000 OA
BRANCH  17  18
ATOM     18  C   UNL     1       7.258   5.798  19.173  0.00  0.00    +0.000 C 
ATOM     19  C   UNL     1       8.038   6.915  18.519  0.00  0.00    +0.000 C 
ATOM     20  O   UNL     1       7.514   5.235  20.204  0.00  0.00    +0.000 OA
ENDBRANCH  17  18
ENDBRANCH   5  17
TORSDOF 5
ENDMDL
MODEL 4
REMARK VINA RESULT:      -7.2      1.243      1.346
REMARK  Name = 
REMARK  7 active torsions:
REMARK  status: ('A' for Active; 'I' for Inactive)
REMARK    1  A    between atoms: C_1  and  C_2
REMARK    2  A    between atoms: C_2  and  O_4
REMARK    3  A    between atoms: O_4  and  C_5
REMARK    4  A    between atoms: C_5  and  C_6
REMARK    5  A    between atoms: C_10  and  O_11
REMARK    6  A    between atoms: O_11  and  C_12
REMARK    7  A    between atoms: C_12  and  C_13
REMARK                            x       y       z     vdW  Elec       q    Type
REMARK                         _______ _______ _______ _____ _____    ______ ____
ROOT
ATOM      1  C   UNL     1       4.262   4.158  18.369  0.00  0.00    +0.000 C 
ATOM      2  C   UNL     1       4.457   4.044  16.928  0.00  0.00    +0.000 C 
ATOM      3  C   UNL     1       4.761   5.894  16.601  0.00  0.00    +0.000 C 
ATOM      4  C   UNL     1       5.377   4.855  15.930  0.00  0.00    +0.000 C 
ATOM      5  C   UNL     1       5.778   4.536  17.798  0.00  0.00    +0.000 C 
ATOM      6  C   UNL     1       3.782   6.408  17.516  0.00  0.00    +0.000 A 
ATOM      7  C   UNL     1       3.426   7.751  17.545  0.00  0.00    +0.000 A 
ATOM      8  C   UNL     1       2.511   8.131  18.499  0.00  0.00    +0.000 A 
ATOM      9  C   UNL     1       2.025   7.173  19.401  0.00  0.00    +0.000 A 
ATOM     10  C   UNL     1       2.480   5.838  19.397  0.00  0.00    +0.000 A 
ATOM     11  C   UNL     1       3.399   5.448  18.451  0.00  0.00    +0.000 A 
ENDROOT
BRANCH   1  12
ATOM     12  C   UNL     1       3.406   2.843  18.395  0.00  0.00    +0.000 C 
BRANCH  12  13
ATOM     13  O   UNL     1       3.988   1.788  19.161  0.00  0.00    +0.000 OA
BRANCH  13  15
ATOM     14  C   UNL     1       2.880   2.576  21.040  0.00  0.00    +0.000 C 
ATOM     15  C   UNL     1       4.165   2.059  20.469  0.00  0.00    +0.000 C 
ATOM     16  O   UNL     1       5.202   1.874  21.088  0.00  0.00    +0.000 OA
ENDBRANCH  13  15
ENDBRANCH  12  13
ENDBRANCH   1  12
BRANCH   5  17
ATOM     17  O   UNL     1       6.131   5.624  18.689  0.00  0.00    +0.000 OA
BRANCH  17  18
ATOM     18  C   UNL     1       7.467   5.891  18.933  0.00  0.00    +0.000 C 
ATOM     19  C   UNL     1       7.868   7.105  18.125  0.00  0.00    +0.000 C 
ATOM     20  O   UNL     1       8.184   5.171  19.574  0.00  0.00    +0.000 OA
ENDBRANCH  17  18
ENDBRANCH   5  17
TORSDOF 5
ENDMDL
MODEL 5
REMARK VINA RESULT:      -7.1      2.271      4.643
REMARK  Name = 
REMARK  7 active torsions:
REMARK  status: ('A' for Active; 'I' for Inactive)
REMARK    1  A    between atoms: C_1  and  C_2
REMARK    2  A    between atoms: C_2  and  O_4
REMARK    3  A    between atoms: O_4  and  C_5
REMARK    4  A    between atoms: C_5  and  C_6
REMARK    5  A    between atoms: C_10  and  O_11
REMARK    6  A    between atoms: O_11  and  C_12
REMARK    7  A    between atoms: C_12  and  C_13
REMARK                            x       y       z     vdW  Elec       q    Type
REMARK                         _______ _______ _______ _____ _____    ______ ____
ROOT
ATOM      1  C   UNL     1       3.314   5.745  18.583  0.00  0.00    +0.000 C 
ATOM      2  C   UNL     1       2.213   5.141  17.840  0.00  0.00    +0.000 C 
ATOM      3  C   UNL     1       3.202   3.673  17.140  0.00  0.00    +0.000 C 
ATOM      4  C   UNL     1       1.873   3.629  17.519  0.00  0.00    +0.000 C 
ATOM      5  C   UNL     1       2.813   4.245  19.098  0.00  0.00    +0.000 C 
ATOM      6  C   UNL     1       4.420   4.382  16.870  0.00  0.00    +0.000 A 
ATOM      7  C   UNL     1       5.462   3.817  16.144  0.00  0.00    +0.000 A 
ATOM      8  C   UNL     1       6.597   4.577  15.992  0.00  0.00    +0.000 A 
ATOM      9  C   UNL     1       6.661   5.840  16.599  0.00  0.00    +0.000 A 
ATOM     10  C   UNL     1       5.618   6.340  17.405  0.00  0.00    +0.000 A 
ATOM     11  C   UNL     1       4.479   5.585  17.569  0.00  0.00    +0.000 A 
ENDROOT
BRANCH   1  12
ATOM     12  C   UNL     1       2.631   7.156  18.519  0.00  0.00    +0.000 C 
BRANCH  12  13
ATOM     13  O   UNL     1       2.148   7.625  19.778  0.00  0.00    +0.000 OA
BRANCH  13  15
ATOM     14  C   UNL     1       1.451   9.293  18.326  0.00  0.00    +0.000 C 
ATOM     15  C   UNL     1       1.457   8.780  19.734  0.00  0.00    +0.000 C 
ATOM     16  O   UNL     1       0.897   9.298  20.689  0.00  0.00    +0.000 OA
ENDBRANCH  13  15
ENDBRANCH  12  13
ENDBRANCH   1  12
BRANCH   5  17
ATOM     17  O   UNL     1       4.081   3.665  19.493  0.00  0.00    +0.000 OA
BRANCH  17  18
ATOM     18  C   UNL     1       4.091   2.593  20.369  0.00  0.00    +0.000 C 
ATOM     19  C   UNL     1       2.826   2.637  21.195  0.00  0.00    +0.000 C 
ATOM     20  O   UNL     1       5.031   1.858  20.512  0.00  0.00    +0.000 OA
ENDBRANCH  17  18
ENDBRANCH   5  17
TORSDOF 5
ENDMDL
MODEL 6
REMARK VINA RESULT:      -7.1      2.192      4.836
REMARK  Name = 
REMARK  7 active torsions:
REMARK  status: ('A' for Active; 'I' for Inactive)
REMARK    1  A    between atoms: C_1  and  C_2
REMARK    2  A    between atoms: C_2  and  O_4
REMARK    3  A    between atoms: O_4  and  C_5
REMARK    4  A    between atoms: C_5  and  C_6
REMARK    5  A    between atoms: C_10  and  O_11
REMARK    6  A    between atoms: O_11  and  C_12
REMARK    7  A    between atoms: C_12  and  C_13
REMARK                            x       y       z     vdW  Elec       q    Type
REMARK                         _______ _______ _______ _____ _____    ______ ____
ROOT
ATOM      1  C   UNL     1       3.228   5.697  19.014  0.00  0.00    +0.000 C 
ATOM      2  C   UNL     1       2.028   5.248  18.317  0.00  0.00    +0.000 C 
ATOM      3  C   UNL     1       2.868   3.883  17.291  0.00  0.00    +0.000 C 
ATOM      4  C   UNL     1       1.588   3.817  17.807  0.00  0.00    +0.000 C 
ATOM      5  C   UNL     1       2.720   4.148  19.345  0.00  0.00    +0.000 C 
ATOM      6  C   UNL     1       4.081   4.592  16.996  0.00  0.00    +0.000 A 
ATOM      7  C   UNL     1       5.011   4.122  16.077  0.00  0.00    +0.000 A 
ATOM      8  C   UNL     1       6.156   4.865  15.916  0.00  0.00    +0.000 A 
ATOM      9  C   UNL     1       6.342   6.014  16.700  0.00  0.00    +0.000 A 
ATOM     10  C   UNL     1       5.416   6.408  17.686  0.00  0.00    +0.000 A 
ATOM     11  C   UNL     1       4.269   5.668  17.861  0.00  0.00    +0.000 A 
ENDROOT
BRANCH   1  12
ATOM     12  C   UNL     1       2.606   7.119  19.246  0.00  0.00    +0.000 C 
BRANCH  12  13
ATOM     13  O   UNL     1       2.120   7.740  18.056  0.00  0.00    +0.000 OA
BRANCH  13  15
ATOM     14  C   UNL     1       1.103   9.284  19.456  0.00  0.00    +0.000 C 
ATOM     15  C   UNL     1       1.834   9.052  18.169  0.00  0.00    +0.000 C 
ATOM     16  O   UNL     1       2.156   9.911  17.362  0.00  0.00    +0.000 OA
ENDBRANCH  13  15
ENDBRANCH  12  13
ENDBRANCH   1  12
BRANCH   5  17
ATOM     17  O   UNL     1       3.996   3.480  19.498  0.00  0.00    +0.000 OA
BRANCH  17  18
ATOM     18  C   UNL     1       4.115   2.455  20.422  0.00  0.00    +0.000 C 
ATOM     19  C   UNL     1       2.906   2.483  21.328  0.00  0.00    +0.000 C 
ATOM     20  O   UNL     1       5.098   1.772  20.536  0.00  0.00    +0.000 OA
ENDBRANCH  17  18
ENDBRANCH   5  17
TORSDOF 5
ENDMDL
MODEL 7
REMARK VINA RESULT:      -7.0      2.277      5.111
REMARK  Name = 
REMARK  7 active torsions:
REMARK  status: ('A' for Active; 'I' for Inactive)
REMARK    1  A    between atoms: C_1  and  C_2
REMARK    2  A    between atoms: C_2  and  O_4
REMARK    3  A    between atoms: O_4  and  C_5
REMARK    4  A    between atoms: C_5  and  C_6
REMARK    5  A    between atoms: C_10  and  O_11
REMARK    6  A    between atoms: O_11  and  C_12
REMARK    7  A    between atoms: C_12  and  C_13
REMARK                            x       y       z     vdW  Elec       q    Type
REMARK                         _______ _______ _______ _____ _____    ______ ____
ROOT
ATOM      1  C   UNL     1       4.404   5.798  17.101  0.00  0.00    +0.000 C 
ATOM      2  C   UNL     1       5.325   5.335  18.134  0.00  0.00    +0.000 C 
ATOM      3  C   UNL     1       4.040   5.215  19.533  0.00  0.00    +0.000 C 
ATOM      4  C   UNL     1       5.113   4.361  19.362  0.00  0.00    +0.000 C 
ATOM      5  C   UNL     1       4.141   4.265  17.689  0.00  0.00    +0.000 C 
ATOM      6  C   UNL     1       3.298   6.399  19.206  0.00  0.00    +0.000 A 
ATOM      7  C   UNL     1       2.325   6.922  20.050  0.00  0.00    +0.000 A 
ATOM      8  C   UNL     1       1.649   8.033  19.606  0.00  0.00    +0.000 A 
ATOM      9  C   UNL     1       1.940   8.548  18.333  0.00  0.00    +0.000 A 
ATOM     10  C   UNL     1       2.869   7.934  17.469  0.00  0.00    +0.000 A 
ATOM     11  C   UNL     1       3.548   6.818  17.901  0.00  0.00    +0.000 A 
ENDROOT
BRANCH   1  12
ATOM     12  C   UNL     1       5.578   6.471  16.305  0.00  0.00    +0.000 C 
BRANCH  12  13
ATOM     13  O   UNL     1       5.737   5.974  14.976  0.00  0.00    +0.000 OA
BRANCH  13  15
ATOM     14  C   UNL     1       6.016   3.960  13.860  0.00  0.00    +0.000 C 
ATOM     15  C   UNL     1       6.581   4.932  14.850  0.00  0.00    +0.000 C 
ATOM     16  O   UNL     1       7.652   4.825  15.430  0.00  0.00    +0.000 OA
ENDBRANCH  13  15
ENDBRANCH  12  13
ENDBRANCH   1  12
BRANCH   5  17
ATOM     17  O   UNL     1       2.692   4.219  17.662  0.00  0.00    +0.000 OA
BRANCH  17  18
ATOM     18  C   UNL     1       2.050   3.020  17.923  0.00  0.00    +0.000 C 
ATOM     19  C   UNL     1       0.960   3.272  18.940  0.00  0.00    +0.000 C 
ATOM     20  O   UNL     1       2.421   1.959  17.498  0.00  0.00    +0.000 OA
ENDBRANCH  17  18
ENDBRANCH   5  17
TORSDOF 5
ENDMDL
MODEL 8
REMARK VINA RESULT:      -6.9      0.996      1.128
REMARK  Name = 
REMARK  7 active torsions:
REMARK  status: ('A' for Active; 'I' for Inactive)
REMARK    1  A    between atoms: C_1  and  C_2
REMARK    2  A    between atoms: C_2  and  O_4
REMARK    3  A    between atoms: O_4  and  C_5
REMARK    4  A    between atoms: C_5  and  C_6
REMARK    5  A    between atoms: C_10  and  O_11
REMARK    6  A    between atoms: O_11  and  C_12
REMARK    7  A    between atoms: C_12  and  C_13
REMARK                            x       y       z     vdW  Elec       q    Type
REMARK                         _______ _______ _______ _____ _____    ______ ____
ROOT
ATOM      1  C   UNL     1       4.820   4.320  19.068  0.00  0.00    +0.000 C 
ATOM      2  C   UNL     1       4.554   3.603  17.825  0.00  0.00    +0.000 C 
ATOM      3  C   UNL     1       4.275   5.143  16.740  0.00  0.00    +0.000 C 
ATOM      4  C   UNL     1       4.871   3.969  16.319  0.00  0.00    +0.000 C 
ATOM      5  C   UNL     1       5.926   4.533  17.844  0.00  0.00    +0.000 C 
ATOM      6  C   UNL     1       3.555   5.923  17.707  0.00  0.00    +0.000 A 
ATOM      7  C   UNL     1       2.914   7.109  17.373  0.00  0.00    +0.000 A 
ATOM      8  C   UNL     1       2.298   7.792  18.395  0.00  0.00    +0.000 A 
ATOM      9  C   UNL     1       2.382   7.288  19.702  0.00  0.00    +0.000 A 
ATOM     10  C   UNL     1       3.120   6.128  20.014  0.00  0.00    +0.000 A 
ATOM     11  C   UNL     1       3.745   5.440  19.000  0.00  0.00    +0.000 A 
ENDROOT
BRANCH   1  12
ATOM     12  C   UNL     1       4.367   3.083  19.921  0.00  0.00    +0.000 C 
BRANCH  12  13
ATOM     13  O   UNL     1       3.039   2.641  19.640  0.00  0.00    +0.000 OA
BRANCH  13  15
ATOM     14  C   UNL     1       0.861   3.274  20.123  0.00  0.00    +0.000 C 
ATOM     15  C   UNL     1       2.165   2.766  20.657  0.00  0.00    +0.000 C 
ATOM     16  O   UNL     1       2.399   2.474  21.821  0.00  0.00    +0.000 OA
ENDBRANCH  13  15
ENDBRANCH  12  13
ENDBRANCH   1  12
BRANCH   5  17
ATOM     17  O   UNL     1       6.275   5.926  18.044  0.00  0.00    +0.000 OA
BRANCH  17  18
ATOM     18  C   UNL     1       7.273   6.490  17.268  0.00  0.00    +0.000 C 
ATOM     19  C   UNL     1       7.770   7.738  17.961  0.00  0.00    +0.000 C 
ATOM     20  O   UNL     1       7.565   6.099  16.170  0.00  0.00    +0.000 OA
ENDBRANCH  17  18
ENDBRANCH   5  17
TORSDOF 5
ENDMDL
MODEL 9
REMARK VINA RESULT:      -6.9      2.041      4.582
REMARK  Name = 
REMARK  7 active torsions:
REMARK  status: ('A' for Active; 'I' for Inactive)
REMARK    1  A    between atoms: C_1  and  C_2
REMARK    2  A    between atoms: C_2  and  O_4
REMARK    3  A    between atoms: O_4  and  C_5
REMARK    4  A    between atoms: C_5  and  C_6
REMARK    5  A    between atoms: C_10  and  O_11
REMARK    6  A    between atoms: O_11  and  C_12
REMARK    7  A    between atoms: C_12  and  C_13
REMARK                            x       y       z     vdW  Elec       q    Type
REMARK                         _______ _______ _______ _____ _____    ______ ____
ROOT
ATOM      1  C   UNL     1       4.951   4.459  17.380  0.00  0.00    +0.000 C 
ATOM      2  C   UNL     1       4.279   5.663  16.904  0.00  0.00    +0.000 C 
ATOM      3  C   UNL     1       3.694   6.274  18.610  0.00  0.00    +0.000 C 
ATOM      4  C   UNL     1       4.095   7.088  17.567  0.00  0.00    +0.000 C 
ATOM      5  C   UNL     1       5.601   5.908  17.873  0.00  0.00    +0.000 C 
ATOM      6  C   UNL     1       3.347   4.993  19.157  0.00  0.00    +0.000 A 
ATOM      7  C   UNL     1       2.657   4.862  20.356  0.00  0.00    +0.000 A 
ATOM      8  C   UNL     1       2.424   3.582  20.801  0.00  0.00    +0.000 A 
ATOM      9  C   UNL     1       2.919   2.498  20.059  0.00  0.00    +0.000 A 
ATOM     10  C   UNL     1       3.693   2.677  18.895  0.00  0.00    +0.000 A 
ATOM     11  C   UNL     1       3.938   3.953  18.443  0.00  0.00    +0.000 A 
ENDROOT
BRANCH   1  12
ATOM     12  C   UNL     1       4.774   3.765  15.983  0.00  0.00    +0.000 C 
BRANCH  12  13
ATOM     13  O   UNL     1       6.002   3.353  15.381  0.00  0.00    +0.000 OA
BRANCH  13  15
ATOM     14  C   UNL     1       7.129   5.138  14.423  0.00  0.00    +0.000 C 
ATOM     15  C   UNL     1       6.280   3.926  14.194  0.00  0.00    +0.000 C 
ATOM     16  O   UNL     1       5.920   3.496  13.108  0.00  0.00    +0.000 OA
ENDBRANCH  13  15
ENDBRANCH  12  13
ENDBRANCH   1  12
BRANCH   5  17
ATOM     17  O   UNL     1       6.026   5.563  19.214  0.00  0.00    +0.000 OA
BRANCH  17  18
ATOM     18  C   UNL     1       7.343   5.782  19.583  0.00  0.00    +0.000 C 
ATOM     19  C   UNL     1       7.987   6.680  18.552  0.00  0.00    +0.000 C 
ATOM     20  O   UNL     1       7.880   5.221  20.500  0.00  0.00    +0.000 OA
ENDBRANCH  17  18
ENDBRANCH   5  17
TORSDOF 5
ENDMDL
