MODEL 1
REMARK VINA RESULT:      -7.4      0.000      0.000
REMARK  Name = 
REMARK  10 active torsions:
REMARK  status: ('A' for Active; 'I' for Inactive)
REMARK    1  A    between atoms: C_1  and  O_2
REMARK    2  A    between atoms: O_2  and  C_3
REMARK    3  A    between atoms: C_3  and  C_4
REMARK    4  A    between atoms: C_4  and  C_5
REMARK    5  A    between atoms: N_7  and  C_8
REMARK    6  A    between atoms: C_11  and  C_12
REMARK    7  A    between atoms: C_12  and  C_13
REMARK    8  A    between atoms: C_13  and  N_14
REMARK    9  A    between atoms: N_17  and  C_18
REMARK   10  A    between atoms: C_21  and  C_22
REMARK                            x       y       z     vdW  Elec       q    Type
REMARK                         _______ _______ _______ _____ _____    ______ ____
ROOT
ATOM      1  C   UNL     1       1.098  11.241  19.963  0.00  0.00    +0.000 C 
ENDROOT
BRANCH   1   2
ATOM      2  N   UNL     1       0.231  10.132  19.539  0.00  0.00    +0.000 NA
ATOM      3  C   UNL     1       0.509   9.638  18.168  0.00  0.00    +0.000 C 
ATOM      4  C   UNL     1       1.841   8.876  17.965  0.00  0.00    +0.000 C 
ATOM      5  N   UNL     1       2.094   7.906  19.034  0.00  0.00    +0.000 N 
ATOM      6  C   UNL     1       1.758   8.278  20.404  0.00  0.00    +0.000 C 
ATOM      7  C   UNL     1       0.381   8.980  20.460  0.00  0.00    +0.000 C 
BRANCH   5   8
ATOM      8  C   UNL     1       2.523   6.634  18.726  0.00  0.00    +0.000 A 
ATOM      9  N   UNL     1       1.885   5.571  19.300  0.00  0.00    +0.000 NA
ATOM     10  C   UNL     1       2.293   4.299  19.063  0.00  0.00    +0.000 A 
ATOM     11  C   UNL     1       3.333   3.927  18.234  0.00  0.00    +0.000 A 
ATOM     12  C   UNL     1       3.726   2.508  17.995  0.00  0.00    +0.000 C 
ATOM     13  C   UNL     1       3.951   5.018  17.637  0.00  0.00    +0.000 A 
ATOM     14  O   UNL     1       4.997   4.940  16.761  0.00  0.00    +0.000 OA
ATOM     15  C   UNL     1       5.300   6.206  16.383  0.00  0.00    +0.000 A 
ATOM     16  C   UNL     1       4.465   7.103  17.005  0.00  0.00    +0.000 A 
ATOM     17  C   UNL     1       3.593   6.345  17.844  0.00  0.00    +0.000 A 
ENDBRANCH   5   8
ENDBRANCH   1   2
BRANCH   1  18
ATOM     18  C   UNL     1       0.413  12.328  20.803  0.00  0.00    +0.000 C 
BRANCH  18  22
ATOM     19  C   UNL     1      -3.521  12.815  22.654  0.00  0.00    +0.000 C 
ATOM     20  C   UNL     1      -2.532  11.871  23.341  0.00  0.00    +0.000 C 
ATOM     21  C   UNL     1      -1.106  12.110  22.848  0.00  0.00    +0.000 C 
ATOM     22  C   UNL     1      -0.997  11.987  21.319  0.00  0.00    +0.000 C 
ATOM     23  C   UNL     1      -2.021  12.904  20.628  0.00  0.00    +0.000 C 
ATOM     24  C   UNL     1      -3.437  12.661  21.134  0.00  0.00    +0.000 C 
BRANCH  19  27
ATOM     25  C   UNL     1      -5.711  13.468  23.663  0.00  0.00    +0.000 C 
ATOM     26  O   UNL     1      -5.390  14.630  23.883  0.00  0.00    +0.000 OA
ATOM     27  N   UNL     1      -4.873  12.542  23.089  0.00  0.00    +0.000 N 
ATOM     28  H   UNL     1      -5.182  11.570  23.123  0.00  0.00    +0.000 HD
BRANCH  25  29
ATOM     29  C   UNL     1      -7.070  12.916  24.062  0.00  0.00    +0.000 C 
BRANCH  29  30
ATOM     30  C   UNL     1      -7.916  12.490  22.866  0.00  0.00    +0.000 C 
BRANCH  30  32
ATOM     31  C   UNL     1      -7.646  11.136  20.937  0.00  0.00    +0.000 C 
ATOM     32  O   UNL     1      -7.375  11.276  22.325  0.00  0.00    +0.000 OA
ENDBRANCH  30  32
ENDBRANCH  29  30
ENDBRANCH  25  29
ENDBRANCH  19  27
ENDBRANCH  18  22
ENDBRANCH   1  18
TORSDOF 8
ENDMDL
MODEL 2
REMARK VINA RESULT:      -7.4      7.804     10.334
REMARK  Name = 
REMARK  10 active torsions:
REMARK  status: ('A' for Active; 'I' for Inactive)
REMARK    1  A    between atoms: C_1  and  O_2
REMARK    2  A    between atoms: O_2  and  C_3
REMARK    3  A    between atoms: C_3  and  C_4
REMARK    4  A    between atoms: C_4  and  C_5
REMARK    5  A    between atoms: N_7  and  C_8
REMARK    6  A    between atoms: C_11  and  C_12
REMARK    7  A    between atoms: C_12  and  C_13
REMARK    8  A    between atoms: C_13  and  N_14
REMARK    9  A    between atoms: N_17  and  C_18
REMARK   10  A    between atoms: C_21  and  C_22
REMARK                            x       y       z     vdW  Elec       q    Type
REMARK                         _______ _______ _______ _____ _____    ______ ____
ROOT
ATOM      1  C   UNL     1       7.285   8.271  17.315  0.00  0.00    +0.000 C 
ENDROOT
BRANCH   1   2
ATOM      2  N   UNL     1       7.068   6.870  16.925  0.00  0.00    +0.000 NA
ATOM      3  C   UNL     1       7.316   5.895  18.015  0.00  0.00    +0.000 C 
ATOM      4  C   UNL     1       6.298   5.887  19.181  0.00  0.00    +0.000 C 
ATOM      5  N   UNL     1       4.912   5.946  18.709  0.00  0.00    +0.000 N 
ATOM      6  C   UNL     1       4.600   6.811  17.577  0.00  0.00    +0.000 C 
ATOM      7  C   UNL     1       5.670   6.674  16.469  0.00  0.00    +0.000 C 
BRANCH   5   8
ATOM      8  C   UNL     1       3.962   5.107  19.249  0.00  0.00    +0.000 A 
ATOM      9  N   UNL     1       3.183   5.573  20.270  0.00  0.00    +0.000 NA
ATOM     10  C   UNL     1       2.261   4.776  20.866  0.00  0.00    +0.000 A 
ATOM     11  C   UNL     1       1.982   3.467  20.520  0.00  0.00    +0.000 A 
ATOM     12  C   UNL     1       0.941   2.642  21.199  0.00  0.00    +0.000 C 
ATOM     13  C   UNL     1       2.763   3.021  19.462  0.00  0.00    +0.000 A 
ATOM     14  O   UNL     1       2.687   1.775  18.907  0.00  0.00    +0.000 OA
ATOM     15  C   UNL     1       3.582   1.731  17.891  0.00  0.00    +0.000 A 
ATOM     16  C   UNL     1       4.240   2.933  17.783  0.00  0.00    +0.000 A 
ATOM     17  C   UNL     1       3.732   3.779  18.815  0.00  0.00    +0.000 A 
ENDBRANCH   5   8
ENDBRANCH   1   2
BRANCH   1  18
ATOM     18  C   UNL     1       8.421   8.507  18.319  0.00  0.00    +0.000 C 
BRANCH  18  22
ATOM     19  C   UNL     1       9.151  12.737  19.162  0.00  0.00    +0.000 C 
ATOM     20  C   UNL     1       8.758  12.362  17.731  0.00  0.00    +0.000 C 
ATOM     21  C   UNL     1       8.142  10.966  17.675  0.00  0.00    +0.000 C 
ATOM     22  C   UNL     1       9.075   9.900  18.276  0.00  0.00    +0.000 C 
ATOM     23  C   UNL     1       9.505  10.299  19.699  0.00  0.00    +0.000 C 
ATOM     24  C   UNL     1      10.110  11.696  19.742  0.00  0.00    +0.000 C 
BRANCH  19  27
ATOM     25  C   UNL     1       9.684  14.929  20.235  0.00  0.00    +0.000 C 
ATOM     26  O   UNL     1       9.032  14.718  21.251  0.00  0.00    +0.000 OA
ATOM     27  N   UNL     1       9.782  14.038  19.193  0.00  0.00    +0.000 N 
ATOM     28  H   UNL     1      10.197  14.394  18.332  0.00  0.00    +0.000 HD
BRANCH  25  29
ATOM     29  C   UNL     1      10.415  16.242  20.003  0.00  0.00    +0.000 C 
BRANCH  29  30
ATOM     30  C   UNL     1       9.535  17.310  19.361  0.00  0.00    +0.000 C 
BRANCH  30  32
ATOM     31  C   UNL     1       7.273  17.127  18.670  0.00  0.00    +0.000 C 
ATOM     32  O   UNL     1       8.604  16.671  18.475  0.00  0.00    +0.000 OA
ENDBRANCH  30  32
ENDBRANCH  29  30
ENDBRANCH  25  29
ENDBRANCH  19  27
ENDBRANCH  18  22
ENDBRANCH   1  18
TORSDOF 8
ENDMDL
MODEL 3
REMARK VINA RESULT:      -7.0      7.104     10.775
REMARK  Name = 
REMARK  10 active torsions:
REMARK  status: ('A' for Active; 'I' for Inactive)
REMARK    1  A    between atoms: C_1  and  O_2
REMARK    2  A    between atoms: O_2  and  C_3
REMARK    3  A    between atoms: C_3  and  C_4
REMARK    4  A    between atoms: C_4  and  C_5
REMARK    5  A    between atoms: N_7  and  C_8
REMARK    6  A    between atoms: C_11  and  C_12
REMARK    7  A    between atoms: C_12  and  C_13
REMARK    8  A    between atoms: C_13  and  N_14
REMARK    9  A    between atoms: N_17  and  C_18
REMARK   10  A    between atoms: C_21  and  C_22
REMARK                            x       y       z     vdW  Elec       q    Type
REMARK                         _______ _______ _______ _____ _____    ______ ____
ROOT
ATOM      1  C   UNL     1       7.509   8.418  17.573  0.00  0.00    +0.000 C 
ENDROOT
BRANCH   1   2
ATOM      2  N   UNL     1       7.502   7.051  17.033  0.00  0.00    +0.000 NA
ATOM      3  C   UNL     1       7.542   5.991  18.071  0.00  0.00    +0.000 C 
ATOM      4  C   UNL     1       6.268   5.820  18.933  0.00  0.00    +0.000 C 
ATOM      5  N   UNL     1       5.044   5.850  18.128  0.00  0.00    +0.000 N 
ATOM      6  C   UNL     1       4.962   6.800  17.024  0.00  0.00    +0.000 C 
ATOM      7  C   UNL     1       6.282   6.825  16.220  0.00  0.00    +0.000 C 
BRANCH   5   8
ATOM      8  C   UNL     1       4.055   4.915  18.340  0.00  0.00    +0.000 A 
ATOM      9  N   UNL     1       4.102   3.743  17.641  0.00  0.00    +0.000 NA
ATOM     10  C   UNL     1       3.131   2.805  17.780  0.00  0.00    +0.000 A 
ATOM     11  C   UNL     1       2.039   2.894  18.623  0.00  0.00    +0.000 A 
ATOM     12  C   UNL     1       1.010   1.823  18.751  0.00  0.00    +0.000 C 
ATOM     13  C   UNL     1       2.023   4.080  19.347  0.00  0.00    +0.000 A 
ATOM     14  O   UNL     1       1.069   4.423  20.262  0.00  0.00    +0.000 OA
ATOM     15  C   UNL     1       1.414   5.632  20.769  0.00  0.00    +0.000 A 
ATOM     16  C   UNL     1       2.578   6.077  20.190  0.00  0.00    +0.000 A 
ATOM     17  C   UNL     1       2.978   5.086  19.244  0.00  0.00    +0.000 A 
ENDBRANCH   5   8
ENDBRANCH   1   2
BRANCH   1  18
ATOM     18  C   UNL     1       8.652   8.736  18.546  0.00  0.00    +0.000 C 
BRANCH  18  22
ATOM     19  C   UNL     1      10.746  12.466  19.466  0.00  0.00    +0.000 C 
ATOM     20  C   UNL     1       9.745  11.946  20.501  0.00  0.00    +0.000 C 
ATOM     21  C   UNL     1       9.413  10.475  20.259  0.00  0.00    +0.000 C 
ATOM     22  C   UNL     1       8.891  10.230  18.833  0.00  0.00    +0.000 C 
ATOM     23  C   UNL     1       9.877  10.791  17.793  0.00  0.00    +0.000 C 
ATOM     24  C   UNL     1      10.206  12.256  18.051  0.00  0.00    +0.000 C 
BRANCH  19  27
ATOM     25  C   UNL     1      10.088  14.875  19.494  0.00  0.00    +0.000 C 
ATOM     26  O   UNL     1       8.937  14.681  19.117  0.00  0.00    +0.000 OA
ATOM     27  N   UNL     1      11.010  13.872  19.674  0.00  0.00    +0.000 N 
ATOM     28  H   UNL     1      11.977  14.167  19.811  0.00  0.00    +0.000 HD
BRANCH  25  29
ATOM     29  C   UNL     1      10.629  16.273  19.747  0.00  0.00    +0.000 C 
BRANCH  29  30
ATOM     30  C   UNL     1      10.465  16.724  21.195  0.00  0.00    +0.000 C 
BRANCH  30  32
ATOM     31  C   UNL     1       9.661  15.530  23.080  0.00  0.00    +0.000 C 
ATOM     32  O   UNL     1      10.643  15.589  22.055  0.00  0.00    +0.000 OA
ENDBRANCH  30  32
ENDBRANCH  29  30
ENDBRANCH  25  29
ENDBRANCH  19  27
ENDBRANCH  18  22
ENDBRANCH   1  18
TORSDOF 8
ENDMDL
MODEL 4
REMARK VINA RESULT:      -7.0      7.119     10.829
REMARK  Name = 
REMARK  10 active torsions:
REMARK  status: ('A' for Active; 'I' for Inactive)
REMARK    1  A    between atoms: C_1  and  O_2
REMARK    2  A    between atoms: O_2  and  C_3
REMARK    3  A    between atoms: C_3  and  C_4
REMARK    4  A    between atoms: C_4  and  C_5
REMARK    5  A    between atoms: N_7  and  C_8
REMARK    6  A    between atoms: C_11  and  C_12
REMARK    7  A    between atoms: C_12  and  C_13
REMARK    8  A    between atoms: C_13  and  N_14
REMARK    9  A    between atoms: N_17  and  C_18
REMARK   10  A    between atoms: C_21  and  C_22
REMARK                            x       y       z     vdW  Elec       q    Type
REMARK                         _______ _______ _______ _____ _____    ______ ____
ROOT
ATOM      1  C   UNL     1       7.989   8.152  18.256  0.00  0.00    +0.000 C 
ENDROOT
BRANCH   1   2
ATOM      2  N   UNL     1       7.839   6.915  17.476  0.00  0.00    +0.000 NA
ATOM      3  C   UNL     1       7.838   5.679  18.297  0.00  0.00    +0.000 C 
ATOM      4  C   UNL     1       6.598   5.445  19.193  0.00  0.00    +0.000 C 
ATOM      5  N   UNL     1       5.343   5.718  18.487  0.00  0.00    +0.000 N 
ATOM      6  C   UNL     1       5.288   6.863  17.585  0.00  0.00    +0.000 C 
ATOM      7  C   UNL     1       6.565   6.939  16.716  0.00  0.00    +0.000 C 
BRANCH   5   8
ATOM      8  C   UNL     1       4.289   4.838  18.588  0.00  0.00    +0.000 A 
ATOM      9  N   UNL     1       4.352   3.661  17.898  0.00  0.00    +0.000 NA
ATOM     10  C   UNL     1       3.323   2.776  17.927  0.00  0.00    +0.000 A 
ATOM     11  C   UNL     1       2.151   2.926  18.643  0.00  0.00    +0.000 A 
ATOM     12  C   UNL     1       1.060   1.910  18.655  0.00  0.00    +0.000 C 
ATOM     13  C   UNL     1       2.117   4.115  19.361  0.00  0.00    +0.000 A 
ATOM     14  O   UNL     1       1.086   4.512  20.164  0.00  0.00    +0.000 OA
ATOM     15  C   UNL     1       1.435   5.704  20.707  0.00  0.00    +0.000 A 
ATOM     16  C   UNL     1       2.678   6.085  20.262  0.00  0.00    +0.000 A 
ATOM     17  C   UNL     1       3.128   5.069  19.366  0.00  0.00    +0.000 A 
ENDBRANCH   5   8
ENDBRANCH   1   2
BRANCH   1  18
ATOM     18  C   UNL     1       8.287   9.415  17.437  0.00  0.00    +0.000 C 
BRANCH  18  22
ATOM     19  C   UNL     1       9.397  12.674  20.137  0.00  0.00    +0.000 C 
ATOM     20  C   UNL     1       9.437  12.960  18.634  0.00  0.00    +0.000 C 
ATOM     21  C   UNL     1       8.649  11.912  17.850  0.00  0.00    +0.000 C 
ATOM     22  C   UNL     1       9.142  10.485  18.141  0.00  0.00    +0.000 C 
ATOM     23  C   UNL     1       9.143  10.211  19.656  0.00  0.00    +0.000 C 
ATOM     24  C   UNL     1       9.925  11.267  20.426  0.00  0.00    +0.000 C 
BRANCH  19  27
ATOM     25  C   UNL     1       9.712  14.828  21.362  0.00  0.00    +0.000 C 
ATOM     26  O   UNL     1       8.551  15.202  21.230  0.00  0.00    +0.000 OA
ATOM     27  N   UNL     1      10.191  13.641  20.861  0.00  0.00    +0.000 N 
ATOM     28  H   UNL     1      11.204  13.522  20.872  0.00  0.00    +0.000 HD
BRANCH  25  29
ATOM     29  C   UNL     1      10.761  15.682  22.054  0.00  0.00    +0.000 C 
BRANCH  29  30
ATOM     30  C   UNL     1      11.587  16.519  21.082  0.00  0.00    +0.000 C 
BRANCH  30  32
ATOM     31  C   UNL     1      11.695  16.511  18.712  0.00  0.00    +0.000 C 
ATOM     32  O   UNL     1      11.834  15.743  19.900  0.00  0.00    +0.000 OA
ENDBRANCH  30  32
ENDBRANCH  29  30
ENDBRANCH  25  29
ENDBRANCH  19  27
ENDBRANCH  18  22
ENDBRANCH   1  18
TORSDOF 8
ENDMDL
MODEL 5
REMARK VINA RESULT:      -6.9      3.953      6.344
REMARK  Name = 
REMARK  10 active torsions:
REMARK  status: ('A' for Active; 'I' for Inactive)
REMARK    1  A    between atoms: C_1  and  O_2
REMARK    2  A    between atoms: O_2  and  C_3
REMARK    3  A    between atoms: C_3  and  C_4
REMARK    4  A    between atoms: C_4  and  C_5
REMARK    5  A    between atoms: N_7  and  C_8
REMARK    6  A    between atoms: C_11  and  C_12
REMARK    7  A    between atoms: C_12  and  C_13
REMARK    8  A    between atoms: C_13  and  N_14
REMARK    9  A    between atoms: N_17  and  C_18
REMARK   10  A    between atoms: C_21  and  C_22
REMARK                            x       y       z     vdW  Elec       q    Type
REMARK                         _______ _______ _______ _____ _____    ______ ____
ROOT
ATOM      1  C   UNL     1       1.718   3.270  20.331  0.00  0.00    +0.000 C 
ENDROOT
BRANCH   1   2
ATOM      2  N   UNL     1       2.579   2.319  19.613  0.00  0.00    +0.000 NA
ATOM      3  C   UNL     1       2.327   2.259  18.153  0.00  0.00    +0.000 C 
ATOM      4  C   UNL     1       2.749   3.498  17.327  0.00  0.00    +0.000 C 
ATOM      5  N   UNL     1       4.076   3.992  17.704  0.00  0.00    +0.000 N 
ATOM      6  C   UNL     1       4.440   3.994  19.117  0.00  0.00    +0.000 C 
ATOM      7  C   UNL     1       4.007   2.676  19.799  0.00  0.00    +0.000 C 
BRANCH   5   8
ATOM      8  C   UNL     1       4.992   4.325  16.731  0.00  0.00    +0.000 A 
ATOM      9  N   UNL     1       4.950   3.660  15.539  0.00  0.00    +0.000 NA
ATOM     10  C   UNL     1       5.854   3.920  14.561  0.00  0.00    +0.000 A 
ATOM     11  C   UNL     1       6.865   4.859  14.626  0.00  0.00    +0.000 A 
ATOM     12  C   UNL     1       7.821   5.116  13.511  0.00  0.00    +0.000 C 
ATOM     13  C   UNL     1       6.874   5.545  15.834  0.00  0.00    +0.000 A 
ATOM     14  O   UNL     1       7.755   6.536  16.162  0.00  0.00    +0.000 OA
ATOM     15  C   UNL     1       7.427   6.971  17.403  0.00  0.00    +0.000 A 
ATOM     16  C   UNL     1       6.347   6.271  17.884  0.00  0.00    +0.000 A 
ATOM     17  C   UNL     1       5.987   5.321  16.881  0.00  0.00    +0.000 A 
ENDBRANCH   5   8
ENDBRANCH   1   2
BRANCH   1  18
ATOM     18  C   UNL     1       2.384   4.597  20.719  0.00  0.00    +0.000 C 
BRANCH  18  22
ATOM     19  C   UNL     1       1.544   8.835  20.034  0.00  0.00    +0.000 C 
ATOM     20  C   UNL     1       0.569   8.059  20.922  0.00  0.00    +0.000 C 
ATOM     21  C   UNL     1       1.186   6.748  21.407  0.00  0.00    +0.000 C 
ATOM     22  C   UNL     1       1.667   5.872  20.238  0.00  0.00    +0.000 C 
ATOM     23  C   UNL     1       2.614   6.666  19.321  0.00  0.00    +0.000 C 
ATOM     24  C   UNL     1       1.990   7.973  18.851  0.00  0.00    +0.000 C 
BRANCH  19  27
ATOM     25  C   UNL     1       0.817  11.215  20.253  0.00  0.00    +0.000 C 
ATOM     26  O   UNL     1       1.218  11.349  21.404  0.00  0.00    +0.000 OA
ATOM     27  N   UNL     1       0.928  10.046  19.538  0.00  0.00    +0.000 N 
ATOM     28  H   UNL     1       0.401   9.998  18.667  0.00  0.00    +0.000 HD
BRANCH  25  29
ATOM     29  C   UNL     1       0.097  12.332  19.515  0.00  0.00    +0.000 C 
BRANCH  29  30
ATOM     30  C   UNL     1      -1.354  11.992  19.188  0.00  0.00    +0.000 C 
BRANCH  30  32
ATOM     31  C   UNL     1      -2.163  10.250  17.796  0.00  0.00    +0.000 C 
ATOM     32  O   UNL     1      -1.414  11.456  17.858  0.00  0.00    +0.000 OA
ENDBRANCH  30  32
ENDBRANCH  29  30
ENDBRANCH  25  29
ENDBRANCH  19  27
ENDBRANCH  18  22
ENDBRANCH   1  18
TORSDOF 8
ENDMDL
MODEL 6
REMARK VINA RESULT:      -6.8      2.030     10.872
REMARK  Name = 
REMARK  10 active torsions:
REMARK  status: ('A' for Active; 'I' for Inactive)
REMARK    1  A    between atoms: C_1  and  O_2
REMARK    2  A    between atoms: O_2  and  C_3
REMARK    3  A    between atoms: C_3  and  C_4
REMARK    4  A    between atoms: C_4  and  C_5
REMARK    5  A    between atoms: N_7  and  C_8
REMARK    6  A    between atoms: C_11  and  C_12
REMARK    7  A    between atoms: C_12  and  C_13
REMARK    8  A    between atoms: C_13  and  N_14
REMARK    9  A    between atoms: N_17  and  C_18
REMARK   10  A    between atoms: C_21  and  C_22
REMARK                            x       y       z     vdW  Elec       q    Type
REMARK                         _______ _______ _______ _____ _____    ______ ____
ROOT
ATOM      1  C   UNL     1       0.753  10.420  18.529  0.00  0.00    +0.000 C 
ENDROOT
BRANCH   1   2
ATOM      2  N   UNL     1       1.068  11.558  19.404  0.00  0.00    +0.000 NA
ATOM      3  C   UNL     1       0.450  12.838  18.978  0.00  0.00    +0.000 C 
ATOM      4  C   UNL     1      -1.086  12.948  19.133  0.00  0.00    +0.000 C 
ATOM      5  N   UNL     1      -1.553  12.438  20.425  0.00  0.00    +0.000 N 
ATOM      6  C   UNL     1      -0.928  11.234  20.962  0.00  0.00    +0.000 C 
ATOM      7  C   UNL     1       0.607  11.286  20.788  0.00  0.00    +0.000 C 
BRANCH   5   8
ATOM      8  C   UNL     1      -2.470  13.154  21.161  0.00  0.00    +0.000 A 
ATOM      9  N   UNL     1      -2.022  13.916  22.202  0.00  0.00    +0.000 NA
ATOM     10  C   UNL     1      -2.887  14.609  22.985  0.00  0.00    +0.000 A 
ATOM     11  C   UNL     1      -4.259  14.657  22.826  0.00  0.00    +0.000 A 
ATOM     12  C   UNL     1      -5.162  15.452  23.706  0.00  0.00    +0.000 C 
ATOM     13  C   UNL     1      -4.693  13.899  21.745  0.00  0.00    +0.000 A 
ATOM     14  O   UNL     1      -5.995  13.778  21.350  0.00  0.00    +0.000 OA
ATOM     15  C   UNL     1      -6.010  12.984  20.251  0.00  0.00    +0.000 A 
ATOM     16  C   UNL     1      -4.734  12.586  19.933  0.00  0.00    +0.000 A 
ATOM     17  C   UNL     1      -3.864  13.157  20.911  0.00  0.00    +0.000 A 
ENDBRANCH   5   8
ENDBRANCH   1   2
BRANCH   1  18
ATOM     18  C   UNL     1       1.962   9.732  17.881  0.00  0.00    +0.000 C 
BRANCH  18  22
ATOM     19  C   UNL     1       3.475   5.920  19.403  0.00  0.00    +0.000 C 
ATOM     20  C   UNL     1       3.545   6.152  17.892  0.00  0.00    +0.000 C 
ATOM     21  C   UNL     1       3.384   7.633  17.552  0.00  0.00    +0.000 C 
ATOM     22  C   UNL     1       2.083   8.217  18.129  0.00  0.00    +0.000 C 
ATOM     23  C   UNL     1       1.993   7.946  19.642  0.00  0.00    +0.000 C 
ATOM     24  C   UNL     1       2.163   6.468  19.967  0.00  0.00    +0.000 C 
BRANCH  19  27
ATOM     25  C   UNL     1       4.590   3.688  19.277  0.00  0.00    +0.000 C 
ATOM     26  O   UNL     1       5.517   4.066  18.569  0.00  0.00    +0.000 OA
ATOM     27  N   UNL     1       3.575   4.510  19.707  0.00  0.00    +0.000 N 
ATOM     28  H   UNL     1       2.771   4.050  20.133  0.00  0.00    +0.000 HD
BRANCH  25  29
ATOM     29  C   UNL     1       4.442   2.237  19.707  0.00  0.00    +0.000 C 
BRANCH  29  30
ATOM     30  C   UNL     1       3.487   1.445  18.819  0.00  0.00    +0.000 C 
BRANCH  30  32
ATOM     31  C   UNL     1       1.276   2.248  18.511  0.00  0.00    +0.000 C 
ATOM     32  O   UNL     1       2.637   2.365  18.119  0.00  0.00    +0.000 OA
ENDBRANCH  30  32
ENDBRANCH  29  30
ENDBRANCH  25  29
ENDBRANCH  19  27
ENDBRANCH  18  22
ENDBRANCH   1  18
TORSDOF 8
ENDMDL
MODEL 7
REMARK VINA RESULT:      -6.8      1.627      2.728
REMARK  Name = 
REMARK  10 active torsions:
REMARK  status: ('A' for Active; 'I' for Inactive)
REMARK    1  A    between atoms: C_1  and  O_2
REMARK    2  A    between atoms: O_2  and  C_3
REMARK    3  A    between atoms: C_3  and  C_4
REMARK    4  A    between atoms: C_4  and  C_5
REMARK    5  A    between atoms: N_7  and  C_8
REMARK    6  A    between atoms: C_11  and  C_12
REMARK    7  A    between atoms: C_12  and  C_13
REMARK    8  A    between atoms: C_13  and  N_14
REMARK    9  A    between atoms: N_17  and  C_18
REMARK   10  A    between atoms: C_21  and  C_22
REMARK                            x       y       z     vdW  Elec       q    Type
REMARK                         _______ _______ _______ _____ _____    ______ ____
ROOT
ATOM      1  C   UNL     1      -0.014  10.703  21.903  0.00  0.00    +0.000 C 
ENDROOT
BRANCH   1   2
ATOM      2  N   UNL     1      -0.613   9.742  20.965  0.00  0.00    +0.000 NA
ATOM      3  C   UNL     1      -0.126   9.874  19.570  0.00  0.00    +0.000 C 
ATOM      4  C   UNL     1       1.339   9.451  19.306  0.00  0.00    +0.000 C 
ATOM      5  N   UNL     1       1.678   8.184  19.961  0.00  0.00    +0.000 N 
ATOM      6  C   UNL     1       1.157   7.933  21.300  0.00  0.00    +0.000 C 
ATOM      7  C   UNL     1      -0.328   8.353  21.401  0.00  0.00    +0.000 C 
BRANCH   5   8
ATOM      8  C   UNL     1       2.366   7.212  19.269  0.00  0.00    +0.000 A 
ATOM      9  N   UNL     1       3.055   7.572  18.146  0.00  0.00    +0.000 NA
ATOM     10  C   UNL     1       3.716   6.648  17.404  0.00  0.00    +0.000 A 
ATOM     11  C   UNL     1       3.800   5.298  17.686  0.00  0.00    +0.000 A 
ATOM     12  C   UNL     1       4.558   4.328  16.844  0.00  0.00    +0.000 C 
ATOM     13  C   UNL     1       3.118   4.955  18.847  0.00  0.00    +0.000 A 
ATOM     14  O   UNL     1       3.048   3.694  19.367  0.00  0.00    +0.000 OA
ATOM     15  C   UNL     1       2.322   3.770  20.509  0.00  0.00    +0.000 A 
ATOM     16  C   UNL     1       1.919   5.065  20.733  0.00  0.00    +0.000 A 
ATOM     17  C   UNL     1       2.412   5.847  19.646  0.00  0.00    +0.000 A 
ENDBRANCH   5   8
ENDBRANCH   1   2
BRANCH   1  18
ATOM     18  C   UNL     1      -0.145  12.179  21.504  0.00  0.00    +0.000 C 
BRANCH  18  22
ATOM     19  C   UNL     1      -4.313  12.930  22.599  0.00  0.00    +0.000 C 
ATOM     20  C   UNL     1      -3.716  13.780  21.476  0.00  0.00    +0.000 C 
ATOM     21  C   UNL     1      -2.437  13.151  20.926  0.00  0.00    +0.000 C 
ATOM     22  C   UNL     1      -1.395  12.907  22.030  0.00  0.00    +0.000 C 
ATOM     23  C   UNL     1      -2.007  12.089  23.180  0.00  0.00    +0.000 C 
ATOM     24  C   UNL     1      -3.286  12.722  23.714  0.00  0.00    +0.000 C 
BRANCH  19  27
ATOM     25  C   UNL     1      -6.441  12.923  23.908  0.00  0.00    +0.000 C 
ATOM     26  O   UNL     1      -6.394  11.731  24.191  0.00  0.00    +0.000 OA
ATOM     27  N   UNL     1      -5.492  13.563  23.147  0.00  0.00    +0.000 N 
ATOM     28  H   UNL     1      -5.728  14.502  22.826  0.00  0.00    +0.000 HD
BRANCH  25  29
ATOM     29  C   UNL     1      -7.601  13.808  24.332  0.00  0.00    +0.000 C 
BRANCH  29  30
ATOM     30  C   UNL     1      -7.916  14.907  23.322  0.00  0.00    +0.000 C 
BRANCH  30  32
ATOM     31  C   UNL     1      -7.060  16.976  22.538  0.00  0.00    +0.000 C 
ATOM     32  O   UNL     1      -7.106  16.054  23.618  0.00  0.00    +0.000 OA
ENDBRANCH  30  32
ENDBRANCH  29  30
ENDBRANCH  25  29
ENDBRANCH  19  27
ENDBRANCH  18  22
ENDBRANCH   1  18
TORSDOF 8
ENDMDL
MODEL 8
REMARK VINA RESULT:      -6.8      8.814     12.570
REMARK  Name = 
REMARK  10 active torsions:
REMARK  status: ('A' for Active; 'I' for Inactive)
REMARK    1  A    between atoms: C_1  and  O_2
REMARK    2  A    between atoms: O_2  and  C_3
REMARK    3  A    between atoms: C_3  and  C_4
REMARK    4  A    between atoms: C_4  and  C_5
REMARK    5  A    between atoms: N_7  and  C_8
REMARK    6  A    between atoms: C_11  and  C_12
REMARK    7  A    between atoms: C_12  and  C_13
REMARK    8  A    between atoms: C_13  and  N_14
REMARK    9  A    between atoms: N_17  and  C_18
REMARK   10  A    between atoms: C_21  and  C_22
REMARK                            x       y       z     vdW  Elec       q    Type
REMARK                         _______ _______ _______ _____ _____    ______ ____
ROOT
ATOM      1  C   UNL     1       8.370  10.085  18.289  0.00  0.00    +0.000 C 
ENDROOT
BRANCH   1   2
ATOM      2  N   UNL     1       9.681  10.393  18.878  0.00  0.00    +0.000 NA
ATOM      3  C   UNL     1      10.591  11.135  17.972  0.00  0.00    +0.000 C 
ATOM      4  C   UNL     1      10.213  12.605  17.666  0.00  0.00    +0.000 C 
ATOM      5  N   UNL     1       9.808  13.337  18.869  0.00  0.00    +0.000 N 
ATOM      6  C   UNL     1       8.989  12.646  19.859  0.00  0.00    +0.000 C 
ATOM      7  C   UNL     1       9.515  11.212  20.103  0.00  0.00    +0.000 C 
BRANCH   5   8
ATOM      8  C   UNL     1      10.296  14.602  19.105  0.00  0.00    +0.000 A 
ATOM      9  N   UNL     1      11.574  14.734  19.570  0.00  0.00    +0.000 NA
ATOM     10  C   UNL     1      12.091  15.955  19.859  0.00  0.00    +0.000 A 
ATOM     11  C   UNL     1      11.441  17.164  19.703  0.00  0.00    +0.000 A 
ATOM     12  C   UNL     1      12.066  18.480  20.020  0.00  0.00    +0.000 C 
ATOM     13  C   UNL     1      10.153  17.012  19.203  0.00  0.00    +0.000 A 
ATOM     14  O   UNL     1       9.293  18.039  18.940  0.00  0.00    +0.000 OA
ATOM     15  C   UNL     1       8.156  17.494  18.443  0.00  0.00    +0.000 A 
ATOM     16  C   UNL     1       8.268  16.126  18.385  0.00  0.00    +0.000 A 
ATOM     17  C   UNL     1       9.558  15.793  18.898  0.00  0.00    +0.000 A 
ENDBRANCH   5   8
ENDBRANCH   1   2
BRANCH   1  18
ATOM     18  C   UNL     1       8.283   8.750  17.537  0.00  0.00    +0.000 C 
BRANCH  18  22
ATOM     19  C   UNL     1       6.228   4.944  18.194  0.00  0.00    +0.000 C 
ATOM     20  C   UNL     1       5.399   6.105  17.640  0.00  0.00    +0.000 C 
ATOM     21  C   UNL     1       6.296   7.206  17.079  0.00  0.00    +0.000 C 
ATOM     22  C   UNL     1       7.306   7.713  18.123  0.00  0.00    +0.000 C 
ATOM     23  C   UNL     1       8.110   6.541  18.711  0.00  0.00    +0.000 C 
ATOM     24  C   UNL     1       7.204   5.446  19.259  0.00  0.00    +0.000 C 
BRANCH  19  27
ATOM     25  C   UNL     1       4.377   3.269  18.087  0.00  0.00    +0.000 C 
ATOM     26  O   UNL     1       4.104   3.480  16.910  0.00  0.00    +0.000 OA
ATOM     27  N   UNL     1       5.369   3.933  18.770  0.00  0.00    +0.000 N 
ATOM     28  H   UNL     1       5.383   3.807  19.782  0.00  0.00    +0.000 HD
BRANCH  25  29
ATOM     29  C   UNL     1       3.594   2.278  18.932  0.00  0.00    +0.000 C 
BRANCH  29  30
ATOM     30  C   UNL     1       4.044   2.249  20.389  0.00  0.00    +0.000 C 
BRANCH  30  32
ATOM     31  C   UNL     1       1.696   2.535  20.568  0.00  0.00    +0.000 C 
ATOM     32  O   UNL     1       2.952   2.669  21.219  0.00  0.00    +0.000 OA
ENDBRANCH  30  32
ENDBRANCH  29  30
ENDBRANCH  25  29
ENDBRANCH  19  27
ENDBRANCH  18  22
ENDBRANCH   1  18
TORSDOF 8
ENDMDL
MODEL 9
REMARK VINA RESULT:      -6.7      4.144     10.865
REMARK  Name = 
REMARK  10 active torsions:
REMARK  status: ('A' for Active; 'I' for Inactive)
REMARK    1  A    between atoms: C_1  and  O_2
REMARK    2  A    between atoms: O_2  and  C_3
REMARK    3  A    between atoms: C_3  and  C_4
REMARK    4  A    between atoms: C_4  and  C_5
REMARK    5  A    between atoms: N_7  and  C_8
REMARK    6  A    between atoms: C_11  and  C_12
REMARK    7  A    between atoms: C_12  and  C_13
REMARK    8  A    between atoms: C_13  and  N_14
REMARK    9  A    between atoms: N_17  and  C_18
REMARK   10  A    between atoms: C_21  and  C_22
REMARK                            x       y       z     vdW  Elec       q    Type
REMARK                         _______ _______ _______ _____ _____    ______ ____
ROOT
ATOM      1  C   UNL     1       4.256   3.652  18.644  0.00  0.00    +0.000 C 
ENDROOT
BRANCH   1   2
ATOM      2  N   UNL     1       2.849   3.974  18.364  0.00  0.00    +0.000 NA
ATOM      3  C   UNL     1       1.999   4.073  19.575  0.00  0.00    +0.000 C 
ATOM      4  C   UNL     1       2.251   5.288  20.499  0.00  0.00    +0.000 C 
ATOM      5  N   UNL     1       2.400   6.537  19.746  0.00  0.00    +0.000 N 
ATOM      6  C   UNL     1       3.143   6.506  18.491  0.00  0.00    +0.000 C 
ATOM      7  C   UNL     1       2.751   5.270  17.650  0.00  0.00    +0.000 C 
BRANCH   5   8
ATOM      8  C   UNL     1       1.747   7.676  20.160  0.00  0.00    +0.000 A 
ATOM      9  N   UNL     1       1.229   7.710  21.424  0.00  0.00    +0.000 NA
ATOM     10  C   UNL     1       0.539   8.791  21.869  0.00  0.00    +0.000 A 
ATOM     11  C   UNL     1       0.306   9.949  21.153  0.00  0.00    +0.000 A 
ATOM     12  C   UNL     1      -0.444  11.117  21.699  0.00  0.00    +0.000 C 
ATOM     13  C   UNL     1       0.864   9.908  19.881  0.00  0.00    +0.000 A 
ATOM     14  O   UNL     1       0.798  10.920  18.967  0.00  0.00    +0.000 OA
ATOM     15  C   UNL     1       1.479  10.514  17.867  0.00  0.00    +0.000 A 
ATOM     16  C   UNL     1       1.981   9.249  18.057  0.00  0.00    +0.000 A 
ATOM     17  C   UNL     1       1.570   8.830  19.358  0.00  0.00    +0.000 A 
ENDBRANCH   5   8
ENDBRANCH   1   2
BRANCH   1  18
ATOM     18  C   UNL     1       5.203   3.732  17.439  0.00  0.00    +0.000 C 
BRANCH  18  22
ATOM     19  C   UNL     1       7.508   7.319  18.415  0.00  0.00    +0.000 C 
ATOM     20  C   UNL     1       7.409   6.926  16.939  0.00  0.00    +0.000 C 
ATOM     21  C   UNL     1       6.268   5.937  16.706  0.00  0.00    +0.000 C 
ATOM     22  C   UNL     1       6.402   4.686  17.590  0.00  0.00    +0.000 C 
ATOM     23  C   UNL     1       6.545   5.082  19.071  0.00  0.00    +0.000 C 
ATOM     24  C   UNL     1       7.680   6.075  19.288  0.00  0.00    +0.000 C 
BRANCH  19  27
ATOM     25  C   UNL     1       8.618   9.556  18.338  0.00  0.00    +0.000 C 
ATOM     26  O   UNL     1       7.659  10.139  17.844  0.00  0.00    +0.000 OA
ATOM     27  N   UNL     1       8.625   8.213  18.630  0.00  0.00    +0.000 N 
ATOM     28  H   UNL     1       9.530   7.806  18.865  0.00  0.00    +0.000 HD
BRANCH  25  29
ATOM     29  C   UNL     1       9.931  10.264  18.628  0.00  0.00    +0.000 C 
BRANCH  29  30
ATOM     30  C   UNL     1      10.038  11.626  17.949  0.00  0.00    +0.000 C 
BRANCH  30  32
ATOM     31  C   UNL     1      10.981  13.729  18.513  0.00  0.00    +0.000 C 
ATOM     32  O   UNL     1      11.174  12.321  18.484  0.00  0.00    +0.000 OA
ENDBRANCH  30  32
ENDBRANCH  29  30
ENDBRANCH  25  29
ENDBRANCH  19  27
ENDBRANCH  18  22
ENDBRANCH   1  18
TORSDOF 8
ENDMDL
