MODEL 1
REMARK VINA RESULT:      -6.4      0.000      0.000
REMARK  Name = 
REMARK  3 active torsions:
REMARK  status: ('A' for Active; 'I' for Inactive)
REMARK    1  A    between atoms: C_2  and  C_3
REMARK    2  A    between atoms: C_4  and  N_5
REMARK    3  A    between atoms: C_15  and  C_16
REMARK                            x       y       z     vdW  Elec       q    Type
REMARK                         _______ _______ _______ _____ _____    ______ ____
ROOT
ATOM      1  C   UNL     1      -1.907  14.384  23.394  0.00  0.00    +0.000 C 
ATOM      2  C   UNL     1      -2.446  14.785  24.562  0.00  0.00    +0.000 C 
ATOM      3  O   UNL     1      -3.742  14.399  24.917  0.00  0.00    +0.000 OA
ATOM      4  C   UNL     1      -4.520  13.691  24.014  0.00  0.00    +0.000 A 
ATOM      5  N   UNL     1      -5.794  13.422  24.411  0.00  0.00    +0.000 N 
ATOM      6  C   UNL     1      -6.688  12.717  23.657  0.00  0.00    +0.000 A 
ATOM      7  O   UNL     1      -7.827  12.484  24.044  0.00  0.00    +0.000 OA
ATOM      8  N   UNL     1      -6.231  12.305  22.436  0.00  0.00    +0.000 N 
ATOM      9  C   UNL     1      -5.019  12.631  21.903  0.00  0.00    +0.000 A 
ATOM     10  O   UNL     1      -4.741  12.420  20.727  0.00  0.00    +0.000 OA
ATOM     11  C   UNL     1      -4.069  13.285  22.824  0.00  0.00    +0.000 A 
ATOM     12  C   UNL     1      -2.661  13.527  22.389  0.00  0.00    +0.000 C 
ATOM     13  H   UNL     1      -6.113  13.741  25.318  0.00  0.00    +0.000 HD
ATOM     14  H   UNL     1      -6.900  11.851  21.831  0.00  0.00    +0.000 HD
ENDROOT
BRANCH  12  15
ATOM     15  C   UNL     1      -1.891  12.228  22.141  0.00  0.00    +0.000 A 
ATOM     16  C   UNL     1      -1.369  11.962  20.865  0.00  0.00    +0.000 A 
ATOM     17  C   UNL     1      -0.565  10.840  20.651  0.00  0.00    +0.000 A 
ATOM     18  C   UNL     1      -0.283   9.981  21.708  0.00  0.00    +0.000 A 
ATOM     19 CL   UNL     1       0.737   8.620  21.454  0.00  0.00    +0.000 Cl
ATOM     20  C   UNL     1      -0.813  10.217  22.974  0.00  0.00    +0.000 A 
ATOM     21  C   UNL     1      -1.620  11.335  23.190  0.00  0.00    +0.000 A 
ENDBRANCH  12  15
BRANCH   2  22
ATOM     22  N   UNL     1      -1.826  15.571  25.499  0.00  0.00    +0.000 N 
ATOM     23  H   UNL     1      -1.193  15.098  26.141  0.00  0.00    +0.000 HD
ATOM     24  H   UNL     1      -2.453  16.227  25.956  0.00  0.00    +0.000 HD
ENDBRANCH   2  22
BRANCH   1  26
ATOM     25  N   UNL     1       0.686  15.025  22.622  0.00  0.00    +0.000 NA
ATOM     26  C   UNL     1      -0.490  14.735  22.972  0.00  0.00    +0.000 C 
ENDBRANCH   1  26
TORSDOF 3
ENDMDL
MODEL 2
REMARK VINA RESULT:      -6.4      8.931     11.929
REMARK  Name = 
REMARK  3 active torsions:
REMARK  status: ('A' for Active; 'I' for Inactive)
REMARK    1  A    between atoms: C_2  and  C_3
REMARK    2  A    between atoms: C_4  and  N_5
REMARK    3  A    between atoms: C_15  and  C_16
REMARK                            x       y       z     vdW  Elec       q    Type
REMARK                         _______ _______ _______ _____ _____    ______ ____
ROOT
ATOM      1  C   UNL     1       2.932   7.293  18.864  0.00  0.00    +0.000 C 
ATOM      2  C   UNL     1       3.026   8.130  17.813  0.00  0.00    +0.000 C 
ATOM      3  O   UNL     1       3.931   7.872  16.778  0.00  0.00    +0.000 OA
ATOM      4  C   UNL     1       4.816   6.811  16.886  0.00  0.00    +0.000 A 
ATOM      5  N   UNL     1       5.713   6.679  15.871  0.00  0.00    +0.000 N 
ATOM      6  C   UNL     1       6.639   5.678  15.805  0.00  0.00    +0.000 A 
ATOM      7  O   UNL     1       7.430   5.581  14.875  0.00  0.00    +0.000 OA
ATOM      8  N   UNL     1       6.636   4.805  16.857  0.00  0.00    +0.000 N 
ATOM      9  C   UNL     1       5.863   4.927  17.975  0.00  0.00    +0.000 A 
ATOM     10  O   UNL     1       6.047   4.246  18.978  0.00  0.00    +0.000 OA
ATOM     11  C   UNL     1       4.807   5.956  17.913  0.00  0.00    +0.000 A 
ATOM     12  C   UNL     1       3.801   6.054  19.012  0.00  0.00    +0.000 C 
ATOM     13  H   UNL     1       5.700   7.341  15.103  0.00  0.00    +0.000 HD
ATOM     14  H   UNL     1       7.364   4.105  16.868  0.00  0.00    +0.000 HD
ENDROOT
BRANCH  12  15
ATOM     15  C   UNL     1       2.913   4.811  19.109  0.00  0.00    +0.000 A 
ATOM     16  C   UNL     1       2.136   4.423  18.006  0.00  0.00    +0.000 A 
ATOM     17  C   UNL     1       1.413   3.228  18.037  0.00  0.00    +0.000 A 
ATOM     18  C   UNL     1       1.460   2.422  19.170  0.00  0.00    +0.000 A 
ATOM     19 CL   UNL     1       0.599   0.933  19.195  0.00  0.00    +0.000 Cl
ATOM     20  C   UNL     1       2.206   2.805  20.282  0.00  0.00    +0.000 A 
ATOM     21  C   UNL     1       2.927   4.000  20.256  0.00  0.00    +0.000 A 
ENDBRANCH  12  15
BRANCH   2  22
ATOM     22  N   UNL     1       2.285   9.269  17.630  0.00  0.00    +0.000 N 
ATOM     23  H   UNL     1       2.729  10.019  17.104  0.00  0.00    +0.000 HD
ATOM     24  H   UNL     1       1.817   9.587  18.475  0.00  0.00    +0.000 HD
ENDBRANCH   2  22
BRANCH   1  26
ATOM     25  N   UNL     1       1.114   7.661  20.936  0.00  0.00    +0.000 NA
ATOM     26  C   UNL     1       1.938   7.494  19.996  0.00  0.00    +0.000 C 
ENDBRANCH   1  26
TORSDOF 3
ENDMDL
MODEL 3
REMARK VINA RESULT:      -6.3     11.732     12.797
REMARK  Name = 
REMARK  3 active torsions:
REMARK  status: ('A' for Active; 'I' for Inactive)
REMARK    1  A    between atoms: C_2  and  C_3
REMARK    2  A    between atoms: C_4  and  N_5
REMARK    3  A    between atoms: C_15  and  C_16
REMARK                            x       y       z     vdW  Elec       q    Type
REMARK                         _______ _______ _______ _____ _____    ______ ____
ROOT
ATOM      1  C   UNL     1       6.409   5.878  18.354  0.00  0.00    +0.000 C 
ATOM      2  C   UNL     1       6.793   5.302  19.509  0.00  0.00    +0.000 C 
ATOM      3  O   UNL     1       5.960   4.384  20.157  0.00  0.00    +0.000 OA
ATOM      4  C   UNL     1       4.685   4.149  19.669  0.00  0.00    +0.000 A 
ATOM      5  N   UNL     1       3.915   3.300  20.403  0.00  0.00    +0.000 N 
ATOM      6  C   UNL     1       2.644   2.939  20.056  0.00  0.00    +0.000 A 
ATOM      7  O   UNL     1       1.977   2.167  20.734  0.00  0.00    +0.000 OA
ATOM      8  N   UNL     1       2.162   3.513  18.913  0.00  0.00    +0.000 N 
ATOM      9  C   UNL     1       2.809   4.466  18.181  0.00  0.00    +0.000 A 
ATOM     10  O   UNL     1       2.253   5.102  17.293  0.00  0.00    +0.000 OA
ATOM     11  C   UNL     1       4.219   4.706  18.547  0.00  0.00    +0.000 A 
ATOM     12  C   UNL     1       5.063   5.602  17.702  0.00  0.00    +0.000 C 
ATOM     13  H   UNL     1       4.291   2.889  21.250  0.00  0.00    +0.000 HD
ATOM     14  H   UNL     1       1.198   3.323  18.680  0.00  0.00    +0.000 HD
ENDROOT
BRANCH  12  15
ATOM     15  C   UNL     1       5.279   5.047  16.292  0.00  0.00    +0.000 A 
ATOM     16  C   UNL     1       5.218   5.912  15.188  0.00  0.00    +0.000 A 
ATOM     17  C   UNL     1       5.529   5.446  13.908  0.00  0.00    +0.000 A 
ATOM     18  C   UNL     1       5.896   4.116  13.728  0.00  0.00    +0.000 A 
ATOM     19 CL   UNL     1       6.313   3.550  12.158  0.00  0.00    +0.000 Cl
ATOM     20  C   UNL     1       5.936   3.239  14.809  0.00  0.00    +0.000 A 
ATOM     21  C   UNL     1       5.623   3.701  16.089  0.00  0.00    +0.000 A 
ENDBRANCH  12  15
BRANCH   2  22
ATOM     22  N   UNL     1       7.982   5.523  20.154  0.00  0.00    +0.000 N 
ATOM     23  H   UNL     1       8.795   5.690  19.564  0.00  0.00    +0.000 HD
ATOM     24  H   UNL     1       8.159   4.869  20.913  0.00  0.00    +0.000 HD
ENDBRANCH   2  22
BRANCH   1  26
ATOM     25  N   UNL     1       8.014   7.654  16.939  0.00  0.00    +0.000 NA
ATOM     26  C   UNL     1       7.286   6.849  17.581  0.00  0.00    +0.000 C 
ENDBRANCH   1  26
TORSDOF 3
ENDMDL
MODEL 4
REMARK VINA RESULT:      -6.3      8.578     10.823
REMARK  Name = 
REMARK  3 active torsions:
REMARK  status: ('A' for Active; 'I' for Inactive)
REMARK    1  A    between atoms: C_2  and  C_3
REMARK    2  A    between atoms: C_4  and  N_5
REMARK    3  A    between atoms: C_15  and  C_16
REMARK                            x       y       z     vdW  Elec       q    Type
REMARK                         _______ _______ _______ _____ _____    ______ ____
ROOT
ATOM      1  C   UNL     1       2.187   6.954  19.070  0.00  0.00    +0.000 C 
ATOM      2  C   UNL     1       1.907   7.186  20.367  0.00  0.00    +0.000 C 
ATOM      3  O   UNL     1       1.794   6.125  21.271  0.00  0.00    +0.000 OA
ATOM      4  C   UNL     1       1.860   4.820  20.811  0.00  0.00    +0.000 A 
ATOM      5  N   UNL     1       1.664   3.850  21.745  0.00  0.00    +0.000 N 
ATOM      6  C   UNL     1       1.718   2.513  21.471  0.00  0.00    +0.000 A 
ATOM      7  O   UNL     1       1.544   1.662  22.335  0.00  0.00    +0.000 OA
ATOM      8  N   UNL     1       1.959   2.191  20.165  0.00  0.00    +0.000 N 
ATOM      9  C   UNL     1       2.045   3.087  19.139  0.00  0.00    +0.000 A 
ATOM     10  O   UNL     1       2.048   2.740  17.963  0.00  0.00    +0.000 OA
ATOM     11  C   UNL     1       2.103   4.508  19.534  0.00  0.00    +0.000 A 
ATOM     12  C   UNL     1       2.368   5.554  18.503  0.00  0.00    +0.000 C 
ATOM     13  H   UNL     1       1.482   4.112  22.707  0.00  0.00    +0.000 HD
ATOM     14  H   UNL     1       1.925   1.210  19.925  0.00  0.00    +0.000 HD
ENDROOT
BRANCH  12  15
ATOM     15  C   UNL     1       3.760   5.427  17.881  0.00  0.00    +0.000 A 
ATOM     16  C   UNL     1       4.899   5.595  18.685  0.00  0.00    +0.000 A 
ATOM     17  C   UNL     1       6.174   5.366  18.160  0.00  0.00    +0.000 A 
ATOM     18  C   UNL     1       6.314   4.974  16.832  0.00  0.00    +0.000 A 
ATOM     19 CL   UNL     1       7.880   4.657  16.196  0.00  0.00    +0.000 Cl
ATOM     20  C   UNL     1       5.196   4.828  16.015  0.00  0.00    +0.000 A 
ATOM     21  C   UNL     1       3.921   5.059  16.535  0.00  0.00    +0.000 A 
ENDBRANCH  12  15
BRANCH   2  22
ATOM     22  N   UNL     1       1.716   8.420  20.934  0.00  0.00    +0.000 N 
ATOM     23  H   UNL     1       2.306   9.174  20.588  0.00  0.00    +0.000 HD
ATOM     24  H   UNL     1       1.643   8.393  21.947  0.00  0.00    +0.000 HD
ENDBRANCH   2  22
BRANCH   1  26
ATOM     25  N   UNL     1       2.513   8.988  17.202  0.00  0.00    +0.000 NA
ATOM     26  C   UNL     1       2.365   8.066  18.049  0.00  0.00    +0.000 C 
ENDBRANCH   1  26
TORSDOF 3
ENDMDL
MODEL 5
REMARK VINA RESULT:      -6.3      0.264      1.065
REMARK  Name = 
REMARK  3 active torsions:
REMARK  status: ('A' for Active; 'I' for Inactive)
REMARK    1  A    between atoms: C_2  and  C_3
REMARK    2  A    between atoms: C_4  and  N_5
REMARK    3  A    between atoms: C_15  and  C_16
REMARK                            x       y       z     vdW  Elec       q    Type
REMARK                         _______ _______ _______ _____ _____    ______ ____
ROOT
ATOM      1  C   UNL     1      -1.684  14.525  23.432  0.00  0.00    +0.000 C 
ATOM      2  C   UNL     1      -2.229  14.902  24.605  0.00  0.00    +0.000 C 
ATOM      3  O   UNL     1      -3.512  14.474  24.963  0.00  0.00    +0.000 OA
ATOM      4  C   UNL     1      -4.273  13.751  24.059  0.00  0.00    +0.000 A 
ATOM      5  N   UNL     1      -5.536  13.441  24.459  0.00  0.00    +0.000 N 
ATOM      6  C   UNL     1      -6.412  12.715  23.704  0.00  0.00    +0.000 A 
ATOM      7  O   UNL     1      -7.542  12.446  24.094  0.00  0.00    +0.000 OA
ATOM      8  N   UNL     1      -5.949  12.326  22.478  0.00  0.00    +0.000 N 
ATOM      9  C   UNL     1      -4.749  12.691  21.941  0.00  0.00    +0.000 A 
ATOM     10  O   UNL     1      -4.471  12.498  20.763  0.00  0.00    +0.000 OA
ATOM     11  C   UNL     1      -3.815  13.366  22.863  0.00  0.00    +0.000 A 
ATOM     12  C   UNL     1      -2.417  13.653  22.424  0.00  0.00    +0.000 C 
ATOM     13  H   UNL     1      -5.860  13.743  25.370  0.00  0.00    +0.000 HD
ATOM     14  H   UNL     1      -6.607  11.856  21.872  0.00  0.00    +0.000 HD
ENDROOT
BRANCH  12  15
ATOM     15  C   UNL     1      -1.610  12.380  22.163  0.00  0.00    +0.000 A 
ATOM     16  C   UNL     1      -1.448  11.435  23.189  0.00  0.00    +0.000 A 
ATOM     17  C   UNL     1      -0.816  10.216  22.934  0.00  0.00    +0.000 A 
ATOM     18  C   UNL     1      -0.341   9.939  21.655  0.00  0.00    +0.000 A 
ATOM     19 CL   UNL     1       0.405   8.423  21.331  0.00  0.00    +0.000 Cl
ATOM     20  C   UNL     1      -0.471  10.875  20.633  0.00  0.00    +0.000 A 
ATOM     21  C   UNL     1      -1.099  12.096  20.886  0.00  0.00    +0.000 A 
ENDBRANCH  12  15
BRANCH   2  22
ATOM     22  N   UNL     1      -1.628  15.698  25.545  0.00  0.00    +0.000 N 
ATOM     23  H   UNL     1      -0.867  16.290  25.219  0.00  0.00    +0.000 HD
ATOM     24  H   UNL     1      -1.423  15.214  26.415  0.00  0.00    +0.000 HD
ENDBRANCH   2  22
BRANCH   1  26
ATOM     25  N   UNL     1       0.886  15.248  22.653  0.00  0.00    +0.000 NA
ATOM     26  C   UNL     1      -0.280  14.920  23.007  0.00  0.00    +0.000 C 
ENDBRANCH   1  26
TORSDOF 3
ENDMDL
MODEL 6
REMARK VINA RESULT:      -6.2      9.348     12.199
REMARK  Name = 
REMARK  3 active torsions:
REMARK  status: ('A' for Active; 'I' for Inactive)
REMARK    1  A    between atoms: C_2  and  C_3
REMARK    2  A    between atoms: C_4  and  N_5
REMARK    3  A    between atoms: C_15  and  C_16
REMARK                            x       y       z     vdW  Elec       q    Type
REMARK                         _______ _______ _______ _____ _____    ______ ____
ROOT
ATOM      1  C   UNL     1       3.063   4.113  18.491  0.00  0.00    +0.000 C 
ATOM      2  C   UNL     1       3.784   3.295  19.281  0.00  0.00    +0.000 C 
ATOM      3  O   UNL     1       5.100   3.620  19.629  0.00  0.00    +0.000 OA
ATOM      4  C   UNL     1       5.704   4.734  19.069  0.00  0.00    +0.000 A 
ATOM      5  N   UNL     1       7.008   4.934  19.403  0.00  0.00    +0.000 N 
ATOM      6  C   UNL     1       7.748   5.992  18.961  0.00  0.00    +0.000 A 
ATOM      7  O   UNL     1       8.919   6.150  19.284  0.00  0.00    +0.000 OA
ATOM      8  N   UNL     1       7.100   6.852  18.119  0.00  0.00    +0.000 N 
ATOM      9  C   UNL     1       5.839   6.670  17.632  0.00  0.00    +0.000 A 
ATOM     10  O   UNL     1       5.383   7.350  16.720  0.00  0.00    +0.000 OA
ATOM     11  C   UNL     1       5.065   5.577  18.252  0.00  0.00    +0.000 A 
ATOM     12  C   UNL     1       3.622   5.403  17.911  0.00  0.00    +0.000 C 
ATOM     13  H   UNL     1       7.470   4.281  20.025  0.00  0.00    +0.000 HD
ATOM     14  H   UNL     1       7.651   7.598  17.718  0.00  0.00    +0.000 HD
ENDROOT
BRANCH  12  15
ATOM     15  C   UNL     1       2.764   6.586  18.367  0.00  0.00    +0.000 A 
ATOM     16  C   UNL     1       2.466   6.744  19.730  0.00  0.00    +0.000 A 
ATOM     17  C   UNL     1       1.785   7.879  20.177  0.00  0.00    +0.000 A 
ATOM     18  C   UNL     1       1.397   8.856  19.264  0.00  0.00    +0.000 A 
ATOM     19 CL   UNL     1       0.591  10.271  19.817  0.00  0.00    +0.000 Cl
ATOM     20  C   UNL     1       1.663   8.701  17.905  0.00  0.00    +0.000 A 
ATOM     21  C   UNL     1       2.340   7.566  17.456  0.00  0.00    +0.000 A 
ENDBRANCH  12  15
BRANCH   2  22
ATOM     22  N   UNL     1       3.345   2.113  19.819  0.00  0.00    +0.000 N 
ATOM     23  H   UNL     1       2.535   1.685  19.374  0.00  0.00    +0.000 HD
ATOM     24  H   UNL     1       3.292   2.124  20.834  0.00  0.00    +0.000 HD
ENDBRANCH   2  22
BRANCH   1  26
ATOM     25  N   UNL     1       0.417   3.608  17.800  0.00  0.00    +0.000 NA
ATOM     26  C   UNL     1       1.617   3.837  18.113  0.00  0.00    +0.000 C 
ENDBRANCH   1  26
TORSDOF 3
ENDMDL
MODEL 7
REMARK VINA RESULT:      -6.1     11.823     12.853
REMARK  Name = 
REMARK  3 active torsions:
REMARK  status: ('A' for Active; 'I' for Inactive)
REMARK    1  A    between atoms: C_2  and  C_3
REMARK    2  A    between atoms: C_4  and  N_5
REMARK    3  A    between atoms: C_15  and  C_16
REMARK                            x       y       z     vdW  Elec       q    Type
REMARK                         _______ _______ _______ _____ _____    ______ ____
ROOT
ATOM      1  C   UNL     1       6.490   5.953  18.368  0.00  0.00    +0.000 C 
ATOM      2  C   UNL     1       6.849   5.366  19.526  0.00  0.00    +0.000 C 
ATOM      3  O   UNL     1       6.014   4.423  20.133  0.00  0.00    +0.000 OA
ATOM      4  C   UNL     1       4.760   4.171  19.601  0.00  0.00    +0.000 A 
ATOM      5  N   UNL     1       3.984   3.296  20.298  0.00  0.00    +0.000 N 
ATOM      6  C   UNL     1       2.732   2.917  19.905  0.00  0.00    +0.000 A 
ATOM      7  O   UNL     1       2.059   2.122  20.550  0.00  0.00    +0.000 OA
ATOM      8  N   UNL     1       2.275   3.500  18.756  0.00  0.00    +0.000 N 
ATOM      9  C   UNL     1       2.926   4.476  18.060  0.00  0.00    +0.000 A 
ATOM     10  O   UNL     1       2.385   5.115  17.164  0.00  0.00    +0.000 OA
ATOM     11  C   UNL     1       4.318   4.737  18.474  0.00  0.00    +0.000 A 
ATOM     12  C   UNL     1       5.170   5.662  17.670  0.00  0.00    +0.000 C 
ATOM     13  H   UNL     1       4.341   2.879  21.149  0.00  0.00    +0.000 HD
ATOM     14  H   UNL     1       1.322   3.295  18.491  0.00  0.00    +0.000 HD
ENDROOT
BRANCH  12  15
ATOM     15  C   UNL     1       5.441   5.134  16.259  0.00  0.00    +0.000 A 
ATOM     16  C   UNL     1       5.853   3.804  16.081  0.00  0.00    +0.000 A 
ATOM     17  C   UNL     1       5.990   3.273  14.796  0.00  0.00    +0.000 A 
ATOM     18  C   UNL     1       5.720   4.070  13.687  0.00  0.00    +0.000 A 
ATOM     19 CL   UNL     1       5.853   3.406  12.106  0.00  0.00    +0.000 Cl
ATOM     20  C   UNL     1       5.334   5.398  13.847  0.00  0.00    +0.000 A 
ATOM     21  C   UNL     1       5.200   5.933  15.129  0.00  0.00    +0.000 A 
ENDBRANCH  12  15
BRANCH   2  22
ATOM     22  N   UNL     1       8.013   5.599  20.211  0.00  0.00    +0.000 N 
ATOM     23  H   UNL     1       8.607   4.791  20.384  0.00  0.00    +0.000 HD
ATOM     24  H   UNL     1       7.891   6.195  21.026  0.00  0.00    +0.000 HD
ENDBRANCH   2  22
BRANCH   1  26
ATOM     25  N   UNL     1       8.104   7.782  17.031  0.00  0.00    +0.000 NA
ATOM     26  C   UNL     1       7.372   6.953  17.637  0.00  0.00    +0.000 C 
ENDBRANCH   1  26
TORSDOF 3
ENDMDL
MODEL 8
REMARK VINA RESULT:      -6.1      9.430     12.243
REMARK  Name = 
REMARK  3 active torsions:
REMARK  status: ('A' for Active; 'I' for Inactive)
REMARK    1  A    between atoms: C_2  and  C_3
REMARK    2  A    between atoms: C_4  and  N_5
REMARK    3  A    between atoms: C_15  and  C_16
REMARK                            x       y       z     vdW  Elec       q    Type
REMARK                         _______ _______ _______ _____ _____    ______ ____
ROOT
ATOM      1  C   UNL     1       3.051   4.332  18.133  0.00  0.00    +0.000 C 
ATOM      2  C   UNL     1       3.573   3.350  18.892  0.00  0.00    +0.000 C 
ATOM      3  O   UNL     1       4.868   3.461  19.407  0.00  0.00    +0.000 OA
ATOM      4  C   UNL     1       5.663   4.537  19.044  0.00  0.00    +0.000 A 
ATOM      5  N   UNL     1       6.934   4.527  19.530  0.00  0.00    +0.000 N 
ATOM      6  C   UNL     1       7.843   5.518  19.290  0.00  0.00    +0.000 A 
ATOM      7  O   UNL     1       8.979   5.485  19.747  0.00  0.00    +0.000 OA
ATOM      8  N   UNL     1       7.404   6.537  18.492  0.00  0.00    +0.000 N 
ATOM      9  C   UNL     1       6.195   6.574  17.862  0.00  0.00    +0.000 A 
ATOM     10  O   UNL     1       5.933   7.398  16.992  0.00  0.00    +0.000 OA
ATOM     11  C   UNL     1       5.229   5.535  18.269  0.00  0.00    +0.000 A 
ATOM     12  C   UNL     1       3.824   5.589  17.766  0.00  0.00    +0.000 C 
ATOM     13  H   UNL     1       7.240   3.759  20.116  0.00  0.00    +0.000 HD
ATOM     14  H   UNL     1       8.083   7.240  18.239  0.00  0.00    +0.000 HD
ENDROOT
BRANCH  12  15
ATOM     15  C   UNL     1       3.068   6.822  18.266  0.00  0.00    +0.000 A 
ATOM     16  C   UNL     1       2.724   7.841  17.363  0.00  0.00    +0.000 A 
ATOM     17  C   UNL     1       1.933   8.915  17.778  0.00  0.00    +0.000 A 
ATOM     18  C   UNL     1       1.488   8.976  19.095  0.00  0.00    +0.000 A 
ATOM     19 CL   UNL     1       0.483  10.279  19.598  0.00  0.00    +0.000 Cl
ATOM     20  C   UNL     1       1.841   7.987  20.009  0.00  0.00    +0.000 A 
ATOM     21  C   UNL     1       2.634   6.914  19.598  0.00  0.00    +0.000 A 
ENDBRANCH  12  15
BRANCH   2  22
ATOM     22  N   UNL     1       2.935   2.188  19.242  0.00  0.00    +0.000 N 
ATOM     23  H   UNL     1       1.976   2.278  19.571  0.00  0.00    +0.000 HD
ATOM     24  H   UNL     1       3.505   1.570  19.814  0.00  0.00    +0.000 HD
ENDBRANCH   2  22
BRANCH   1  26
ATOM     25  N   UNL     1       0.461   4.254  17.122  0.00  0.00    +0.000 NA
ATOM     26  C   UNL     1       1.636   4.290  17.580  0.00  0.00    +0.000 C 
ENDBRANCH   1  26
TORSDOF 3
ENDMDL
MODEL 9
REMARK VINA RESULT:      -6.1      8.644     10.859
REMARK  Name = 
REMARK  3 active torsions:
REMARK  status: ('A' for Active; 'I' for Inactive)
REMARK    1  A    between atoms: C_2  and  C_3
REMARK    2  A    between atoms: C_4  and  N_5
REMARK    3  A    between atoms: C_15  and  C_16
REMARK                            x       y       z     vdW  Elec       q    Type
REMARK                         _______ _______ _______ _____ _____    ______ ____
ROOT
ATOM      1  C   UNL     1       2.241   6.885  18.980  0.00  0.00    +0.000 C 
ATOM      2  C   UNL     1       2.021   7.134  20.286  0.00  0.00    +0.000 C 
ATOM      3  O   UNL     1       1.901   6.082  21.200  0.00  0.00    +0.000 OA
ATOM      4  C   UNL     1       1.898   4.773  20.745  0.00  0.00    +0.000 A 
ATOM      5  N   UNL     1       1.700   3.815  21.692  0.00  0.00    +0.000 N 
ATOM      6  C   UNL     1       1.690   2.476  21.423  0.00  0.00    +0.000 A 
ATOM      7  O   UNL     1       1.517   1.637  22.298  0.00  0.00    +0.000 OA
ATOM      8  N   UNL     1       1.867   2.139  20.110  0.00  0.00    +0.000 N 
ATOM      9  C   UNL     1       1.949   3.026  19.077  0.00  0.00    +0.000 A 
ATOM     10  O   UNL     1       1.892   2.675  17.904  0.00  0.00    +0.000 OA
ATOM     11  C   UNL     1       2.078   4.446  19.461  0.00  0.00    +0.000 A 
ATOM     12  C   UNL     1       2.343   5.477  18.415  0.00  0.00    +0.000 C 
ATOM     13  H   UNL     1       1.567   4.088  22.658  0.00  0.00    +0.000 HD
ATOM     14  H   UNL     1       1.785   1.160  19.878  0.00  0.00    +0.000 HD
ENDROOT
BRANCH  12  15
ATOM     15  C   UNL     1       3.705   5.292  17.740  0.00  0.00    +0.000 A 
ATOM     16  C   UNL     1       3.788   4.602  16.520  0.00  0.00    +0.000 A 
ATOM     17  C   UNL     1       5.002   4.526  15.833  0.00  0.00    +0.000 A 
ATOM     18  C   UNL     1       6.135   5.135  16.365  0.00  0.00    +0.000 A 
ATOM     19 CL   UNL     1       7.622   5.074  15.502  0.00  0.00    +0.000 Cl
ATOM     20  C   UNL     1       6.075   5.802  17.586  0.00  0.00    +0.000 A 
ATOM     21  C   UNL     1       4.864   5.876  18.276  0.00  0.00    +0.000 A 
ENDBRANCH  12  15
BRANCH   2  22
ATOM     22  N   UNL     1       1.901   8.376  20.852  0.00  0.00    +0.000 N 
ATOM     23  H   UNL     1       1.960   9.171  20.219  0.00  0.00    +0.000 HD
ATOM     24  H   UNL     1       2.450   8.490  21.700  0.00  0.00    +0.000 HD
ENDBRANCH   2  22
BRANCH   1  26
ATOM     25  N   UNL     1       2.573   8.896  17.089  0.00  0.00    +0.000 NA
ATOM     26  C   UNL     1       2.423   7.984  17.947  0.00  0.00    +0.000 C 
ENDBRANCH   1  26
TORSDOF 3
ENDMDL
