MODEL 1
REMARK VINA RESULT:      -7.1      0.000      0.000
REMARK  Name = 
REMARK  8 active torsions:
REMARK  status: ('A' for Active; 'I' for Inactive)
REMARK    1  A    between atoms: C_2  and  O_3
REMARK    2  A    between atoms: C_2  and  C_4
REMARK    3  A    between atoms: C_4  and  C_5
REMARK    4  A    between atoms: C_5  and  C_6
REMARK    5  A    between atoms: C_6  and  C_7
REMARK    6  A    between atoms: C_7  and  N_8
REMARK    7  A    between atoms: N_8  and  S_9
REMARK    8  A    between atoms: S_9  and  C_12
REMARK                            x       y       z     vdW  Elec       q    Type
REMARK                         _______ _______ _______ _____ _____    ______ ____
ROOT
ATOM      1  S   UNL     1       5.623   4.573  17.612  0.00  0.00    +0.000 S 
ATOM      2  O   UNL     1       6.545   4.376  18.708  0.00  0.00    +0.000 OA
ATOM      3  O   UNL     1       5.361   5.896  17.087  0.00  0.00    +0.000 OA
ENDROOT
BRANCH   1   4
ATOM      4  C   UNL     1       4.069   3.816  18.058  0.00  0.00    +0.000 A 
ATOM      5  C   UNL     1       3.758   2.595  17.432  0.00  0.00    +0.000 A 
ATOM      6  C   UNL     1       2.540   1.975  17.681  0.00  0.00    +0.000 A 
ATOM      7  C   UNL     1       1.635   2.573  18.549  0.00  0.00    +0.000 A 
ATOM      8  F   UNL     1       0.462   1.955  18.762  0.00  0.00    +0.000 F 
ATOM      9  C   UNL     1       1.915   3.792  19.190  0.00  0.00    +0.000 A 
ATOM     10  C   UNL     1       0.966   4.367  20.054  0.00  0.00    +0.000 A 
ATOM     11  C   UNL     1       1.217   5.573  20.702  0.00  0.00    +0.000 A 
ATOM     12  C   UNL     1       2.424   6.221  20.496  0.00  0.00    +0.000 A 
ATOM     13  C   UNL     1       3.377   5.666  19.638  0.00  0.00    +0.000 A 
ATOM     14  C   UNL     1       3.156   4.443  18.956  0.00  0.00    +0.000 A 
ENDBRANCH   1   4
BRANCH   1  15
ATOM     15  N   UNL     1       6.173   3.622  16.332  0.00  0.00    +0.000 NA
ATOM     16  H   UNL     1       6.670   2.795  16.669  0.00  0.00    +0.000 HD
BRANCH  15  17
ATOM     17  C   UNL     1       6.716   4.311  15.157  0.00  0.00    +0.000 C 
BRANCH  17  18
ATOM     18  C   UNL     1       5.603   4.638  14.161  0.00  0.00    +0.000 C 
BRANCH  18  19
ATOM     19  C   UNL     1       5.445   3.584  13.059  0.00  0.00    +0.000 C 
BRANCH  19  20
ATOM     20  C   UNL     1       6.651   3.535  12.115  0.00  0.00    +0.000 C 
BRANCH  20  22
ATOM     21  O   UNL     1       7.824   1.828  10.852  0.00  0.00    +0.000 OA
ATOM     22  C   UNL     1       6.824   2.187  11.451  0.00  0.00    +0.000 C 
BRANCH  22  23
ATOM     23  O   UNL     1       5.749   1.381  11.610  0.00  0.00    +0.000 OA
ATOM     24  H   UNL     1       5.503   0.873  10.815  0.00  0.00    +0.000 HD
ENDBRANCH  22  23
ENDBRANCH  20  22
ENDBRANCH  19  20
ENDBRANCH  18  19
ENDBRANCH  17  18
ENDBRANCH  15  17
ENDBRANCH   1  15
TORSDOF 8
ENDMDL
MODEL 2
REMARK VINA RESULT:      -7.0      3.762      6.608
REMARK  Name = 
REMARK  8 active torsions:
REMARK  status: ('A' for Active; 'I' for Inactive)
REMARK    1  A    between atoms: C_2  and  O_3
REMARK    2  A    between atoms: C_2  and  C_4
REMARK    3  A    between atoms: C_4  and  C_5
REMARK    4  A    between atoms: C_5  and  C_6
REMARK    5  A    between atoms: C_6  and  C_7
REMARK    6  A    between atoms: C_7  and  N_8
REMARK    7  A    between atoms: N_8  and  S_9
REMARK    8  A    between atoms: S_9  and  C_12
REMARK                            x       y       z     vdW  Elec       q    Type
REMARK                         _______ _______ _______ _____ _____    ______ ____
ROOT
ATOM      1  S   UNL     1       3.111   6.383  18.215  0.00  0.00    +0.000 S 
ATOM      2  O   UNL     1       2.168   5.370  17.799  0.00  0.00    +0.000 OA
ATOM      3  O   UNL     1       3.137   7.683  17.579  0.00  0.00    +0.000 OA
ENDROOT
BRANCH   1   4
ATOM      4  C   UNL     1       4.749   5.676  18.139  0.00  0.00    +0.000 A 
ATOM      5  C   UNL     1       5.477   5.637  19.342  0.00  0.00    +0.000 A 
ATOM      6  C   UNL     1       6.781   5.157  19.351  0.00  0.00    +0.000 A 
ATOM      7  C   UNL     1       7.355   4.721  18.164  0.00  0.00    +0.000 A 
ATOM      8  F   UNL     1       8.620   4.271  18.203  0.00  0.00    +0.000 F 
ATOM      9  C   UNL     1       6.655   4.746  16.947  0.00  0.00    +0.000 A 
ATOM     10  C   UNL     1       7.279   4.302  15.766  0.00  0.00    +0.000 A 
ATOM     11  C   UNL     1       6.609   4.316  14.546  0.00  0.00    +0.000 A 
ATOM     12  C   UNL     1       5.301   4.774  14.490  0.00  0.00    +0.000 A 
ATOM     13  C   UNL     1       4.667   5.221  15.652  0.00  0.00    +0.000 A 
ATOM     14  C   UNL     1       5.318   5.227  16.911  0.00  0.00    +0.000 A 
ENDBRANCH   1   4
BRANCH   1  15
ATOM     15  N   UNL     1       2.865   6.634  19.864  0.00  0.00    +0.000 NA
ATOM     16  H   UNL     1       3.752   6.692  20.368  0.00  0.00    +0.000 HD
BRANCH  15  17
ATOM     17  C   UNL     1       1.763   5.911  20.506  0.00  0.00    +0.000 C 
BRANCH  17  18
ATOM     18  C   UNL     1       2.211   4.514  20.935  0.00  0.00    +0.000 C 
BRANCH  18  19
ATOM     19  C   UNL     1       1.195   3.418  20.589  0.00  0.00    +0.000 C 
BRANCH  19  20
ATOM     20  C   UNL     1       1.862   2.143  20.062  0.00  0.00    +0.000 C 
BRANCH  20  22
ATOM     21  O   UNL     1       4.274   2.389  19.998  0.00  0.00    +0.000 OA
ATOM     22  C   UNL     1       3.203   2.405  19.414  0.00  0.00    +0.000 C 
BRANCH  22  23
ATOM     23  O   UNL     1       3.107   2.639  18.086  0.00  0.00    +0.000 OA
ATOM     24  H   UNL     1       3.963   2.766  17.635  0.00  0.00    +0.000 HD
ENDBRANCH  22  23
ENDBRANCH  20  22
ENDBRANCH  19  20
ENDBRANCH  18  19
ENDBRANCH  17  18
ENDBRANCH  15  17
ENDBRANCH   1  15
TORSDOF 8
ENDMDL
MODEL 3
REMARK VINA RESULT:      -7.0      3.586      7.238
REMARK  Name = 
REMARK  8 active torsions:
REMARK  status: ('A' for Active; 'I' for Inactive)
REMARK    1  A    between atoms: C_2  and  O_3
REMARK    2  A    between atoms: C_2  and  C_4
REMARK    3  A    between atoms: C_4  and  C_5
REMARK    4  A    between atoms: C_5  and  C_6
REMARK    5  A    between atoms: C_6  and  C_7
REMARK    6  A    between atoms: C_7  and  N_8
REMARK    7  A    between atoms: N_8  and  S_9
REMARK    8  A    between atoms: S_9  and  C_12
REMARK                            x       y       z     vdW  Elec       q    Type
REMARK                         _______ _______ _______ _____ _____    ______ ____
ROOT
ATOM      1  S   UNL     1       3.516   2.857  18.047  0.00  0.00    +0.000 S 
ATOM      2  O   UNL     1       3.910   1.574  17.512  0.00  0.00    +0.000 OA
ATOM      3  O   UNL     1       2.374   3.567  17.513  0.00  0.00    +0.000 OA
ENDROOT
BRANCH   1   4
ATOM      4  C   UNL     1       4.938   3.936  17.992  0.00  0.00    +0.000 A 
ATOM      5  C   UNL     1       5.325   4.534  19.205  0.00  0.00    +0.000 A 
ATOM      6  C   UNL     1       6.384   5.432  19.231  0.00  0.00    +0.000 A 
ATOM      7  C   UNL     1       7.051   5.736  18.052  0.00  0.00    +0.000 A 
ATOM      8  F   UNL     1       8.065   6.615  18.107  0.00  0.00    +0.000 F 
ATOM      9  C   UNL     1       6.690   5.156  16.824  0.00  0.00    +0.000 A 
ATOM     10  C   UNL     1       7.387   5.498  15.651  0.00  0.00    +0.000 A 
ATOM     11  C   UNL     1       7.050   4.939  14.422  0.00  0.00    +0.000 A 
ATOM     12  C   UNL     1       6.010   4.027  14.348  0.00  0.00    +0.000 A 
ATOM     13  C   UNL     1       5.304   3.678  15.502  0.00  0.00    +0.000 A 
ATOM     14  C   UNL     1       5.614   4.229  16.771  0.00  0.00    +0.000 A 
ENDBRANCH   1   4
BRANCH   1  15
ATOM     15  N   UNL     1       3.249   2.640  19.697  0.00  0.00    +0.000 NA
ATOM     16  H   UNL     1       4.051   2.197  20.150  0.00  0.00    +0.000 HD
BRANCH  15  17
ATOM     17  C   UNL     1       1.910   2.216  20.120  0.00  0.00    +0.000 C 
BRANCH  17  18
ATOM     18  C   UNL     1       1.288   3.251  21.057  0.00  0.00    +0.000 C 
BRANCH  18  19
ATOM     19  C   UNL     1       2.096   4.551  21.149  0.00  0.00    +0.000 C 
BRANCH  19  20
ATOM     20  C   UNL     1       1.278   5.782  20.744  0.00  0.00    +0.000 C 
BRANCH  20  22
ATOM     21  O   UNL     1       2.672   6.640  18.954  0.00  0.00    +0.000 OA
ATOM     22  C   UNL     1       2.102   6.821  20.017  0.00  0.00    +0.000 C 
BRANCH  22  23
ATOM     23  O   UNL     1       2.128   8.012  20.656  0.00  0.00    +0.000 OA
ATOM     24  H   UNL     1       1.529   8.073  21.424  0.00  0.00    +0.000 HD
ENDBRANCH  22  23
ENDBRANCH  20  22
ENDBRANCH  19  20
ENDBRANCH  18  19
ENDBRANCH  17  18
ENDBRANCH  15  17
ENDBRANCH   1  15
TORSDOF 8
ENDMDL
MODEL 4
REMARK VINA RESULT:      -6.9      1.970      2.698
REMARK  Name = 
REMARK  8 active torsions:
REMARK  status: ('A' for Active; 'I' for Inactive)
REMARK    1  A    between atoms: C_2  and  O_3
REMARK    2  A    between atoms: C_2  and  C_4
REMARK    3  A    between atoms: C_4  and  C_5
REMARK    4  A    between atoms: C_5  and  C_6
REMARK    5  A    between atoms: C_6  and  C_7
REMARK    6  A    between atoms: C_7  and  N_8
REMARK    7  A    between atoms: N_8  and  S_9
REMARK    8  A    between atoms: S_9  and  C_12
REMARK                            x       y       z     vdW  Elec       q    Type
REMARK                         _______ _______ _______ _____ _____    ______ ____
ROOT
ATOM      1  S   UNL     1       5.706   4.398  17.029  0.00  0.00    +0.000 S 
ATOM      2  O   UNL     1       5.130   3.116  16.695  0.00  0.00    +0.000 OA
ATOM      3  O   UNL     1       6.893   4.491  17.852  0.00  0.00    +0.000 OA
ENDROOT
BRANCH   1   4
ATOM      4  C   UNL     1       4.424   5.403  17.761  0.00  0.00    +0.000 A 
ATOM      5  C   UNL     1       4.252   6.694  17.229  0.00  0.00    +0.000 A 
ATOM      6  C   UNL     1       3.316   7.557  17.785  0.00  0.00    +0.000 A 
ATOM      7  C   UNL     1       2.557   7.134  18.869  0.00  0.00    +0.000 A 
ATOM      8  F   UNL     1       1.667   7.994  19.391  0.00  0.00    +0.000 F 
ATOM      9  C   UNL     1       2.704   5.851  19.423  0.00  0.00    +0.000 A 
ATOM     10  C   UNL     1       1.921   5.468  20.527  0.00  0.00    +0.000 A 
ATOM     11  C   UNL     1       2.046   4.203  21.096  0.00  0.00    +0.000 A 
ATOM     12  C   UNL     1       2.957   3.303  20.566  0.00  0.00    +0.000 A 
ATOM     13  C   UNL     1       3.746   3.668  19.473  0.00  0.00    +0.000 A 
ATOM     14  C   UNL     1       3.651   4.948  18.869  0.00  0.00    +0.000 A 
ENDBRANCH   1   4
BRANCH   1  15
ATOM     15  N   UNL     1       6.039   5.181  15.574  0.00  0.00    +0.000 NA
ATOM     16  H   UNL     1       5.303   5.847  15.332  0.00  0.00    +0.000 HD
BRANCH  15  17
ATOM     17  C   UNL     1       6.618   4.383  14.489  0.00  0.00    +0.000 C 
BRANCH  17  18
ATOM     18  C   UNL     1       5.530   3.911  13.525  0.00  0.00    +0.000 C 
BRANCH  18  19
ATOM     19  C   UNL     1       6.059   3.592  12.121  0.00  0.00    +0.000 C 
BRANCH  19  20
ATOM     20  C   UNL     1       5.514   2.268  11.575  0.00  0.00    +0.000 C 
BRANCH  20  22
ATOM     21  O   UNL     1       7.762   1.622  10.931  0.00  0.00    +0.000 OA
ATOM     22  C   UNL     1       6.608   1.305  11.170  0.00  0.00    +0.000 C 
BRANCH  22  23
ATOM     23  O   UNL     1       6.187   0.021  11.122  0.00  0.00    +0.000 OA
ATOM     24  H   UNL     1       6.447  -0.460  10.314  0.00  0.00    +0.000 HD
ENDBRANCH  22  23
ENDBRANCH  20  22
ENDBRANCH  19  20
ENDBRANCH  18  19
ENDBRANCH  17  18
ENDBRANCH  15  17
ENDBRANCH   1  15
TORSDOF 8
ENDMDL
MODEL 5
REMARK VINA RESULT:      -6.9      1.877      2.615
REMARK  Name = 
REMARK  8 active torsions:
REMARK  status: ('A' for Active; 'I' for Inactive)
REMARK    1  A    between atoms: C_2  and  O_3
REMARK    2  A    between atoms: C_2  and  C_4
REMARK    3  A    between atoms: C_4  and  C_5
REMARK    4  A    between atoms: C_5  and  C_6
REMARK    5  A    between atoms: C_6  and  C_7
REMARK    6  A    between atoms: C_7  and  N_8
REMARK    7  A    between atoms: N_8  and  S_9
REMARK    8  A    between atoms: S_9  and  C_12
REMARK                            x       y       z     vdW  Elec       q    Type
REMARK                         _______ _______ _______ _____ _____    ______ ____
ROOT
ATOM      1  S   UNL     1       6.881   5.168  17.442  0.00  0.00    +0.000 S 
ATOM      2  O   UNL     1       7.462   4.652  18.660  0.00  0.00    +0.000 OA
ATOM      3  O   UNL     1       7.548   6.202  16.678  0.00  0.00    +0.000 OA
ENDROOT
BRANCH   1   4
ATOM      4  C   UNL     1       5.220   5.711  17.810  0.00  0.00    +0.000 A 
ATOM      5  C   UNL     1       4.844   6.973  17.316  0.00  0.00    +0.000 A 
ATOM      6  C   UNL     1       3.589   7.490  17.612  0.00  0.00    +0.000 A 
ATOM      7  C   UNL     1       2.715   6.752  18.400  0.00  0.00    +0.000 A 
ATOM      8  F   UNL     1       1.513   7.282  18.677  0.00  0.00    +0.000 F 
ATOM      9  C   UNL     1       3.061   5.489  18.909  0.00  0.00    +0.000 A 
ATOM     10  C   UNL     1       2.148   4.780  19.711  0.00  0.00    +0.000 A 
ATOM     11  C   UNL     1       2.464   3.526  20.228  0.00  0.00    +0.000 A 
ATOM     12  C   UNL     1       3.700   2.963  19.948  0.00  0.00    +0.000 A 
ATOM     13  C   UNL     1       4.619   3.655  19.156  0.00  0.00    +0.000 A 
ATOM     14  C   UNL     1       4.336   4.935  18.616  0.00  0.00    +0.000 A 
ENDBRANCH   1   4
BRANCH   1  15
ATOM     15  N   UNL     1       6.649   3.853  16.413  0.00  0.00    +0.000 NA
ATOM     16  H   UNL     1       7.531   3.539  16.004  0.00  0.00    +0.000 HD
BRANCH  15  17
ATOM     17  C   UNL     1       5.464   3.865  15.550  0.00  0.00    +0.000 C 
BRANCH  17  18
ATOM     18  C   UNL     1       5.707   4.725  14.310  0.00  0.00    +0.000 C 
BRANCH  18  19
ATOM     19  C   UNL     1       6.544   4.019  13.236  0.00  0.00    +0.000 C 
BRANCH  19  20
ATOM     20  C   UNL     1       5.687   3.199  12.267  0.00  0.00    +0.000 C 
BRANCH  20  22
ATOM     21  O   UNL     1       7.636   2.182  11.242  0.00  0.00    +0.000 OA
ATOM     22  C   UNL     1       6.466   2.101  11.577  0.00  0.00    +0.000 C 
BRANCH  22  23
ATOM     23  O   UNL     1       5.736   0.980  11.386  0.00  0.00    +0.000 OA
ATOM     24  H   UNL     1       5.554   0.471  12.199  0.00  0.00    +0.000 HD
ENDBRANCH  22  23
ENDBRANCH  20  22
ENDBRANCH  19  20
ENDBRANCH  18  19
ENDBRANCH  17  18
ENDBRANCH  15  17
ENDBRANCH   1  15
TORSDOF 8
ENDMDL
MODEL 6
REMARK VINA RESULT:      -6.9      1.185      1.423
REMARK  Name = 
REMARK  8 active torsions:
REMARK  status: ('A' for Active; 'I' for Inactive)
REMARK    1  A    between atoms: C_2  and  O_3
REMARK    2  A    between atoms: C_2  and  C_4
REMARK    3  A    between atoms: C_4  and  C_5
REMARK    4  A    between atoms: C_5  and  C_6
REMARK    5  A    between atoms: C_6  and  C_7
REMARK    6  A    between atoms: C_7  and  N_8
REMARK    7  A    between atoms: N_8  and  S_9
REMARK    8  A    between atoms: S_9  and  C_12
REMARK                            x       y       z     vdW  Elec       q    Type
REMARK                         _______ _______ _______ _____ _____    ______ ____
ROOT
ATOM      1  S   UNL     1       5.949   4.871  18.477  0.00  0.00    +0.000 S 
ATOM      2  O   UNL     1       7.015   4.029  17.983  0.00  0.00    +0.000 OA
ATOM      3  O   UNL     1       6.096   5.610  19.713  0.00  0.00    +0.000 OA
ENDROOT
BRANCH   1   4
ATOM      4  C   UNL     1       4.466   3.881  18.575  0.00  0.00    +0.000 A 
ATOM      5  C   UNL     1       4.477   2.657  17.881  0.00  0.00    +0.000 A 
ATOM      6  C   UNL     1       3.339   1.859  17.860  0.00  0.00    +0.000 A 
ATOM      7  C   UNL     1       2.196   2.283  18.526  0.00  0.00    +0.000 A 
ATOM      8  F   UNL     1       1.110   1.495  18.479  0.00  0.00    +0.000 F 
ATOM      9  C   UNL     1       2.154   3.499  19.228  0.00  0.00    +0.000 A 
ATOM     10  C   UNL     1       0.972   3.894  19.881  0.00  0.00    +0.000 A 
ATOM     11  C   UNL     1       0.901   5.094  20.584  0.00  0.00    +0.000 A 
ATOM     12  C   UNL     1       2.015   5.916  20.645  0.00  0.00    +0.000 A 
ATOM     13  C   UNL     1       3.196   5.541  19.999  0.00  0.00    +0.000 A 
ATOM     14  C   UNL     1       3.305   4.330  19.270  0.00  0.00    +0.000 A 
ENDBRANCH   1   4
BRANCH   1  15
ATOM     15  N   UNL     1       5.600   5.986  17.262  0.00  0.00    +0.000 NA
ATOM     16  H   UNL     1       4.604   6.211  17.237  0.00  0.00    +0.000 HD
BRANCH  15  17
ATOM     17  C   UNL     1       6.296   5.836  15.980  0.00  0.00    +0.000 C 
BRANCH  17  18
ATOM     18  C   UNL     1       5.416   5.097  14.971  0.00  0.00    +0.000 C 
BRANCH  18  19
ATOM     19  C   UNL     1       6.059   3.814  14.430  0.00  0.00    +0.000 C 
BRANCH  19  20
ATOM     20  C   UNL     1       6.421   3.920  12.945  0.00  0.00    +0.000 C 
BRANCH  20  22
ATOM     21  O   UNL     1       4.507   3.351  11.568  0.00  0.00    +0.000 OA
ATOM     22  C   UNL     1       5.572   3.027  12.067  0.00  0.00    +0.000 C 
BRANCH  22  23
ATOM     23  O   UNL     1       6.129   1.813  11.858  0.00  0.00    +0.000 OA
ATOM     24  H   UNL     1       5.757   1.322  11.101  0.00  0.00    +0.000 HD
ENDBRANCH  22  23
ENDBRANCH  20  22
ENDBRANCH  19  20
ENDBRANCH  18  19
ENDBRANCH  17  18
ENDBRANCH  15  17
ENDBRANCH   1  15
TORSDOF 8
ENDMDL
MODEL 7
REMARK VINA RESULT:      -6.9      3.660      6.951
REMARK  Name = 
REMARK  8 active torsions:
REMARK  status: ('A' for Active; 'I' for Inactive)
REMARK    1  A    between atoms: C_2  and  O_3
REMARK    2  A    between atoms: C_2  and  C_4
REMARK    3  A    between atoms: C_4  and  C_5
REMARK    4  A    between atoms: C_5  and  C_6
REMARK    5  A    between atoms: C_6  and  C_7
REMARK    6  A    between atoms: C_7  and  N_8
REMARK    7  A    between atoms: N_8  and  S_9
REMARK    8  A    between atoms: S_9  and  C_12
REMARK                            x       y       z     vdW  Elec       q    Type
REMARK                         _______ _______ _______ _____ _____    ______ ____
ROOT
ATOM      1  S   UNL     1       3.300   3.079  18.170  0.00  0.00    +0.000 S 
ATOM      2  O   UNL     1       3.639   1.684  18.007  0.00  0.00    +0.000 OA
ATOM      3  O   UNL     1       2.310   3.708  17.322  0.00  0.00    +0.000 OA
ENDROOT
BRANCH   1   4
ATOM      4  C   UNL     1       4.811   4.026  18.086  0.00  0.00    +0.000 A 
ATOM      5  C   UNL     1       5.280   4.576  19.293  0.00  0.00    +0.000 A 
ATOM      6  C   UNL     1       6.416   5.375  19.299  0.00  0.00    +0.000 A 
ATOM      7  C   UNL     1       7.079   5.627  18.105  0.00  0.00    +0.000 A 
ATOM      8  F   UNL     1       8.168   6.411  18.141  0.00  0.00    +0.000 F 
ATOM      9  C   UNL     1       6.637   5.093  16.883  0.00  0.00    +0.000 A 
ATOM     10  C   UNL     1       7.334   5.381  15.696  0.00  0.00    +0.000 A 
ATOM     11  C   UNL     1       6.919   4.865  14.471  0.00  0.00    +0.000 A 
ATOM     12  C   UNL     1       5.799   4.051  14.418  0.00  0.00    +0.000 A 
ATOM     13  C   UNL     1       5.092   3.757  15.587  0.00  0.00    +0.000 A 
ATOM     14  C   UNL     1       5.481   4.267  16.851  0.00  0.00    +0.000 A 
ENDBRANCH   1   4
BRANCH   1  15
ATOM     15  N   UNL     1       2.796   3.278  19.766  0.00  0.00    +0.000 NA
ATOM     16  H   UNL     1       3.287   2.640  20.394  0.00  0.00    +0.000 HD
BRANCH  15  17
ATOM     17  C   UNL     1       1.367   3.504  20.006  0.00  0.00    +0.000 C 
BRANCH  17  18
ATOM     18  C   UNL     1       1.108   4.961  20.390  0.00  0.00    +0.000 C 
BRANCH  18  19
ATOM     19  C   UNL     1       2.347   5.854  20.257  0.00  0.00    +0.000 C 
BRANCH  19  20
ATOM     20  C   UNL     1       1.990   7.324  20.017  0.00  0.00    +0.000 C 
BRANCH  20  22
ATOM     21  O   UNL     1       1.752   8.733  18.057  0.00  0.00    +0.000 OA
ATOM     22  C   UNL     1       2.273   7.774  18.601  0.00  0.00    +0.000 C 
BRANCH  22  23
ATOM     23  O   UNL     1       3.205   7.012  17.984  0.00  0.00    +0.000 OA
ATOM     24  H   UNL     1       3.376   6.154  18.415  0.00  0.00    +0.000 HD
ENDBRANCH  22  23
ENDBRANCH  20  22
ENDBRANCH  19  20
ENDBRANCH  18  19
ENDBRANCH  17  18
ENDBRANCH  15  17
ENDBRANCH   1  15
TORSDOF 8
ENDMDL
MODEL 8
REMARK VINA RESULT:      -6.9      4.681      6.646
REMARK  Name = 
REMARK  8 active torsions:
REMARK  status: ('A' for Active; 'I' for Inactive)
REMARK    1  A    between atoms: C_2  and  O_3
REMARK    2  A    between atoms: C_2  and  C_4
REMARK    3  A    between atoms: C_4  and  C_5
REMARK    4  A    between atoms: C_5  and  C_6
REMARK    5  A    between atoms: C_6  and  C_7
REMARK    6  A    between atoms: C_7  and  N_8
REMARK    7  A    between atoms: N_8  and  S_9
REMARK    8  A    between atoms: S_9  and  C_12
REMARK                            x       y       z     vdW  Elec       q    Type
REMARK                         _______ _______ _______ _____ _____    ______ ____
ROOT
ATOM      1  S   UNL     1       7.199   5.353  17.520  0.00  0.00    +0.000 S 
ATOM      2  O   UNL     1       7.362   4.549  16.331  0.00  0.00    +0.000 OA
ATOM      3  O   UNL     1       7.749   4.927  18.790  0.00  0.00    +0.000 OA
ENDROOT
BRANCH   1   4
ATOM      4  C   UNL     1       5.456   5.676  17.731  0.00  0.00    +0.000 A 
ATOM      5  C   UNL     1       4.983   6.920  17.274  0.00  0.00    +0.000 A 
ATOM      6  C   UNL     1       3.651   7.269  17.457  0.00  0.00    +0.000 A 
ATOM      7  C   UNL     1       2.795   6.382  18.097  0.00  0.00    +0.000 A 
ATOM      8  F   UNL     1       1.516   6.751  18.268  0.00  0.00    +0.000 F 
ATOM      9  C   UNL     1       3.235   5.132  18.565  0.00  0.00    +0.000 A 
ATOM     10  C   UNL     1       2.336   4.268  19.216  0.00  0.00    +0.000 A 
ATOM     11  C   UNL     1       2.745   3.024  19.690  0.00  0.00    +0.000 A 
ATOM     12  C   UNL     1       4.062   2.626  19.517  0.00  0.00    +0.000 A 
ATOM     13  C   UNL     1       4.969   3.474  18.876  0.00  0.00    +0.000 A 
ATOM     14  C   UNL     1       4.592   4.749  18.385  0.00  0.00    +0.000 A 
ENDBRANCH   1   4
BRANCH   1  15
ATOM     15  N   UNL     1       7.844   6.873  17.177  0.00  0.00    +0.000 NA
ATOM     16  H   UNL     1       8.477   6.837  16.376  0.00  0.00    +0.000 HD
BRANCH  15  17
ATOM     17  C   UNL     1       8.227   7.722  18.310  0.00  0.00    +0.000 C 
BRANCH  17  18
ATOM     18  C   UNL     1       8.200   9.198  17.913  0.00  0.00    +0.000 C 
BRANCH  18  19
ATOM     19  C   UNL     1       9.042  10.090  18.832  0.00  0.00    +0.000 C 
BRANCH  19  20
ATOM     20  C   UNL     1       9.853  11.134  18.058  0.00  0.00    +0.000 C 
BRANCH  20  22
ATOM     21  O   UNL     1       8.871  12.979  19.289  0.00  0.00    +0.000 OA
ATOM     22  C   UNL     1       9.332  12.541  18.248  0.00  0.00    +0.000 C 
BRANCH  22  23
ATOM     23  O   UNL     1       9.453  13.301  17.136  0.00  0.00    +0.000 OA
ATOM     24  H   UNL     1       9.059  12.909  16.333  0.00  0.00    +0.000 HD
ENDBRANCH  22  23
ENDBRANCH  20  22
ENDBRANCH  19  20
ENDBRANCH  18  19
ENDBRANCH  17  18
ENDBRANCH  15  17
ENDBRANCH   1  15
TORSDOF 8
ENDMDL
MODEL 9
REMARK VINA RESULT:      -6.9      1.963      2.972
REMARK  Name = 
REMARK  8 active torsions:
REMARK  status: ('A' for Active; 'I' for Inactive)
REMARK    1  A    between atoms: C_2  and  O_3
REMARK    2  A    between atoms: C_2  and  C_4
REMARK    3  A    between atoms: C_4  and  C_5
REMARK    4  A    between atoms: C_5  and  C_6
REMARK    5  A    between atoms: C_6  and  C_7
REMARK    6  A    between atoms: C_7  and  N_8
REMARK    7  A    between atoms: N_8  and  S_9
REMARK    8  A    between atoms: S_9  and  C_12
REMARK                            x       y       z     vdW  Elec       q    Type
REMARK                         _______ _______ _______ _____ _____    ______ ____
ROOT
ATOM      1  S   UNL     1       6.503   5.313  16.241  0.00  0.00    +0.000 S 
ATOM      2  O   UNL     1       6.952   4.104  16.892  0.00  0.00    +0.000 OA
ATOM      3  O   UNL     1       7.343   6.491  16.195  0.00  0.00    +0.000 OA
ENDROOT
BRANCH   1   4
ATOM      4  C   UNL     1       4.925   5.763  16.943  0.00  0.00    +0.000 A 
ATOM      5  C   UNL     1       4.690   7.136  17.142  0.00  0.00    +0.000 A 
ATOM      6  C   UNL     1       3.510   7.561  17.740  0.00  0.00    +0.000 A 
ATOM      7  C   UNL     1       2.571   6.620  18.140  0.00  0.00    +0.000 A 
ATOM      8  F   UNL     1       1.444   7.060  18.724  0.00  0.00    +0.000 F 
ATOM      9  C   UNL     1       2.774   5.242  17.955  0.00  0.00    +0.000 A 
ATOM     10  C   UNL     1       1.799   4.323  18.384  0.00  0.00    +0.000 A 
ATOM     11  C   UNL     1       1.975   2.952  18.214  0.00  0.00    +0.000 A 
ATOM     12  C   UNL     1       3.130   2.481  17.609  0.00  0.00    +0.000 A 
ATOM     13  C   UNL     1       4.111   3.380  17.181  0.00  0.00    +0.000 A 
ATOM     14  C   UNL     1       3.970   4.782  17.341  0.00  0.00    +0.000 A 
ENDBRANCH   1   4
BRANCH   1  15
ATOM     15  N   UNL     1       6.125   4.902  14.650  0.00  0.00    +0.000 NA
ATOM     16  H   UNL     1       5.515   4.083  14.612  0.00  0.00    +0.000 HD
BRANCH  15  17
ATOM     17  C   UNL     1       7.191   5.003  13.648  0.00  0.00    +0.000 C 
BRANCH  17  18
ATOM     18  C   UNL     1       6.886   4.114  12.443  0.00  0.00    +0.000 C 
BRANCH  18  19
ATOM     19  C   UNL     1       5.606   3.286  12.608  0.00  0.00    +0.000 C 
BRANCH  19  20
ATOM     20  C   UNL     1       5.344   2.363  11.413  0.00  0.00    +0.000 C 
BRANCH  20  22
ATOM     21  O   UNL     1       7.590   1.607  10.892  0.00  0.00    +0.000 OA
ATOM     22  C   UNL     1       6.441   1.342  11.207  0.00  0.00    +0.000 C 
BRANCH  22  23
ATOM     23  O   UNL     1       6.030   0.075  11.439  0.00  0.00    +0.000 OA
ATOM     24  H   UNL     1       5.062  -0.040  11.456  0.00  0.00    +0.000 HD
ENDBRANCH  22  23
ENDBRANCH  20  22
ENDBRANCH  19  20
ENDBRANCH  18  19
ENDBRANCH  17  18
ENDBRANCH  15  17
ENDBRANCH   1  15
TORSDOF 8
ENDMDL
