MODEL 1
REMARK VINA RESULT:      -8.9      0.000      0.000
REMARK  Name = 
REMARK  5 active torsions:
REMARK  status: ('A' for Active; 'I' for Inactive)
REMARK    1  A    between atoms: C_2  and  C_11
REMARK    2  A    between atoms: N_3  and  C_4
REMARK    3  A    between atoms: C_16  and  O_17
REMARK    4  A    between atoms: O_17  and  C_18
REMARK    5  A    between atoms: C_21  and  C_22
REMARK                            x       y       z     vdW  Elec       q    Type
REMARK                         _______ _______ _______ _____ _____    ______ ____
ROOT
ATOM      1  C   UNL     1       2.480   7.522  18.883  0.00  0.00    +0.000 A 
ATOM      2  C   UNL     1       2.407   8.293  17.734  0.00  0.00    +0.000 A 
ATOM      3  C   UNL     1       1.632   9.449  17.760  0.00  0.00    +0.000 A 
ATOM      4  C   UNL     1       0.933   9.795  18.926  0.00  0.00    +0.000 A 
ATOM      5  C   UNL     1       0.139  10.958  19.010  0.00  0.00    +0.000 A 
ATOM      6  C   UNL     1      -0.561  11.257  20.177  0.00  0.00    +0.000 A 
ATOM      7  C   UNL     1      -0.504  10.356  21.244  0.00  0.00    +0.000 A 
ATOM      8  C   UNL     1       0.315   9.222  21.170  0.00  0.00    +0.000 A 
ATOM      9  C   UNL     1       1.042   8.923  20.031  0.00  0.00    +0.000 A 
ATOM     10  N   UNL     1       1.798   7.813  20.025  0.00  0.00    +0.000 NA
ENDROOT
BRANCH   1  12
ATOM     11  O   UNL     1       3.294   5.524  19.912  0.00  0.00    +0.000 OA
ATOM     12  C   UNL     1       3.351   6.295  18.948  0.00  0.00    +0.000 C 
ATOM     13  N   UNL     1       4.183   6.100  17.872  0.00  0.00    +0.000 N 
ATOM     14  H   UNL     1       4.231   6.862  17.200  0.00  0.00    +0.000 HD
BRANCH  13  15
ATOM     15  C   UNL     1       5.095   4.961  17.715  0.00  0.00    +0.000 C 
ATOM     16  C   UNL     1       6.492   5.328  18.230  0.00  0.00    +0.000 C 
ATOM     17  C   UNL     1       7.146   6.395  17.347  0.00  0.00    +0.000 C 
ATOM     18  N   UNL     1       7.200   6.022  15.931  0.00  0.00    +0.000 NA
ATOM     19  C   UNL     1       5.894   5.577  15.411  0.00  0.00    +0.000 C 
ATOM     20  C   UNL     1       5.217   4.497  16.259  0.00  0.00    +0.000 C 
ATOM     21  F   UNL     1       5.987   3.367  16.221  0.00  0.00    +0.000 F 
ATOM     22  H   UNL     1       7.858   5.246  15.827  0.00  0.00    +0.000 HD
ENDBRANCH  13  15
ENDBRANCH   1  12
BRANCH   6  23
ATOM     23  O   UNL     1      -1.326  12.408  20.164  0.00  0.00    +0.000 OA
BRANCH  23  24
ATOM     24  C   UNL     1      -2.642  12.297  19.746  0.00  0.00    +0.000 A 
ATOM     25  C   UNL     1      -3.660  12.737  20.589  0.00  0.00    +0.000 A 
ATOM     26  C   UNL     1      -4.979  12.552  20.172  0.00  0.00    +0.000 A 
ATOM     27  C   UNL     1      -5.245  11.960  18.936  0.00  0.00    +0.000 A 
ATOM     28  C   UNL     1      -4.156  11.593  18.154  0.00  0.00    +0.000 A 
ATOM     29  N   UNL     1      -2.879  11.725  18.545  0.00  0.00    +0.000 NA
BRANCH  27  30
ATOM     30  C   UNL     1      -6.628  11.698  18.431  0.00  0.00    +0.000 C 
ATOM     31  F   UNL     1      -7.591  12.246  19.220  0.00  0.00    +0.000 F 
ATOM     32  F   UNL     1      -6.834  12.200  17.183  0.00  0.00    +0.000 F 
ATOM     33  F   UNL     1      -6.923  10.371  18.350  0.00  0.00    +0.000 F 
ENDBRANCH  27  30
ENDBRANCH  23  24
ENDBRANCH   6  23
TORSDOF 5
ENDMDL
MODEL 2
REMARK VINA RESULT:      -8.9      1.986      2.433
REMARK  Name = 
REMARK  5 active torsions:
REMARK  status: ('A' for Active; 'I' for Inactive)
REMARK    1  A    between atoms: C_2  and  C_11
REMARK    2  A    between atoms: N_3  and  C_4
REMARK    3  A    between atoms: C_16  and  O_17
REMARK    4  A    between atoms: O_17  and  C_18
REMARK    5  A    between atoms: C_21  and  C_22
REMARK                            x       y       z     vdW  Elec       q    Type
REMARK                         _______ _______ _______ _____ _____    ______ ____
ROOT
ATOM      1  C   UNL     1       2.409   7.118  18.578  0.00  0.00    +0.000 A 
ATOM      2  C   UNL     1       2.331   8.165  17.674  0.00  0.00    +0.000 A 
ATOM      3  C   UNL     1       1.853   9.394  18.123  0.00  0.00    +0.000 A 
ATOM      4  C   UNL     1       1.445   9.540  19.457  0.00  0.00    +0.000 A 
ATOM      5  C   UNL     1       0.961  10.762  19.967  0.00  0.00    +0.000 A 
ATOM      6  C   UNL     1       0.542  10.863  21.292  0.00  0.00    +0.000 A 
ATOM      7  C   UNL     1       0.562   9.717  22.091  0.00  0.00    +0.000 A 
ATOM      8  C   UNL     1       1.079   8.515  21.593  0.00  0.00    +0.000 A 
ATOM      9  C   UNL     1       1.529   8.402  20.289  0.00  0.00    +0.000 A 
ATOM     10  N   UNL     1       2.002   7.215  19.873  0.00  0.00    +0.000 NA
ENDROOT
BRANCH   1  12
ATOM     11  O   UNL     1       2.253   4.785  18.080  0.00  0.00    +0.000 OA
ATOM     12  C   UNL     1       2.977   5.781  18.180  0.00  0.00    +0.000 C 
ATOM     13  N   UNL     1       4.328   5.761  17.929  0.00  0.00    +0.000 N 
ATOM     14  H   UNL     1       4.838   6.611  18.162  0.00  0.00    +0.000 HD
BRANCH  13  15
ATOM     15  C   UNL     1       5.083   4.577  17.505  0.00  0.00    +0.000 C 
ATOM     16  C   UNL     1       6.514   4.638  18.055  0.00  0.00    +0.000 C 
ATOM     17  C   UNL     1       7.307   5.779  17.411  0.00  0.00    +0.000 C 
ATOM     18  N   UNL     1       7.318   5.723  15.946  0.00  0.00    +0.000 NA
ATOM     19  C   UNL     1       5.967   5.577  15.373  0.00  0.00    +0.000 C 
ATOM     20  C   UNL     1       5.150   4.433  15.980  0.00  0.00    +0.000 C 
ATOM     21  F   UNL     1       5.765   3.249  15.677  0.00  0.00    +0.000 F 
ATOM     22  H   UNL     1       7.868   4.911  15.659  0.00  0.00    +0.000 HD
ENDBRANCH  13  15
ENDBRANCH   1  12
BRANCH   6  23
ATOM     23  O   UNL     1       0.066  12.095  21.700  0.00  0.00    +0.000 OA
BRANCH  23  24
ATOM     24  C   UNL     1      -1.305  12.240  21.832  0.00  0.00    +0.000 A 
ATOM     25  C   UNL     1      -2.070  12.506  20.698  0.00  0.00    +0.000 A 
ATOM     26  C   UNL     1      -3.440  12.714  20.869  0.00  0.00    +0.000 A 
ATOM     27  C   UNL     1      -4.005  12.632  22.143  0.00  0.00    +0.000 A 
ATOM     28  C   UNL     1      -3.159  12.322  23.201  0.00  0.00    +0.000 A 
ATOM     29  N   UNL     1      -1.835  12.154  23.072  0.00  0.00    +0.000 NA
BRANCH  27  30
ATOM     30  C   UNL     1      -5.456  12.873  22.414  0.00  0.00    +0.000 C 
ATOM     31  F   UNL     1      -5.818  14.173  22.240  0.00  0.00    +0.000 F 
ATOM     32  F   UNL     1      -6.269  12.145  21.600  0.00  0.00    +0.000 F 
ATOM     33  F   UNL     1      -5.821  12.552  23.687  0.00  0.00    +0.000 F 
ENDBRANCH  27  30
ENDBRANCH  23  24
ENDBRANCH   6  23
TORSDOF 5
ENDMDL
MODEL 3
REMARK VINA RESULT:      -8.8      1.141      1.548
REMARK  Name = 
REMARK  5 active torsions:
REMARK  status: ('A' for Active; 'I' for Inactive)
REMARK    1  A    between atoms: C_2  and  C_11
REMARK    2  A    between atoms: N_3  and  C_4
REMARK    3  A    between atoms: C_16  and  O_17
REMARK    4  A    between atoms: O_17  and  C_18
REMARK    5  A    between atoms: C_21  and  C_22
REMARK                            x       y       z     vdW  Elec       q    Type
REMARK                         _______ _______ _______ _____ _____    ______ ____
ROOT
ATOM      1  C   UNL     1       2.411   7.415  18.929  0.00  0.00    +0.000 A 
ATOM      2  C   UNL     1       2.338   8.260  17.834  0.00  0.00    +0.000 A 
ATOM      3  C   UNL     1       1.706   9.492  17.989  0.00  0.00    +0.000 A 
ATOM      4  C   UNL     1       1.147   9.839  19.228  0.00  0.00    +0.000 A 
ATOM      5  C   UNL     1       0.503  11.075  19.443  0.00  0.00    +0.000 A 
ATOM      6  C   UNL     1      -0.063  11.375  20.680  0.00  0.00    +0.000 A 
ATOM      7  C   UNL     1      -0.028  10.406  21.687  0.00  0.00    +0.000 A 
ATOM      8  C   UNL     1       0.646   9.196  21.482  0.00  0.00    +0.000 A 
ATOM      9  C   UNL     1       1.241   8.891  20.271  0.00  0.00    +0.000 A 
ATOM     10  N   UNL     1       1.860   7.706  20.139  0.00  0.00    +0.000 NA
ENDROOT
BRANCH   1  12
ATOM     11  O   UNL     1       2.807   5.146  19.570  0.00  0.00    +0.000 OA
ATOM     12  C   UNL     1       3.135   6.096  18.852  0.00  0.00    +0.000 C 
ATOM     13  N   UNL     1       4.156   6.032  17.934  0.00  0.00    +0.000 N 
ATOM     14  H   UNL     1       4.412   6.911  17.489  0.00  0.00    +0.000 HD
BRANCH  13  15
ATOM     15  C   UNL     1       4.975   4.843  17.675  0.00  0.00    +0.000 C 
ATOM     16  C   UNL     1       6.391   5.046  18.228  0.00  0.00    +0.000 C 
ATOM     17  C   UNL     1       7.139   6.134  17.451  0.00  0.00    +0.000 C 
ATOM     18  N   UNL     1       7.178   5.891  16.006  0.00  0.00    +0.000 NA
ATOM     19  C   UNL     1       5.847   5.603  15.441  0.00  0.00    +0.000 C 
ATOM     20  C   UNL     1       5.076   4.507  16.183  0.00  0.00    +0.000 C 
ATOM     21  F   UNL     1       5.754   3.327  16.042  0.00  0.00    +0.000 F 
ATOM     22  H   UNL     1       7.773   5.077  15.832  0.00  0.00    +0.000 HD
ENDBRANCH  13  15
ENDBRANCH   1  12
BRANCH   6  23
ATOM     23  O   UNL     1      -0.688  12.603  20.796  0.00  0.00    +0.000 OA
BRANCH  23  24
ATOM     24  C   UNL     1      -2.070  12.612  20.882  0.00  0.00    +0.000 A 
ATOM     25  C   UNL     1      -2.669  12.786  22.127  0.00  0.00    +0.000 A 
ATOM     26  C   UNL     1      -4.063  12.723  22.196  0.00  0.00    +0.000 A 
ATOM     27  C   UNL     1      -4.811  12.513  21.036  0.00  0.00    +0.000 A 
ATOM     28  C   UNL     1      -4.116  12.392  19.839  0.00  0.00    +0.000 A 
ATOM     29  N   UNL     1      -2.778  12.410  19.748  0.00  0.00    +0.000 NA
BRANCH  27  30
ATOM     30  C   UNL     1      -6.302  12.402  21.029  0.00  0.00    +0.000 C 
ATOM     31  F   UNL     1      -6.748  11.324  20.331  0.00  0.00    +0.000 F 
ATOM     32  F   UNL     1      -6.824  12.282  22.280  0.00  0.00    +0.000 F 
ATOM     33  F   UNL     1      -6.915  13.485  20.474  0.00  0.00    +0.000 F 
ENDBRANCH  27  30
ENDBRANCH  23  24
ENDBRANCH   6  23
TORSDOF 5
ENDMDL
MODEL 4
REMARK VINA RESULT:      -8.7      2.134      2.753
REMARK  Name = 
REMARK  5 active torsions:
REMARK  status: ('A' for Active; 'I' for Inactive)
REMARK    1  A    between atoms: C_2  and  C_11
REMARK    2  A    between atoms: N_3  and  C_4
REMARK    3  A    between atoms: C_16  and  O_17
REMARK    4  A    between atoms: O_17  and  C_18
REMARK    5  A    between atoms: C_21  and  C_22
REMARK                            x       y       z     vdW  Elec       q    Type
REMARK                         _______ _______ _______ _____ _____    ______ ____
ROOT
ATOM      1  C   UNL     1       2.393   7.475  18.928  0.00  0.00    +0.000 A 
ATOM      2  C   UNL     1       2.301   8.280  17.803  0.00  0.00    +0.000 A 
ATOM      3  C   UNL     1       1.680   9.521  17.926  0.00  0.00    +0.000 A 
ATOM      4  C   UNL     1       1.150   9.917  19.162  0.00  0.00    +0.000 A 
ATOM      5  C   UNL     1       0.518  11.165  19.344  0.00  0.00    +0.000 A 
ATOM      6  C   UNL     1      -0.020  11.515  20.581  0.00  0.00    +0.000 A 
ATOM      7  C   UNL     1       0.032  10.585  21.623  0.00  0.00    +0.000 A 
ATOM      8  C   UNL     1       0.694   9.363  21.449  0.00  0.00    +0.000 A 
ATOM      9  C   UNL     1       1.261   9.009  20.238  0.00  0.00    +0.000 A 
ATOM     10  N   UNL     1       1.870   7.815  20.138  0.00  0.00    +0.000 NA
ENDROOT
BRANCH   1  12
ATOM     11  O   UNL     1       2.838   5.254  19.691  0.00  0.00    +0.000 OA
ATOM     12  C   UNL     1       3.108   6.151  18.885  0.00  0.00    +0.000 C 
ATOM     13  N   UNL     1       4.053   6.017  17.895  0.00  0.00    +0.000 N 
ATOM     14  H   UNL     1       4.273   6.861  17.372  0.00  0.00    +0.000 HD
BRANCH  13  15
ATOM     15  C   UNL     1       4.848   4.807  17.655  0.00  0.00    +0.000 C 
ATOM     16  C   UNL     1       6.240   4.958  18.281  0.00  0.00    +0.000 C 
ATOM     17  C   UNL     1       7.057   6.035  17.562  0.00  0.00    +0.000 C 
ATOM     18  N   UNL     1       7.162   5.815  16.117  0.00  0.00    +0.000 NA
ATOM     19  C   UNL     1       5.852   5.579  15.482  0.00  0.00    +0.000 C 
ATOM     20  C   UNL     1       5.013   4.494  16.164  0.00  0.00    +0.000 C 
ATOM     21  F   UNL     1       5.661   3.296  16.035  0.00  0.00    +0.000 F 
ATOM     22  H   UNL     1       7.740   4.986  15.958  0.00  0.00    +0.000 HD
ENDBRANCH  13  15
ENDBRANCH   1  12
BRANCH   6  23
ATOM     23  O   UNL     1      -0.635  12.750  20.664  0.00  0.00    +0.000 OA
BRANCH  23  24
ATOM     24  C   UNL     1      -1.766  12.850  21.457  0.00  0.00    +0.000 A 
ATOM     25  C   UNL     1      -1.620  13.156  22.808  0.00  0.00    +0.000 A 
ATOM     26  C   UNL     1      -2.771  13.184  23.598  0.00  0.00    +0.000 A 
ATOM     27  C   UNL     1      -4.019  12.931  23.025  0.00  0.00    +0.000 A 
ATOM     28  C   UNL     1      -4.057  12.676  21.660  0.00  0.00    +0.000 A 
ATOM     29  N   UNL     1      -2.965  12.605  20.884  0.00  0.00    +0.000 NA
BRANCH  27  30
ATOM     30  C   UNL     1      -5.293  12.911  23.808  0.00  0.00    +0.000 C 
ATOM     31  F   UNL     1      -6.333  12.379  23.111  0.00  0.00    +0.000 F 
ATOM     32  F   UNL     1      -5.194  12.180  24.952  0.00  0.00    +0.000 F 
ATOM     33  F   UNL     1      -5.701  14.152  24.194  0.00  0.00    +0.000 F 
ENDBRANCH  27  30
ENDBRANCH  23  24
ENDBRANCH   6  23
TORSDOF 5
ENDMDL
MODEL 5
REMARK VINA RESULT:      -8.7      1.015      1.652
REMARK  Name = 
REMARK  5 active torsions:
REMARK  status: ('A' for Active; 'I' for Inactive)
REMARK    1  A    between atoms: C_2  and  C_11
REMARK    2  A    between atoms: N_3  and  C_4
REMARK    3  A    between atoms: C_16  and  O_17
REMARK    4  A    between atoms: O_17  and  C_18
REMARK    5  A    between atoms: C_21  and  C_22
REMARK                            x       y       z     vdW  Elec       q    Type
REMARK                         _______ _______ _______ _____ _____    ______ ____
ROOT
ATOM      1  C   UNL     1       2.641   6.359  19.326  0.00  0.00    +0.000 A 
ATOM      2  C   UNL     1       1.994   6.368  20.551  0.00  0.00    +0.000 A 
ATOM      3  C   UNL     1       1.259   7.498  20.904  0.00  0.00    +0.000 A 
ATOM      4  C   UNL     1       1.207   8.597  20.034  0.00  0.00    +0.000 A 
ATOM      5  C   UNL     1       0.473   9.763  20.337  0.00  0.00    +0.000 A 
ATOM      6  C   UNL     1       0.465  10.845  19.459  0.00  0.00    +0.000 A 
ATOM      7  C   UNL     1       1.239  10.773  18.298  0.00  0.00    +0.000 A 
ATOM      8  C   UNL     1       1.935   9.600  17.982  0.00  0.00    +0.000 A 
ATOM      9  C   UNL     1       1.932   8.503  18.826  0.00  0.00    +0.000 A 
ATOM     10  N   UNL     1       2.632   7.414  18.466  0.00  0.00    +0.000 NA
ENDROOT
BRANCH   1  12
ATOM     11  O   UNL     1       2.967   4.007  19.051  0.00  0.00    +0.000 OA
ATOM     12  C   UNL     1       3.398   5.147  18.850  0.00  0.00    +0.000 C 
ATOM     13  N   UNL     1       4.570   5.405  18.181  0.00  0.00    +0.000 N 
ATOM     14  H   UNL     1       4.882   6.373  18.183  0.00  0.00    +0.000 HD
BRANCH  13  15
ATOM     15  C   UNL     1       5.451   4.379  17.610  0.00  0.00    +0.000 C 
ATOM     16  C   UNL     1       6.917   4.721  17.902  0.00  0.00    +0.000 C 
ATOM     17  C   UNL     1       7.353   5.982  17.150  0.00  0.00    +0.000 C 
ATOM     18  N   UNL     1       7.118   5.905  15.705  0.00  0.00    +0.000 NA
ATOM     19  C   UNL     1       5.742   5.494  15.374  0.00  0.00    +0.000 C 
ATOM     20  C   UNL     1       5.276   4.225  16.095  0.00  0.00    +0.000 C 
ATOM     21  F   UNL     1       6.044   3.176  15.668  0.00  0.00    +0.000 F 
ATOM     22  H   UNL     1       7.755   5.207  15.312  0.00  0.00    +0.000 HD
ENDBRANCH  13  15
ENDBRANCH   1  12
BRANCH   6  23
ATOM     23  O   UNL     1      -0.268  11.951  19.846  0.00  0.00    +0.000 OA
BRANCH  23  24
ATOM     24  C   UNL     1      -1.603  11.994  19.481  0.00  0.00    +0.000 A 
ATOM     25  C   UNL     1      -2.527  12.558  20.358  0.00  0.00    +0.000 A 
ATOM     26  C   UNL     1      -3.875  12.526  19.996  0.00  0.00    +0.000 A 
ATOM     27  C   UNL     1      -4.258  11.962  18.778  0.00  0.00    +0.000 A 
ATOM     28  C   UNL     1      -3.253  11.463  17.959  0.00  0.00    +0.000 A 
ATOM     29  N   UNL     1      -1.955  11.445  18.297  0.00  0.00    +0.000 NA
BRANCH  27  30
ATOM     30  C   UNL     1      -5.682  11.861  18.331  0.00  0.00    +0.000 C 
ATOM     31  F   UNL     1      -6.551  12.443  19.201  0.00  0.00    +0.000 F 
ATOM     32  F   UNL     1      -5.897  12.460  17.129  0.00  0.00    +0.000 F 
ATOM     33  F   UNL     1      -6.106  10.575  18.186  0.00  0.00    +0.000 F 
ENDBRANCH  27  30
ENDBRANCH  23  24
ENDBRANCH   6  23
TORSDOF 5
ENDMDL
MODEL 6
REMARK VINA RESULT:      -8.6      1.116      1.985
REMARK  Name = 
REMARK  5 active torsions:
REMARK  status: ('A' for Active; 'I' for Inactive)
REMARK    1  A    between atoms: C_2  and  C_11
REMARK    2  A    between atoms: N_3  and  C_4
REMARK    3  A    between atoms: C_16  and  O_17
REMARK    4  A    between atoms: O_17  and  C_18
REMARK    5  A    between atoms: C_21  and  C_22
REMARK                            x       y       z     vdW  Elec       q    Type
REMARK                         _______ _______ _______ _____ _____    ______ ____
ROOT
ATOM      1  C   UNL     1       2.633   6.472  19.463  0.00  0.00    +0.000 A 
ATOM      2  C   UNL     1       1.947   6.533  20.665  0.00  0.00    +0.000 A 
ATOM      3  C   UNL     1       1.194   7.672  20.942  0.00  0.00    +0.000 A 
ATOM      4  C   UNL     1       1.163   8.729  20.021  0.00  0.00    +0.000 A 
ATOM      5  C   UNL     1       0.413   9.902  20.246  0.00  0.00    +0.000 A 
ATOM      6  C   UNL     1       0.426  10.943  19.320  0.00  0.00    +0.000 A 
ATOM      7  C   UNL     1       1.238  10.824  18.188  0.00  0.00    +0.000 A 
ATOM      8  C   UNL     1       1.951   9.643  17.949  0.00  0.00    +0.000 A 
ATOM      9  C   UNL     1       1.928   8.586  18.842  0.00  0.00    +0.000 A 
ATOM     10  N   UNL     1       2.646   7.487  18.555  0.00  0.00    +0.000 NA
ENDROOT
BRANCH   1  12
ATOM     11  O   UNL     1       3.132   4.136  19.533  0.00  0.00    +0.000 OA
ATOM     12  C   UNL     1       3.412   5.246  19.068  0.00  0.00    +0.000 C 
ATOM     13  N   UNL     1       4.426   5.452  18.163  0.00  0.00    +0.000 N 
ATOM     14  H   UNL     1       4.639   6.423  17.946  0.00  0.00    +0.000 HD
BRANCH  13  15
ATOM     15  C   UNL     1       5.293   4.399  17.622  0.00  0.00    +0.000 C 
ATOM     16  C   UNL     1       6.753   4.668  18.009  0.00  0.00    +0.000 C 
ATOM     17  C   UNL     1       7.289   5.922  17.314  0.00  0.00    +0.000 C 
ATOM     18  N   UNL     1       7.139   5.885  15.856  0.00  0.00    +0.000 NA
ATOM     19  C   UNL     1       5.768   5.545  15.434  0.00  0.00    +0.000 C 
ATOM     20  C   UNL     1       5.204   4.284  16.097  0.00  0.00    +0.000 C 
ATOM     21  F   UNL     1       5.948   3.210  15.692  0.00  0.00    +0.000 F 
ATOM     22  H   UNL     1       7.767   5.168  15.485  0.00  0.00    +0.000 HD
ENDBRANCH  13  15
ENDBRANCH   1  12
BRANCH   6  23
ATOM     23  O   UNL     1      -0.326  12.060  19.631  0.00  0.00    +0.000 OA
BRANCH  23  24
ATOM     24  C   UNL     1      -1.688  12.002  19.390  0.00  0.00    +0.000 A 
ATOM     25  C   UNL     1      -2.143  11.415  18.212  0.00  0.00    +0.000 A 
ATOM     26  C   UNL     1      -3.517  11.431  17.962  0.00  0.00    +0.000 A 
ATOM     27  C   UNL     1      -4.389  12.004  18.889  0.00  0.00    +0.000 A 
ATOM     28  C   UNL     1      -3.835  12.526  20.051  0.00  0.00    +0.000 A 
ATOM     29  N   UNL     1      -2.518  12.559  20.301  0.00  0.00    +0.000 NA
BRANCH  27  30
ATOM     30  C   UNL     1      -5.868  12.088  18.682  0.00  0.00    +0.000 C 
ATOM     31  F   UNL     1      -6.266  11.558  17.495  0.00  0.00    +0.000 F 
ATOM     32  F   UNL     1      -6.570  11.428  19.643  0.00  0.00    +0.000 F 
ATOM     33  F   UNL     1      -6.335  13.368  18.694  0.00  0.00    +0.000 F 
ENDBRANCH  27  30
ENDBRANCH  23  24
ENDBRANCH   6  23
TORSDOF 5
ENDMDL
MODEL 7
REMARK VINA RESULT:      -8.6      2.931      3.891
REMARK  Name = 
REMARK  5 active torsions:
REMARK  status: ('A' for Active; 'I' for Inactive)
REMARK    1  A    between atoms: C_2  and  C_11
REMARK    2  A    between atoms: N_3  and  C_4
REMARK    3  A    between atoms: C_16  and  O_17
REMARK    4  A    between atoms: O_17  and  C_18
REMARK    5  A    between atoms: C_21  and  C_22
REMARK                            x       y       z     vdW  Elec       q    Type
REMARK                         _______ _______ _______ _____ _____    ______ ____
ROOT
ATOM      1  C   UNL     1       2.220   7.792  18.656  0.00  0.00    +0.000 A 
ATOM      2  C   UNL     1       2.141   8.851  17.766  0.00  0.00    +0.000 A 
ATOM      3  C   UNL     1       1.593  10.051  18.212  0.00  0.00    +0.000 A 
ATOM      4  C   UNL     1       1.118  10.157  19.527  0.00  0.00    +0.000 A 
ATOM      5  C   UNL     1       0.561  11.350  20.033  0.00  0.00    +0.000 A 
ATOM      6  C   UNL     1       0.077  11.410  21.338  0.00  0.00    +0.000 A 
ATOM      7  C   UNL     1       0.106  10.251  22.119  0.00  0.00    +0.000 A 
ATOM      8  C   UNL     1       0.695   9.080  21.627  0.00  0.00    +0.000 A 
ATOM      9  C   UNL     1       1.209   9.008  20.344  0.00  0.00    +0.000 A 
ATOM     10  N   UNL     1       1.748   7.849  19.932  0.00  0.00    +0.000 NA
ENDROOT
BRANCH   1  12
ATOM     11  O   UNL     1       3.779   6.449  17.440  0.00  0.00    +0.000 OA
ATOM     12  C   UNL     1       2.859   6.486  18.264  0.00  0.00    +0.000 C 
ATOM     13  N   UNL     1       2.361   5.369  18.890  0.00  0.00    +0.000 N 
ATOM     14  H   UNL     1       1.526   5.509  19.455  0.00  0.00    +0.000 HD
BRANCH  13  15
ATOM     15  C   UNL     1       2.851   4.002  18.679  0.00  0.00    +0.000 C 
ATOM     16  C   UNL     1       1.686   3.075  18.311  0.00  0.00    +0.000 C 
ATOM     17  C   UNL     1       0.723   2.899  19.490  0.00  0.00    +0.000 C 
ATOM     18  N   UNL     1       1.385   2.437  20.714  0.00  0.00    +0.000 NA
ATOM     19  C   UNL     1       2.566   3.248  21.062  0.00  0.00    +0.000 C 
ATOM     20  C   UNL     1       3.561   3.431  19.912  0.00  0.00    +0.000 C 
ATOM     21  F   UNL     1       4.085   2.209  19.591  0.00  0.00    +0.000 F 
ATOM     22  H   UNL     1       1.699   1.475  20.567  0.00  0.00    +0.000 HD
ENDBRANCH  13  15
ENDBRANCH   1  12
BRANCH   6  23
ATOM     23  O   UNL     1      -0.467  12.614  21.743  0.00  0.00    +0.000 OA
BRANCH  23  24
ATOM     24  C   UNL     1      -1.810  12.629  22.080  0.00  0.00    +0.000 A 
ATOM     25  C   UNL     1      -2.763  12.691  21.066  0.00  0.00    +0.000 A 
ATOM     26  C   UNL     1      -4.107  12.773  21.436  0.00  0.00    +0.000 A 
ATOM     27  C   UNL     1      -4.461  12.768  22.786  0.00  0.00    +0.000 A 
ATOM     28  C   UNL     1      -3.435  12.662  23.717  0.00  0.00    +0.000 A 
ATOM     29  N   UNL     1      -2.134  12.620  23.393  0.00  0.00    +0.000 NA
BRANCH  27  30
ATOM     30  C   UNL     1      -5.873  12.884  23.265  0.00  0.00    +0.000 C 
ATOM     31  F   UNL     1      -6.080  12.261  24.457  0.00  0.00    +0.000 F 
ATOM     32  F   UNL     1      -6.261  14.175  23.444  0.00  0.00    +0.000 F 
ATOM     33  F   UNL     1      -6.775  12.341  22.401  0.00  0.00    +0.000 F 
ENDBRANCH  27  30
ENDBRANCH  23  24
ENDBRANCH   6  23
TORSDOF 5
ENDMDL
MODEL 8
REMARK VINA RESULT:      -8.5      1.968      2.750
REMARK  Name = 
REMARK  5 active torsions:
REMARK  status: ('A' for Active; 'I' for Inactive)
REMARK    1  A    between atoms: C_2  and  C_11
REMARK    2  A    between atoms: N_3  and  C_4
REMARK    3  A    between atoms: C_16  and  O_17
REMARK    4  A    between atoms: O_17  and  C_18
REMARK    5  A    between atoms: C_21  and  C_22
REMARK                            x       y       z     vdW  Elec       q    Type
REMARK                         _______ _______ _______ _____ _____    ______ ____
ROOT
ATOM      1  C   UNL     1       2.719   7.455  18.691  0.00  0.00    +0.000 A 
ATOM      2  C   UNL     1       2.661   8.335  17.623  0.00  0.00    +0.000 A 
ATOM      3  C   UNL     1       1.888   9.486  17.755  0.00  0.00    +0.000 A 
ATOM      4  C   UNL     1       1.176   9.718  18.940  0.00  0.00    +0.000 A 
ATOM      5  C   UNL     1       0.384  10.870  19.130  0.00  0.00    +0.000 A 
ATOM      6  C   UNL     1      -0.330  11.054  20.313  0.00  0.00    +0.000 A 
ATOM      7  C   UNL     1      -0.288  10.051  21.285  0.00  0.00    +0.000 A 
ATOM      8  C   UNL     1       0.530   8.928  21.109  0.00  0.00    +0.000 A 
ATOM      9  C   UNL     1       1.270   8.740  19.956  0.00  0.00    +0.000 A 
ATOM     10  N   UNL     1       2.023   7.633  19.848  0.00  0.00    +0.000 NA
ENDROOT
BRANCH   1  12
ATOM     11  O   UNL     1       4.657   6.222  18.030  0.00  0.00    +0.000 OA
ATOM     12  C   UNL     1       3.586   6.224  18.645  0.00  0.00    +0.000 C 
ATOM     13  N   UNL     1       3.108   5.135  19.335  0.00  0.00    +0.000 N 
ATOM     14  H   UNL     1       2.162   5.217  19.698  0.00  0.00    +0.000 HD
BRANCH  13  15
ATOM     15  C   UNL     1       3.799   3.846  19.444  0.00  0.00    +0.000 C 
ATOM     16  C   UNL     1       3.800   3.130  18.088  0.00  0.00    +0.000 C 
ATOM     17  C   UNL     1       2.384   2.709  17.683  0.00  0.00    +0.000 C 
ATOM     18  N   UNL     1       1.709   1.894  18.697  0.00  0.00    +0.000 NA
ATOM     19  C   UNL     1       1.758   2.502  20.039  0.00  0.00    +0.000 C 
ATOM     20  C   UNL     1       3.162   2.920  20.486  0.00  0.00    +0.000 C 
ATOM     21  F   UNL     1       3.933   1.796  20.607  0.00  0.00    +0.000 F 
ATOM     22  H   UNL     1       2.180   0.987  18.748  0.00  0.00    +0.000 HD
ENDBRANCH  13  15
ENDBRANCH   1  12
BRANCH   6  23
ATOM     23  O   UNL     1      -1.092  12.203  20.405  0.00  0.00    +0.000 OA
BRANCH  23  24
ATOM     24  C   UNL     1      -2.370  12.168  19.872  0.00  0.00    +0.000 A 
ATOM     25  C   UNL     1      -3.399  12.832  20.535  0.00  0.00    +0.000 A 
ATOM     26  C   UNL     1      -4.689  12.723  20.013  0.00  0.00    +0.000 A 
ATOM     27  C   UNL     1      -4.912  11.985  18.849  0.00  0.00    +0.000 A 
ATOM     28  C   UNL     1      -3.810  11.395  18.244  0.00  0.00    +0.000 A 
ATOM     29  N   UNL     1      -2.566  11.450  18.743  0.00  0.00    +0.000 NA
BRANCH  27  30
ATOM     30  C   UNL     1      -6.267  11.795  18.245  0.00  0.00    +0.000 C 
ATOM     31  F   UNL     1      -6.394  12.399  17.032  0.00  0.00    +0.000 F 
ATOM     32  F   UNL     1      -6.572  10.484  18.044  0.00  0.00    +0.000 F 
ATOM     33  F   UNL     1      -7.271  12.296  19.017  0.00  0.00    +0.000 F 
ENDBRANCH  27  30
ENDBRANCH  23  24
ENDBRANCH   6  23
TORSDOF 5
ENDMDL
MODEL 9
REMARK VINA RESULT:      -8.5      2.011      2.958
REMARK  Name = 
REMARK  5 active torsions:
REMARK  status: ('A' for Active; 'I' for Inactive)
REMARK    1  A    between atoms: C_2  and  C_11
REMARK    2  A    between atoms: N_3  and  C_4
REMARK    3  A    between atoms: C_16  and  O_17
REMARK    4  A    between atoms: O_17  and  C_18
REMARK    5  A    between atoms: C_21  and  C_22
REMARK                            x       y       z     vdW  Elec       q    Type
REMARK                         _______ _______ _______ _____ _____    ______ ____
ROOT
ATOM      1  C   UNL     1       2.259   7.370  19.544  0.00  0.00    +0.000 A 
ATOM      2  C   UNL     1       1.643   7.236  20.778  0.00  0.00    +0.000 A 
ATOM      3  C   UNL     1       0.736   8.216  21.176  0.00  0.00    +0.000 A 
ATOM      4  C   UNL     1       0.484   9.314  20.341  0.00  0.00    +0.000 A 
ATOM      5  C   UNL     1      -0.429  10.330  20.690  0.00  0.00    +0.000 A 
ATOM      6  C   UNL     1      -0.636  11.420  19.847  0.00  0.00    +0.000 A 
ATOM      7  C   UNL     1       0.118  11.513  18.674  0.00  0.00    +0.000 A 
ATOM      8  C   UNL     1       0.995  10.483  18.312  0.00  0.00    +0.000 A 
ATOM      9  C   UNL     1       1.192   9.378  19.121  0.00  0.00    +0.000 A 
ATOM     10  N   UNL     1       2.058   8.433  18.718  0.00  0.00    +0.000 NA
ENDROOT
BRANCH   1  12
ATOM     11  O   UNL     1       4.063   6.594  18.181  0.00  0.00    +0.000 OA
ATOM     12  C   UNL     1       3.200   6.317  19.021  0.00  0.00    +0.000 C 
ATOM     13  N   UNL     1       3.036   5.059  19.549  0.00  0.00    +0.000 N 
ATOM     14  H   UNL     1       2.219   4.926  20.140  0.00  0.00    +0.000 HD
BRANCH  13  15
ATOM     15  C   UNL     1       3.856   3.893  19.203  0.00  0.00    +0.000 C 
ATOM     16  C   UNL     1       3.563   3.449  17.765  0.00  0.00    +0.000 C 
ATOM     17  C   UNL     1       2.139   2.899  17.634  0.00  0.00    +0.000 C 
ATOM     18  N   UNL     1       1.848   1.816  18.579  0.00  0.00    +0.000 NA
ATOM     19  C   UNL     1       2.196   2.165  19.968  0.00  0.00    +0.000 C 
ATOM     20  C   UNL     1       3.619   2.703  20.141  0.00  0.00    +0.000 C 
ATOM     21  F   UNL     1       4.502   1.708  19.821  0.00  0.00    +0.000 F 
ATOM     22  H   UNL     1       2.403   0.999  18.314  0.00  0.00    +0.000 HD
ENDBRANCH  13  15
ENDBRANCH   1  12
BRANCH   6  23
ATOM     23  O   UNL     1      -1.536  12.376  20.277  0.00  0.00    +0.000 OA
BRANCH  23  24
ATOM     24  C   UNL     1      -2.842  12.275  19.825  0.00  0.00    +0.000 A 
ATOM     25  C   UNL     1      -3.870  12.800  20.604  0.00  0.00    +0.000 A 
ATOM     26  C   UNL     1      -5.182  12.624  20.158  0.00  0.00    +0.000 A 
ATOM     27  C   UNL     1      -5.428  11.960  18.955  0.00  0.00    +0.000 A 
ATOM     28  C   UNL     1      -4.327  11.511  18.235  0.00  0.00    +0.000 A 
ATOM     29  N   UNL     1      -3.060  11.631  18.657  0.00  0.00    +0.000 NA
BRANCH  27  30
ATOM     30  C   UNL     1      -6.802  11.704  18.424  0.00  0.00    +0.000 C 
ATOM     31  F   UNL     1      -7.068  10.380  18.263  0.00  0.00    +0.000 F 
ATOM     32  F   UNL     1      -7.777  12.186  19.242  0.00  0.00    +0.000 F 
ATOM     33  F   UNL     1      -7.020  12.278  17.208  0.00  0.00    +0.000 F 
ENDBRANCH  27  30
ENDBRANCH  23  24
ENDBRANCH   6  23
TORSDOF 5
ENDMDL
