MODEL 1
REMARK VINA RESULT:      -5.7      0.000      0.000
REMARK  Name = 
REMARK  7 active torsions:
REMARK  status: ('A' for Active; 'I' for Inactive)
REMARK    1  A    between atoms: C_1  and  N_2
REMARK    2  A    between atoms: N_2  and  C_3
REMARK    3  A    between atoms: C_4  and  C_6
REMARK    4  A    between atoms: C_12  and  C_13
REMARK    5  A    between atoms: C_13  and  C_14
REMARK    6  A    between atoms: C_13  and  C_15
REMARK    7  A    between atoms: C_13  and  C_16
REMARK                            x       y       z     vdW  Elec       q    Type
REMARK                         _______ _______ _______ _____ _____    ______ ____
ROOT
ATOM      1  C   UNL     1       4.809   3.933  16.903  0.00  0.00    +0.000 C 
ATOM      2  C   UNL     1       6.137   3.655  16.127  0.00  0.00    +0.000 C 
ATOM      3  C   UNL     1       6.262   4.767  15.069  0.00  0.00    +0.000 C 
ATOM      4  C   UNL     1       5.435   5.822  15.664  0.00  0.00    +0.000 A 
ATOM      5  N   UNL     1       5.194   7.074  15.412  0.00  0.00    +0.000 NA
ATOM      6  N   UNL     1       4.232   7.464  16.319  0.00  0.00    +0.000 NA
ATOM      7  C   UNL     1       3.896   6.435  17.094  0.00  0.00    +0.000 A 
ATOM      8  N   UNL     1       4.666   5.380  16.707  0.00  0.00    +0.000 N 
ENDROOT
BRANCH   1  12
ATOM      9  C   UNL     1       4.333   2.190  20.289  0.00  0.00    +0.000 C 
ATOM     10  N   UNL     1       4.085   2.603  18.915  0.00  0.00    +0.000 N 
ATOM     11  C   UNL     1       3.063   1.861  18.186  0.00  0.00    +0.000 C 
ATOM     12  C   UNL     1       4.989   3.501  18.349  0.00  0.00    +0.000 C 
ATOM     13  O   UNL     1       5.947   3.933  19.004  0.00  0.00    +0.000 OA
ENDBRANCH   1  12
BRANCH   7  14
ATOM     14  C   UNL     1       2.830   6.502  18.167  0.00  0.00    +0.000 C 
ATOM     15  C   UNL     1       2.158   7.899  18.142  0.00  0.00    +0.000 C 
ATOM     16  C   UNL     1       1.739   5.454  17.920  0.00  0.00    +0.000 C 
ATOM     17  C   UNL     1       3.425   6.331  19.571  0.00  0.00    +0.000 C 
ENDBRANCH   7  14
TORSDOF 2
ENDMDL
MODEL 2
REMARK VINA RESULT:      -5.7      0.040      1.047
REMARK  Name = 
REMARK  7 active torsions:
REMARK  status: ('A' for Active; 'I' for Inactive)
REMARK    1  A    between atoms: C_1  and  N_2
REMARK    2  A    between atoms: N_2  and  C_3
REMARK    3  A    between atoms: C_4  and  C_6
REMARK    4  A    between atoms: C_12  and  C_13
REMARK    5  A    between atoms: C_13  and  C_14
REMARK    6  A    between atoms: C_13  and  C_15
REMARK    7  A    between atoms: C_13  and  C_16
REMARK                            x       y       z     vdW  Elec       q    Type
REMARK                         _______ _______ _______ _____ _____    ______ ____
ROOT
ATOM      1  C   UNL     1       4.799   3.927  16.884  0.00  0.00    +0.000 C 
ATOM      2  C   UNL     1       6.122   3.634  16.108  0.00  0.00    +0.000 C 
ATOM      3  C   UNL     1       6.258   4.742  15.047  0.00  0.00    +0.000 C 
ATOM      4  C   UNL     1       5.441   5.807  15.641  0.00  0.00    +0.000 A 
ATOM      5  N   UNL     1       5.213   7.061  15.387  0.00  0.00    +0.000 NA
ATOM      6  N   UNL     1       4.256   7.462  16.294  0.00  0.00    +0.000 NA
ATOM      7  C   UNL     1       3.911   6.439  17.072  0.00  0.00    +0.000 A 
ATOM      8  N   UNL     1       4.669   5.375  16.686  0.00  0.00    +0.000 N 
ENDROOT
BRANCH   1  12
ATOM      9  C   UNL     1       4.310   2.195  20.275  0.00  0.00    +0.000 C 
ATOM     10  N   UNL     1       4.064   2.607  18.901  0.00  0.00    +0.000 N 
ATOM     11  C   UNL     1       3.035   1.873  18.174  0.00  0.00    +0.000 C 
ATOM     12  C   UNL     1       4.976   3.496  18.332  0.00  0.00    +0.000 C 
ATOM     13  O   UNL     1       5.939   3.921  18.985  0.00  0.00    +0.000 OA
ENDBRANCH   1  12
BRANCH   7  14
ATOM     14  C   UNL     1       2.846   6.518  18.146  0.00  0.00    +0.000 C 
ATOM     15  C   UNL     1       3.496   6.290  19.535  0.00  0.00    +0.000 C 
ATOM     16  C   UNL     1       2.184   7.900  18.160  0.00  0.00    +0.000 C 
ATOM     17  C   UNL     1       1.786   5.421  17.977  0.00  0.00    +0.000 C 
ENDBRANCH   7  14
TORSDOF 2
ENDMDL
MODEL 3
REMARK VINA RESULT:      -5.7      0.058      1.048
REMARK  Name = 
REMARK  7 active torsions:
REMARK  status: ('A' for Active; 'I' for Inactive)
REMARK    1  A    between atoms: C_1  and  N_2
REMARK    2  A    between atoms: N_2  and  C_3
REMARK    3  A    between atoms: C_4  and  C_6
REMARK    4  A    between atoms: C_12  and  C_13
REMARK    5  A    between atoms: C_13  and  C_14
REMARK    6  A    between atoms: C_13  and  C_15
REMARK    7  A    between atoms: C_13  and  C_16
REMARK                            x       y       z     vdW  Elec       q    Type
REMARK                         _______ _______ _______ _____ _____    ______ ____
ROOT
ATOM      1  C   UNL     1       4.768   3.923  16.879  0.00  0.00    +0.000 C 
ATOM      2  C   UNL     1       6.073   3.606  16.081  0.00  0.00    +0.000 C 
ATOM      3  C   UNL     1       6.212   4.712  15.018  0.00  0.00    +0.000 C 
ATOM      4  C   UNL     1       5.424   5.790  15.625  0.00  0.00    +0.000 A 
ATOM      5  N   UNL     1       5.214   7.049  15.374  0.00  0.00    +0.000 NA
ATOM      6  N   UNL     1       4.281   7.467  16.296  0.00  0.00    +0.000 NA
ATOM      7  C   UNL     1       3.930   6.450  17.080  0.00  0.00    +0.000 A 
ATOM      8  N   UNL     1       4.662   5.373  16.682  0.00  0.00    +0.000 N 
ENDROOT
BRANCH   1  12
ATOM      9  C   UNL     1       4.310   2.193  20.275  0.00  0.00    +0.000 C 
ATOM     10  N   UNL     1       4.049   2.609  18.905  0.00  0.00    +0.000 N 
ATOM     11  C   UNL     1       3.002   1.886  18.192  0.00  0.00    +0.000 C 
ATOM     12  C   UNL     1       4.962   3.489  18.324  0.00  0.00    +0.000 C 
ATOM     13  O   UNL     1       5.938   3.904  18.963  0.00  0.00    +0.000 OA
ENDBRANCH   1  12
BRANCH   7  14
ATOM     14  C   UNL     1       2.884   6.549  18.172  0.00  0.00    +0.000 C 
ATOM     15  C   UNL     1       1.792   5.474  17.940  0.00  0.00    +0.000 C 
ATOM     16  C   UNL     1       3.506   6.295  19.550  0.00  0.00    +0.000 C 
ATOM     17  C   UNL     1       2.169   7.907  18.152  0.00  0.00    +0.000 C 
ENDBRANCH   7  14
TORSDOF 2
ENDMDL
MODEL 4
REMARK VINA RESULT:      -5.6      1.931      4.319
REMARK  Name = 
REMARK  7 active torsions:
REMARK  status: ('A' for Active; 'I' for Inactive)
REMARK    1  A    between atoms: C_1  and  N_2
REMARK    2  A    between atoms: N_2  and  C_3
REMARK    3  A    between atoms: C_4  and  C_6
REMARK    4  A    between atoms: C_12  and  C_13
REMARK    5  A    between atoms: C_13  and  C_14
REMARK    6  A    between atoms: C_13  and  C_15
REMARK    7  A    between atoms: C_13  and  C_16
REMARK                            x       y       z     vdW  Elec       q    Type
REMARK                         _______ _______ _______ _____ _____    ______ ____
ROOT
ATOM      1  C   UNL     1       3.885   5.804  17.553  0.00  0.00    +0.000 C 
ATOM      2  C   UNL     1       3.932   7.359  17.694  0.00  0.00    +0.000 C 
ATOM      3  C   UNL     1       2.677   7.761  18.493  0.00  0.00    +0.000 C 
ATOM      4  C   UNL     1       2.383   6.513  19.207  0.00  0.00    +0.000 A 
ATOM      5  N   UNL     1       1.571   6.148  20.154  0.00  0.00    +0.000 NA
ATOM      6  N   UNL     1       1.741   4.788  20.295  0.00  0.00    +0.000 NA
ATOM      7  C   UNL     1       2.642   4.351  19.418  0.00  0.00    +0.000 A 
ATOM      8  N   UNL     1       3.081   5.438  18.726  0.00  0.00    +0.000 N 
ENDROOT
BRANCH   1  12
ATOM      9  C   UNL     1       7.273   4.385  16.440  0.00  0.00    +0.000 C 
ATOM     10  N   UNL     1       5.893   4.843  16.374  0.00  0.00    +0.000 N 
ATOM     11  C   UNL     1       5.335   5.041  15.042  0.00  0.00    +0.000 C 
ATOM     12  C   UNL     1       5.308   5.270  17.566  0.00  0.00    +0.000 C 
ATOM     13  O   UNL     1       5.942   5.238  18.630  0.00  0.00    +0.000 OA
ENDBRANCH   1  12
BRANCH   7  14
ATOM     14  C   UNL     1       3.033   2.895  19.266  0.00  0.00    +0.000 C 
ATOM     15  C   UNL     1       1.961   2.000  19.938  0.00  0.00    +0.000 C 
ATOM     16  C   UNL     1       3.111   2.501  17.787  0.00  0.00    +0.000 C 
ATOM     17  C   UNL     1       4.361   2.587  19.970  0.00  0.00    +0.000 C 
ENDBRANCH   7  14
TORSDOF 2
ENDMDL
MODEL 5
REMARK VINA RESULT:      -5.6      1.969      3.907
REMARK  Name = 
REMARK  7 active torsions:
REMARK  status: ('A' for Active; 'I' for Inactive)
REMARK    1  A    between atoms: C_1  and  N_2
REMARK    2  A    between atoms: N_2  and  C_3
REMARK    3  A    between atoms: C_4  and  C_6
REMARK    4  A    between atoms: C_12  and  C_13
REMARK    5  A    between atoms: C_13  and  C_14
REMARK    6  A    between atoms: C_13  and  C_15
REMARK    7  A    between atoms: C_13  and  C_16
REMARK                            x       y       z     vdW  Elec       q    Type
REMARK                         _______ _______ _______ _____ _____    ______ ____
ROOT
ATOM      1  C   UNL     1       2.963   4.626  19.866  0.00  0.00    +0.000 C 
ATOM      2  C   UNL     1       1.634   4.960  20.615  0.00  0.00    +0.000 C 
ATOM      3  C   UNL     1       1.489   6.494  20.580  0.00  0.00    +0.000 C 
ATOM      4  C   UNL     1       2.309   6.830  19.411  0.00  0.00    +0.000 A 
ATOM      5  N   UNL     1       2.535   7.897  18.703  0.00  0.00    +0.000 NA
ATOM      6  N   UNL     1       3.497   7.545  17.783  0.00  0.00    +0.000 NA
ATOM      7  C   UNL     1       3.849   6.273  17.959  0.00  0.00    +0.000 A 
ATOM      8  N   UNL     1       3.089   5.790  18.981  0.00  0.00    +0.000 N 
ENDROOT
BRANCH   1  12
ATOM      9  C   UNL     1       3.514   1.027  18.652  0.00  0.00    +0.000 C 
ATOM     10  N   UNL     1       3.749   2.294  19.328  0.00  0.00    +0.000 N 
ATOM     11  C   UNL     1       4.822   2.317  20.316  0.00  0.00    +0.000 C 
ATOM     12  C   UNL     1       2.796   3.296  19.147  0.00  0.00    +0.000 C 
ATOM     13  O   UNL     1       1.807   3.108  18.426  0.00  0.00    +0.000 OA
ENDBRANCH   1  12
BRANCH   7  14
ATOM     14  C   UNL     1       4.922   5.575  17.149  0.00  0.00    +0.000 C 
ATOM     15  C   UNL     1       5.459   6.541  16.062  0.00  0.00    +0.000 C 
ATOM     16  C   UNL     1       6.102   5.169  18.039  0.00  0.00    +0.000 C 
ATOM     17  C   UNL     1       4.367   4.351  16.408  0.00  0.00    +0.000 C 
ENDBRANCH   7  14
TORSDOF 2
ENDMDL
MODEL 6
REMARK VINA RESULT:      -5.5      1.922      4.386
REMARK  Name = 
REMARK  7 active torsions:
REMARK  status: ('A' for Active; 'I' for Inactive)
REMARK    1  A    between atoms: C_1  and  N_2
REMARK    2  A    between atoms: N_2  and  C_3
REMARK    3  A    between atoms: C_4  and  C_6
REMARK    4  A    between atoms: C_12  and  C_13
REMARK    5  A    between atoms: C_13  and  C_14
REMARK    6  A    between atoms: C_13  and  C_15
REMARK    7  A    between atoms: C_13  and  C_16
REMARK                            x       y       z     vdW  Elec       q    Type
REMARK                         _______ _______ _______ _____ _____    ______ ____
ROOT
ATOM      1  C   UNL     1       3.860   5.802  17.581  0.00  0.00    +0.000 C 
ATOM      2  C   UNL     1       3.890   7.355  17.745  0.00  0.00    +0.000 C 
ATOM      3  C   UNL     1       2.633   7.730  18.554  0.00  0.00    +0.000 C 
ATOM      4  C   UNL     1       2.355   6.468  19.249  0.00  0.00    +0.000 A 
ATOM      5  N   UNL     1       1.550   6.079  20.192  0.00  0.00    +0.000 NA
ATOM      6  N   UNL     1       1.735   4.720  20.312  0.00  0.00    +0.000 NA
ATOM      7  C   UNL     1       2.639   4.306  19.426  0.00  0.00    +0.000 A 
ATOM      8  N   UNL     1       3.063   5.409  18.749  0.00  0.00    +0.000 N 
ENDROOT
BRANCH   1  12
ATOM      9  C   UNL     1       7.249   4.405  16.441  0.00  0.00    +0.000 C 
ATOM     10  N   UNL     1       5.863   4.847  16.388  0.00  0.00    +0.000 N 
ATOM     11  C   UNL     1       5.284   5.020  15.060  0.00  0.00    +0.000 C 
ATOM     12  C   UNL     1       5.290   5.283  17.582  0.00  0.00    +0.000 C 
ATOM     13  O   UNL     1       5.937   5.273  18.637  0.00  0.00    +0.000 OA
ENDBRANCH   1  12
BRANCH   7  14
ATOM     14  C   UNL     1       3.046   2.858  19.251  0.00  0.00    +0.000 C 
ATOM     15  C   UNL     1       3.213   2.547  17.741  0.00  0.00    +0.000 C 
ATOM     16  C   UNL     1       4.388   2.579  19.937  0.00  0.00    +0.000 C 
ATOM     17  C   UNL     1       1.970   1.898  19.775  0.00  0.00    +0.000 C 
ENDBRANCH   7  14
TORSDOF 2
ENDMDL
MODEL 7
REMARK VINA RESULT:      -5.5      1.963      3.897
REMARK  Name = 
REMARK  7 active torsions:
REMARK  status: ('A' for Active; 'I' for Inactive)
REMARK    1  A    between atoms: C_1  and  N_2
REMARK    2  A    between atoms: N_2  and  C_3
REMARK    3  A    between atoms: C_4  and  C_6
REMARK    4  A    between atoms: C_12  and  C_13
REMARK    5  A    between atoms: C_13  and  C_14
REMARK    6  A    between atoms: C_13  and  C_15
REMARK    7  A    between atoms: C_13  and  C_16
REMARK                            x       y       z     vdW  Elec       q    Type
REMARK                         _______ _______ _______ _____ _____    ______ ____
ROOT
ATOM      1  C   UNL     1       2.967   4.631  19.868  0.00  0.00    +0.000 C 
ATOM      2  C   UNL     1       1.637   4.958  20.620  0.00  0.00    +0.000 C 
ATOM      3  C   UNL     1       1.487   6.491  20.590  0.00  0.00    +0.000 C 
ATOM      4  C   UNL     1       2.305   6.835  19.422  0.00  0.00    +0.000 A 
ATOM      5  N   UNL     1       2.527   7.906  18.719  0.00  0.00    +0.000 NA
ATOM      6  N   UNL     1       3.490   7.560  17.796  0.00  0.00    +0.000 NA
ATOM      7  C   UNL     1       3.847   6.289  17.968  0.00  0.00    +0.000 A 
ATOM      8  N   UNL     1       3.089   5.800  18.988  0.00  0.00    +0.000 N 
ENDROOT
BRANCH   1  12
ATOM      9  C   UNL     1       3.521   1.033  18.654  0.00  0.00    +0.000 C 
ATOM     10  N   UNL     1       3.752   2.298  19.336  0.00  0.00    +0.000 N 
ATOM     11  C   UNL     1       4.812   2.314  20.337  0.00  0.00    +0.000 C 
ATOM     12  C   UNL     1       2.805   3.304  19.145  0.00  0.00    +0.000 C 
ATOM     13  O   UNL     1       1.825   3.121  18.410  0.00  0.00    +0.000 OA
ENDBRANCH   1  12
BRANCH   7  14
ATOM     14  C   UNL     1       4.922   5.598  17.155  0.00  0.00    +0.000 C 
ATOM     15  C   UNL     1       4.310   4.376  16.423  0.00  0.00    +0.000 C 
ATOM     16  C   UNL     1       5.495   6.542  16.091  0.00  0.00    +0.000 C 
ATOM     17  C   UNL     1       6.046   5.054  18.046  0.00  0.00    +0.000 C 
ENDBRANCH   7  14
TORSDOF 2
ENDMDL
MODEL 8
REMARK VINA RESULT:      -5.5      1.972      3.902
REMARK  Name = 
REMARK  7 active torsions:
REMARK  status: ('A' for Active; 'I' for Inactive)
REMARK    1  A    between atoms: C_1  and  N_2
REMARK    2  A    between atoms: N_2  and  C_3
REMARK    3  A    between atoms: C_4  and  C_6
REMARK    4  A    between atoms: C_12  and  C_13
REMARK    5  A    between atoms: C_13  and  C_14
REMARK    6  A    between atoms: C_13  and  C_15
REMARK    7  A    between atoms: C_13  and  C_16
REMARK                            x       y       z     vdW  Elec       q    Type
REMARK                         _______ _______ _______ _____ _____    ______ ____
ROOT
ATOM      1  C   UNL     1       2.957   4.612  19.873  0.00  0.00    +0.000 C 
ATOM      2  C   UNL     1       1.612   4.935  20.599  0.00  0.00    +0.000 C 
ATOM      3  C   UNL     1       1.463   6.468  20.579  0.00  0.00    +0.000 C 
ATOM      4  C   UNL     1       2.306   6.820  19.430  0.00  0.00    +0.000 A 
ATOM      5  N   UNL     1       2.542   7.896  18.740  0.00  0.00    +0.000 NA
ATOM      6  N   UNL     1       3.524   7.557  17.835  0.00  0.00    +0.000 NA
ATOM      7  C   UNL     1       3.876   6.284  18.004  0.00  0.00    +0.000 A 
ATOM      8  N   UNL     1       3.097   5.788  19.005  0.00  0.00    +0.000 N 
ENDROOT
BRANCH   1  12
ATOM      9  C   UNL     1       3.533   1.023  18.641  0.00  0.00    +0.000 C 
ATOM     10  N   UNL     1       3.751   2.283  19.338  0.00  0.00    +0.000 N 
ATOM     11  C   UNL     1       4.790   2.291  20.360  0.00  0.00    +0.000 C 
ATOM     12  C   UNL     1       2.809   3.291  19.136  0.00  0.00    +0.000 C 
ATOM     13  O   UNL     1       1.843   3.115  18.380  0.00  0.00    +0.000 OA
ENDBRANCH   1  12
BRANCH   7  14
ATOM     14  C   UNL     1       4.967   5.599  17.208  0.00  0.00    +0.000 C 
ATOM     15  C   UNL     1       6.058   5.069  18.174  0.00  0.00    +0.000 C 
ATOM     16  C   UNL     1       4.408   4.401  16.432  0.00  0.00    +0.000 C 
ATOM     17  C   UNL     1       5.669   6.572  16.251  0.00  0.00    +0.000 C 
ENDBRANCH   7  14
TORSDOF 2
ENDMDL
MODEL 9
REMARK VINA RESULT:      -5.5      2.570      4.234
REMARK  Name = 
REMARK  7 active torsions:
REMARK  status: ('A' for Active; 'I' for Inactive)
REMARK    1  A    between atoms: C_1  and  N_2
REMARK    2  A    between atoms: N_2  and  C_3
REMARK    3  A    between atoms: C_4  and  C_6
REMARK    4  A    between atoms: C_12  and  C_13
REMARK    5  A    between atoms: C_13  and  C_14
REMARK    6  A    between atoms: C_13  and  C_15
REMARK    7  A    between atoms: C_13  and  C_16
REMARK                            x       y       z     vdW  Elec       q    Type
REMARK                         _______ _______ _______ _____ _____    ______ ____
ROOT
ATOM      1  C   UNL     1       6.074   6.831  17.157  0.00  0.00    +0.000 C 
ATOM      2  C   UNL     1       7.593   7.196  17.167  0.00  0.00    +0.000 C 
ATOM      3  C   UNL     1       8.103   6.897  18.590  0.00  0.00    +0.000 C 
ATOM      4  C   UNL     1       7.117   5.911  19.044  0.00  0.00    +0.000 A 
ATOM      5  N   UNL     1       6.989   5.121  20.069  0.00  0.00    +0.000 NA
ATOM      6  N   UNL     1       5.762   4.510  19.925  0.00  0.00    +0.000 NA
ATOM      7  C   UNL     1       5.162   4.953  18.823  0.00  0.00    +0.000 A 
ATOM      8  N   UNL     1       6.017   5.834  18.233  0.00  0.00    +0.000 N 
ENDROOT
BRANCH   1  12
ATOM      9  C   UNL     1       5.914   4.672  13.988  0.00  0.00    +0.000 C 
ATOM     10  N   UNL     1       6.338   5.158  15.294  0.00  0.00    +0.000 N 
ATOM     11  C   UNL     1       7.199   4.273  16.070  0.00  0.00    +0.000 C 
ATOM     12  C   UNL     1       5.708   6.303  15.780  0.00  0.00    +0.000 C 
ATOM     13  O   UNL     1       4.841   6.882  15.111  0.00  0.00    +0.000 OA
ENDBRANCH   1  12
BRANCH   7  14
ATOM     14  C   UNL     1       3.775   4.526  18.389  0.00  0.00    +0.000 C 
ATOM     15  C   UNL     1       3.091   3.746  19.541  0.00  0.00    +0.000 C 
ATOM     16  C   UNL     1       2.903   5.744  18.066  0.00  0.00    +0.000 C 
ATOM     17  C   UNL     1       3.824   3.572  17.188  0.00  0.00    +0.000 C 
ENDBRANCH   7  14
TORSDOF 2
ENDMDL
