MODEL 1
REMARK VINA RESULT:      -6.3      0.000      0.000
REMARK  Name = 
REMARK  6 active torsions:
REMARK  status: ('A' for Active; 'I' for Inactive)
REMARK    1  A    between atoms: C_1  and  S_2
REMARK    2  A    between atoms: S_2  and  N_5
REMARK    3  A    between atoms: N_5  and  C_6
REMARK    4  A    between atoms: C_6  and  C_7
REMARK    5  A    between atoms: C_7  and  C_8
REMARK    6  A    between atoms: C_7  and  N_13
REMARK                            x       y       z     vdW  Elec       q    Type
REMARK                         _______ _______ _______ _____ _____    ______ ____
ROOT
ATOM      1  C   UNL     1       3.801   4.815  19.544  0.00  0.00    +0.000 C 
ENDROOT
BRANCH   1   2
ATOM      2  C   UNL     1       3.255   6.144  19.045  0.00  0.00    +0.000 A 
ATOM      3  C   UNL     1       3.641   6.764  17.805  0.00  0.00    +0.000 A 
ATOM      4  C   UNL     1       3.038   7.986  17.609  0.00  0.00    +0.000 A 
ATOM      5  S   UNL     1       1.982   8.392  18.888  0.00  0.00    +0.000 S 
ATOM      6  C   UNL     1       2.346   6.943  19.719  0.00  0.00    +0.000 A 
ENDBRANCH   1   2
BRANCH   1   7
ATOM      7  N   UNL     1       2.677   3.945  19.919  0.00  0.00    +0.000 N 
ATOM      8  C   UNL     1       1.792   3.335  19.069  0.00  0.00    +0.000 A 
ATOM      9  C   UNL     1       0.924   2.622  19.864  0.00  0.00    +0.000 A 
ATOM     10  C   UNL     1       1.364   2.861  21.177  0.00  0.00    +0.000 A 
ATOM     11  N   UNL     1       2.435   3.658  21.218  0.00  0.00    +0.000 NA
ENDBRANCH   1   7
BRANCH   1  12
ATOM     12  C   UNL     1       4.743   4.109  18.546  0.00  0.00    +0.000 C 
BRANCH  12  13
ATOM     13  N   UNL     1       6.196   4.183  18.954  0.00  0.00    +0.000 NA
ATOM     14  H   UNL     1       6.287   4.775  19.786  0.00  0.00    +0.000 HD
BRANCH  13  16
ATOM     15  C   UNL     1       6.240   4.331  16.257  0.00  0.00    +0.000 C 
ATOM     16  S   UNL     1       7.158   4.819  17.698  0.00  0.00    +0.000 S 
ATOM     17  O   UNL     1       8.397   4.076  17.718  0.00  0.00    +0.000 OA
ATOM     18  O   UNL     1       7.125   6.260  17.810  0.00  0.00    +0.000 OA
ENDBRANCH  13  16
ENDBRANCH  12  13
ENDBRANCH   1  12
TORSDOF 5
ENDMDL
MODEL 2
REMARK VINA RESULT:      -6.2      1.605      1.739
REMARK  Name = 
REMARK  6 active torsions:
REMARK  status: ('A' for Active; 'I' for Inactive)
REMARK    1  A    between atoms: C_1  and  S_2
REMARK    2  A    between atoms: S_2  and  N_5
REMARK    3  A    between atoms: N_5  and  C_6
REMARK    4  A    between atoms: C_6  and  C_7
REMARK    5  A    between atoms: C_7  and  C_8
REMARK    6  A    between atoms: C_7  and  N_13
REMARK                            x       y       z     vdW  Elec       q    Type
REMARK                         _______ _______ _______ _____ _____    ______ ____
ROOT
ATOM      1  C   UNL     1       4.162   4.929  19.483  0.00  0.00    +0.000 C 
ENDROOT
BRANCH   1   2
ATOM      2  C   UNL     1       3.425   6.176  19.018  0.00  0.00    +0.000 A 
ATOM      3  C   UNL     1       3.699   6.866  17.785  0.00  0.00    +0.000 A 
ATOM      4  C   UNL     1       2.925   7.993  17.621  0.00  0.00    +0.000 A 
ATOM      5  S   UNL     1       1.843   8.222  18.922  0.00  0.00    +0.000 S 
ATOM      6  C   UNL     1       2.422   6.825  19.719  0.00  0.00    +0.000 A 
ENDBRANCH   1   2
BRANCH   1   7
ATOM      7  N   UNL     1       3.489   3.742  18.937  0.00  0.00    +0.000 N 
ATOM      8  C   UNL     1       2.361   3.723  18.159  0.00  0.00    +0.000 A 
ATOM      9  C   UNL     1       2.107   2.399  17.883  0.00  0.00    +0.000 A 
ATOM     10  C   UNL     1       3.131   1.695  18.536  0.00  0.00    +0.000 A 
ATOM     11  N   UNL     1       3.982   2.505  19.172  0.00  0.00    +0.000 NA
ENDBRANCH   1   7
BRANCH   1  12
ATOM     12  C   UNL     1       5.667   4.925  19.139  0.00  0.00    +0.000 C 
BRANCH  12  13
ATOM     13  N   UNL     1       5.973   4.200  17.850  0.00  0.00    +0.000 NA
ATOM     14  H   UNL     1       6.037   3.193  18.031  0.00  0.00    +0.000 HD
BRANCH  13  16
ATOM     15  C   UNL     1       7.422   6.467  17.613  0.00  0.00    +0.000 C 
ATOM     16  S   UNL     1       7.437   4.747  17.168  0.00  0.00    +0.000 S 
ATOM     17  O   UNL     1       7.280   4.649  15.734  0.00  0.00    +0.000 OA
ATOM     18  O   UNL     1       8.517   4.089  17.867  0.00  0.00    +0.000 OA
ENDBRANCH  13  16
ENDBRANCH  12  13
ENDBRANCH   1  12
TORSDOF 5
ENDMDL
MODEL 3
REMARK VINA RESULT:      -6.2      1.058      1.109
REMARK  Name = 
REMARK  6 active torsions:
REMARK  status: ('A' for Active; 'I' for Inactive)
REMARK    1  A    between atoms: C_1  and  S_2
REMARK    2  A    between atoms: S_2  and  N_5
REMARK    3  A    between atoms: N_5  and  C_6
REMARK    4  A    between atoms: C_6  and  C_7
REMARK    5  A    between atoms: C_7  and  C_8
REMARK    6  A    between atoms: C_7  and  N_13
REMARK                            x       y       z     vdW  Elec       q    Type
REMARK                         _______ _______ _______ _____ _____    ______ ____
ROOT
ATOM      1  C   UNL     1       3.657   5.151  18.832  0.00  0.00    +0.000 C 
ENDROOT
BRANCH   1   2
ATOM      2  C   UNL     1       2.970   6.507  18.816  0.00  0.00    +0.000 A 
ATOM      3  C   UNL     1       3.056   7.446  17.728  0.00  0.00    +0.000 A 
ATOM      4  C   UNL     1       2.382   8.620  17.981  0.00  0.00    +0.000 A 
ATOM      5  S   UNL     1       1.615   8.601  19.506  0.00  0.00    +0.000 S 
ATOM      6  C   UNL     1       2.201   7.031  19.842  0.00  0.00    +0.000 A 
ENDBRANCH   1   2
BRANCH   1   7
ATOM      7  N   UNL     1       2.649   4.104  19.052  0.00  0.00    +0.000 N 
ATOM      8  C   UNL     1       1.688   3.690  18.165  0.00  0.00    +0.000 A 
ATOM      9  C   UNL     1       0.984   2.694  18.800  0.00  0.00    +0.000 A 
ATOM     10  C   UNL     1       1.589   2.576  20.062  0.00  0.00    +0.000 A 
ATOM     11  N   UNL     1       2.608   3.425  20.220  0.00  0.00    +0.000 NA
ENDBRANCH   1   7
BRANCH   1  12
ATOM     12  C   UNL     1       4.498   4.858  17.571  0.00  0.00    +0.000 C 
BRANCH  12  13
ATOM     13  N   UNL     1       5.698   3.984  17.854  0.00  0.00    +0.000 NA
ATOM     14  H   UNL     1       5.538   3.452  18.715  0.00  0.00    +0.000 HD
BRANCH  13  16
ATOM     15  C   UNL     1       6.685   6.390  17.124  0.00  0.00    +0.000 C 
ATOM     16  S   UNL     1       7.116   4.916  18.019  0.00  0.00    +0.000 S 
ATOM     17  O   UNL     1       8.147   4.224  17.281  0.00  0.00    +0.000 OA
ATOM     18  O   UNL     1       7.263   5.243  19.419  0.00  0.00    +0.000 OA
ENDBRANCH  13  16
ENDBRANCH  12  13
ENDBRANCH   1  12
TORSDOF 5
ENDMDL
MODEL 4
REMARK VINA RESULT:      -6.1      2.563      3.865
REMARK  Name = 
REMARK  6 active torsions:
REMARK  status: ('A' for Active; 'I' for Inactive)
REMARK    1  A    between atoms: C_1  and  S_2
REMARK    2  A    between atoms: S_2  and  N_5
REMARK    3  A    between atoms: N_5  and  C_6
REMARK    4  A    between atoms: C_6  and  C_7
REMARK    5  A    between atoms: C_7  and  C_8
REMARK    6  A    between atoms: C_7  and  N_13
REMARK                            x       y       z     vdW  Elec       q    Type
REMARK                         _______ _______ _______ _____ _____    ______ ____
ROOT
ATOM      1  C   UNL     1       3.854   5.785  17.407  0.00  0.00    +0.000 C 
ENDROOT
BRANCH   1   2
ATOM      2  C   UNL     1       3.503   4.356  17.793  0.00  0.00    +0.000 A 
ATOM      3  C   UNL     1       2.272   3.700  17.439  0.00  0.00    +0.000 A 
ATOM      4  C   UNL     1       2.180   2.425  17.951  0.00  0.00    +0.000 A 
ATOM      5  S   UNL     1       3.574   1.987  18.834  0.00  0.00    +0.000 S 
ATOM      6  C   UNL     1       4.297   3.511  18.552  0.00  0.00    +0.000 A 
ENDBRANCH   1   2
BRANCH   1   7
ATOM      7  N   UNL     1       3.082   6.713  18.245  0.00  0.00    +0.000 N 
ATOM      8  C   UNL     1       2.560   7.922  17.866  0.00  0.00    +0.000 A 
ATOM      9  C   UNL     1       1.917   8.427  18.972  0.00  0.00    +0.000 A 
ATOM     10  C   UNL     1       2.105   7.456  19.970  0.00  0.00    +0.000 A 
ATOM     11  N   UNL     1       2.805   6.406  19.532  0.00  0.00    +0.000 NA
ENDBRANCH   1   7
BRANCH   1  12
ATOM     12  C   UNL     1       5.364   6.100  17.471  0.00  0.00    +0.000 C 
BRANCH  12  13
ATOM     13  N   UNL     1       5.973   6.342  16.111  0.00  0.00    +0.000 NA
ATOM     14  H   UNL     1       5.229   6.409  15.410  0.00  0.00    +0.000 HD
BRANCH  13  16
ATOM     15  C   UNL     1       5.929   3.862  15.043  0.00  0.00    +0.000 C 
ATOM     16  S   UNL     1       7.045   5.087  15.682  0.00  0.00    +0.000 S 
ATOM     17  O   UNL     1       7.604   4.589  16.918  0.00  0.00    +0.000 OA
ATOM     18  O   UNL     1       7.877   5.573  14.604  0.00  0.00    +0.000 OA
ENDBRANCH  13  16
ENDBRANCH  12  13
ENDBRANCH   1  12
TORSDOF 5
ENDMDL
MODEL 5
REMARK VINA RESULT:      -6.1      0.659      1.025
REMARK  Name = 
REMARK  6 active torsions:
REMARK  status: ('A' for Active; 'I' for Inactive)
REMARK    1  A    between atoms: C_1  and  S_2
REMARK    2  A    between atoms: S_2  and  N_5
REMARK    3  A    between atoms: N_5  and  C_6
REMARK    4  A    between atoms: C_6  and  C_7
REMARK    5  A    between atoms: C_7  and  C_8
REMARK    6  A    between atoms: C_7  and  N_13
REMARK                            x       y       z     vdW  Elec       q    Type
REMARK                         _______ _______ _______ _____ _____    ______ ____
ROOT
ATOM      1  C   UNL     1       3.584   5.110  19.432  0.00  0.00    +0.000 C 
ENDROOT
BRANCH   1   2
ATOM      2  C   UNL     1       2.956   6.456  19.102  0.00  0.00    +0.000 A 
ATOM      3  C   UNL     1       3.162   7.165  17.866  0.00  0.00    +0.000 A 
ATOM      4  C   UNL     1       2.520   8.382  17.836  0.00  0.00    +0.000 A 
ATOM      5  S   UNL     1       1.640   8.678  19.269  0.00  0.00    +0.000 S 
ATOM      6  C   UNL     1       2.134   7.187  19.944  0.00  0.00    +0.000 A 
ENDBRANCH   1   2
BRANCH   1   7
ATOM      7  N   UNL     1       2.539   4.201  19.924  0.00  0.00    +0.000 N 
ATOM      8  C   UNL     1       2.390   3.738  21.205  0.00  0.00    +0.000 A 
ATOM      9  C   UNL     1       1.279   2.926  21.194  0.00  0.00    +0.000 A 
ATOM     10  C   UNL     1       0.825   2.960  19.865  0.00  0.00    +0.000 A 
ATOM     11  N   UNL     1       1.581   3.741  19.088  0.00  0.00    +0.000 NA
ENDBRANCH   1   7
BRANCH   1  12
ATOM     12  C   UNL     1       4.366   4.479  18.261  0.00  0.00    +0.000 C 
BRANCH  12  13
ATOM     13  N   UNL     1       5.749   4.017  18.658  0.00  0.00    +0.000 NA
ATOM     14  H   UNL     1       5.867   4.124  19.670  0.00  0.00    +0.000 HD
BRANCH  13  16
ATOM     15  C   UNL     1       6.700   4.415  16.162  0.00  0.00    +0.000 C 
ATOM     16  S   UNL     1       6.954   4.911  17.849  0.00  0.00    +0.000 S 
ATOM     17  O   UNL     1       8.223   4.377  18.291  0.00  0.00    +0.000 OA
ATOM     18  O   UNL     1       6.623   6.311  17.983  0.00  0.00    +0.000 OA
ENDBRANCH  13  16
ENDBRANCH  12  13
ENDBRANCH   1  12
TORSDOF 5
ENDMDL
MODEL 6
REMARK VINA RESULT:      -6.1      1.247      1.768
REMARK  Name = 
REMARK  6 active torsions:
REMARK  status: ('A' for Active; 'I' for Inactive)
REMARK    1  A    between atoms: C_1  and  S_2
REMARK    2  A    between atoms: S_2  and  N_5
REMARK    3  A    between atoms: N_5  and  C_6
REMARK    4  A    between atoms: C_6  and  C_7
REMARK    5  A    between atoms: C_7  and  C_8
REMARK    6  A    between atoms: C_7  and  N_13
REMARK                            x       y       z     vdW  Elec       q    Type
REMARK                         _______ _______ _______ _____ _____    ______ ____
ROOT
ATOM      1  C   UNL     1       3.710   5.115  19.052  0.00  0.00    +0.000 C 
ENDROOT
BRANCH   1   2
ATOM      2  C   UNL     1       2.999   6.456  18.965  0.00  0.00    +0.000 A 
ATOM      3  C   UNL     1       2.260   7.053  20.046  0.00  0.00    +0.000 A 
ATOM      4  C   UNL     1       1.672   8.247  19.696  0.00  0.00    +0.000 A 
ATOM      5  S   UNL     1       2.020   8.684  18.083  0.00  0.00    +0.000 S 
ATOM      6  C   UNL     1       2.942   7.264  17.841  0.00  0.00    +0.000 A 
ENDBRANCH   1   2
BRANCH   1   7
ATOM      7  N   UNL     1       2.716   4.037  18.947  0.00  0.00    +0.000 N 
ATOM      8  C   UNL     1       1.488   3.990  19.553  0.00  0.00    +0.000 A 
ATOM      9  C   UNL     1       0.911   2.804  19.163  0.00  0.00    +0.000 A 
ATOM     10  C   UNL     1       1.864   2.202  18.324  0.00  0.00    +0.000 A 
ATOM     11  N   UNL     1       2.961   2.950  18.181  0.00  0.00    +0.000 NA
ENDBRANCH   1   7
BRANCH   1  12
ATOM     12  C   UNL     1       4.839   4.935  18.015  0.00  0.00    +0.000 C 
BRANCH  12  13
ATOM     13  N   UNL     1       6.023   4.171  18.560  0.00  0.00    +0.000 NA
ATOM     14  H   UNL     1       5.923   4.065  19.575  0.00  0.00    +0.000 HD
BRANCH  13  16
ATOM     15  C   UNL     1       6.906   6.502  17.522  0.00  0.00    +0.000 C 
ATOM     16  S   UNL     1       7.487   4.974  18.216  0.00  0.00    +0.000 S 
ATOM     17  O   UNL     1       8.130   4.216  17.166  0.00  0.00    +0.000 OA
ATOM     18  O   UNL     1       8.142   5.247  19.475  0.00  0.00    +0.000 OA
ENDBRANCH  13  16
ENDBRANCH  12  13
ENDBRANCH   1  12
TORSDOF 5
ENDMDL
MODEL 7
REMARK VINA RESULT:      -6.1      1.114      1.483
REMARK  Name = 
REMARK  6 active torsions:
REMARK  status: ('A' for Active; 'I' for Inactive)
REMARK    1  A    between atoms: C_1  and  S_2
REMARK    2  A    between atoms: S_2  and  N_5
REMARK    3  A    between atoms: N_5  and  C_6
REMARK    4  A    between atoms: C_6  and  C_7
REMARK    5  A    between atoms: C_7  and  C_8
REMARK    6  A    between atoms: C_7  and  N_13
REMARK                            x       y       z     vdW  Elec       q    Type
REMARK                         _______ _______ _______ _____ _____    ______ ____
ROOT
ATOM      1  C   UNL     1       3.652   5.094  18.584  0.00  0.00    +0.000 C 
ENDROOT
BRANCH   1   2
ATOM      2  C   UNL     1       2.998   6.463  18.685  0.00  0.00    +0.000 A 
ATOM      3  C   UNL     1       2.284   6.937  19.842  0.00  0.00    +0.000 A 
ATOM      4  C   UNL     1       1.747   8.192  19.662  0.00  0.00    +0.000 A 
ATOM      5  S   UNL     1       2.115   8.830  18.122  0.00  0.00    +0.000 S 
ATOM      6  C   UNL     1       2.976   7.420  17.683  0.00  0.00    +0.000 A 
ENDBRANCH   1   2
BRANCH   1   7
ATOM      7  N   UNL     1       2.664   4.063  18.936  0.00  0.00    +0.000 N 
ATOM      8  C   UNL     1       1.575   3.684  18.196  0.00  0.00    +0.000 A 
ATOM      9  C   UNL     1       0.951   2.689  18.914  0.00  0.00    +0.000 A 
ATOM     10  C   UNL     1       1.733   2.538  20.070  0.00  0.00    +0.000 A 
ATOM     11  N   UNL     1       2.783   3.364  20.087  0.00  0.00    +0.000 NA
ENDBRANCH   1   7
BRANCH   1  12
ATOM     12  C   UNL     1       4.293   4.805  17.211  0.00  0.00    +0.000 C 
BRANCH  12  13
ATOM     13  N   UNL     1       5.591   4.038  17.317  0.00  0.00    +0.000 NA
ATOM     14  H   UNL     1       5.878   3.988  18.299  0.00  0.00    +0.000 HD
BRANCH  13  16
ATOM     15  C   UNL     1       6.519   4.120  14.781  0.00  0.00    +0.000 C 
ATOM     16  S   UNL     1       6.823   4.781  16.402  0.00  0.00    +0.000 S 
ATOM     17  O   UNL     1       8.072   4.238  16.885  0.00  0.00    +0.000 OA
ATOM     18  O   UNL     1       6.560   6.202  16.388  0.00  0.00    +0.000 OA
ENDBRANCH  13  16
ENDBRANCH  12  13
ENDBRANCH   1  12
TORSDOF 5
ENDMDL
MODEL 8
REMARK VINA RESULT:      -6.0      1.362      1.382
REMARK  Name = 
REMARK  6 active torsions:
REMARK  status: ('A' for Active; 'I' for Inactive)
REMARK    1  A    between atoms: C_1  and  S_2
REMARK    2  A    between atoms: S_2  and  N_5
REMARK    3  A    between atoms: N_5  and  C_6
REMARK    4  A    between atoms: C_6  and  C_7
REMARK    5  A    between atoms: C_7  and  C_8
REMARK    6  A    between atoms: C_7  and  N_13
REMARK                            x       y       z     vdW  Elec       q    Type
REMARK                         _______ _______ _______ _____ _____    ______ ____
ROOT
ATOM      1  C   UNL     1       4.146   5.072  19.396  0.00  0.00    +0.000 C 
ENDROOT
BRANCH   1   2
ATOM      2  C   UNL     1       3.348   6.309  19.015  0.00  0.00    +0.000 A 
ATOM      3  C   UNL     1       3.528   7.044  17.791  0.00  0.00    +0.000 A 
ATOM      4  C   UNL     1       2.715   8.152  17.709  0.00  0.00    +0.000 A 
ATOM      5  S   UNL     1       1.707   8.310  19.078  0.00  0.00    +0.000 S 
ATOM      6  C   UNL     1       2.372   6.907  19.795  0.00  0.00    +0.000 A 
ENDBRANCH   1   2
BRANCH   1   7
ATOM      7  N   UNL     1       3.394   3.874  18.996  0.00  0.00    +0.000 N 
ATOM      8  C   UNL     1       2.205   3.840  18.314  0.00  0.00    +0.000 A 
ATOM      9  C   UNL     1       1.889   2.510  18.160  0.00  0.00    +0.000 A 
ATOM     10  C   UNL     1       2.942   1.817  18.778  0.00  0.00    +0.000 A 
ATOM     11  N   UNL     1       3.867   2.640  19.282  0.00  0.00    +0.000 NA
ENDBRANCH   1   7
BRANCH   1  12
ATOM     12  C   UNL     1       5.579   5.048  18.822  0.00  0.00    +0.000 C 
BRANCH  12  13
ATOM     13  N   UNL     1       5.688   4.251  17.543  0.00  0.00    +0.000 NA
ATOM     14  H   UNL     1       5.863   3.267  17.768  0.00  0.00    +0.000 HD
BRANCH  13  16
ATOM     15  C   UNL     1       6.533   4.124  14.981  0.00  0.00    +0.000 C 
ATOM     16  S   UNL     1       6.946   4.839  16.555  0.00  0.00    +0.000 S 
ATOM     17  O   UNL     1       8.161   4.218  17.029  0.00  0.00    +0.000 OA
ATOM     18  O   UNL     1       6.800   6.275  16.472  0.00  0.00    +0.000 OA
ENDBRANCH  13  16
ENDBRANCH  12  13
ENDBRANCH   1  12
TORSDOF 5
ENDMDL
MODEL 9
REMARK VINA RESULT:      -6.0      2.231      3.839
REMARK  Name = 
REMARK  6 active torsions:
REMARK  status: ('A' for Active; 'I' for Inactive)
REMARK    1  A    between atoms: C_1  and  S_2
REMARK    2  A    between atoms: S_2  and  N_5
REMARK    3  A    between atoms: N_5  and  C_6
REMARK    4  A    between atoms: C_6  and  C_7
REMARK    5  A    between atoms: C_7  and  C_8
REMARK    6  A    between atoms: C_7  and  N_13
REMARK                            x       y       z     vdW  Elec       q    Type
REMARK                         _______ _______ _______ _____ _____    ______ ____
ROOT
ATOM      1  C   UNL     1       3.830   5.234  18.344  0.00  0.00    +0.000 C 
ENDROOT
BRANCH   1   2
ATOM      2  C   UNL     1       2.862   4.155  18.802  0.00  0.00    +0.000 A 
ATOM      3  C   UNL     1       2.856   3.579  20.121  0.00  0.00    +0.000 A 
ATOM      4  C   UNL     1       1.911   2.588  20.267  0.00  0.00    +0.000 A 
ATOM      5  S   UNL     1       1.002   2.356  18.841  0.00  0.00    +0.000 S 
ATOM      6  C   UNL     1       1.884   3.566  18.017  0.00  0.00    +0.000 A 
ENDBRANCH   1   2
BRANCH   1   7
ATOM      7  N   UNL     1       3.175   6.546  18.454  0.00  0.00    +0.000 N 
ATOM      8  C   UNL     1       3.164   7.540  17.511  0.00  0.00    +0.000 A 
ATOM      9  C   UNL     1       2.428   8.571  18.048  0.00  0.00    +0.000 A 
ATOM     10  C   UNL     1       2.036   8.109  19.315  0.00  0.00    +0.000 A 
ATOM     11  N   UNL     1       2.479   6.873  19.566  0.00  0.00    +0.000 NA
ENDBRANCH   1   7
BRANCH   1  12
ATOM     12  C   UNL     1       5.182   5.223  19.089  0.00  0.00    +0.000 C 
BRANCH  12  13
ATOM     13  N   UNL     1       6.099   4.115  18.627  0.00  0.00    +0.000 NA
ATOM     14  H   UNL     1       6.602   3.729  19.433  0.00  0.00    +0.000 HD
BRANCH  13  16
ATOM     15  C   UNL     1       7.312   6.411  17.882  0.00  0.00    +0.000 C 
ATOM     16  S   UNL     1       7.222   4.683  17.477  0.00  0.00    +0.000 S 
ATOM     17  O   UNL     1       6.585   4.553  16.187  0.00  0.00    +0.000 OA
ATOM     18  O   UNL     1       8.496   4.065  17.769  0.00  0.00    +0.000 OA
ENDBRANCH  13  16
ENDBRANCH  12  13
ENDBRANCH   1  12
TORSDOF 5
ENDMDL
