MODEL 1
REMARK VINA RESULT:      -7.4      0.000      0.000
REMARK  Name = 
REMARK  7 active torsions:
REMARK  status: ('A' for Active; 'I' for Inactive)
REMARK    1  A    between atoms: C_2  and  C_3
REMARK    2  A    between atoms: C_3  and  C_4
REMARK    3  A    between atoms: C_4  and  N_5
REMARK    4  A    between atoms: C_7  and  C_8
REMARK    5  A    between atoms: C_11  and  O_12
REMARK    6  A    between atoms: O_12  and  C_13
REMARK    7  A    between atoms: C_13  and  C_14
REMARK                            x       y       z     vdW  Elec       q    Type
REMARK                         _______ _______ _______ _____ _____    ______ ____
ROOT
ATOM      1  C   UNL     1       5.581   5.754  18.263  0.00  0.00    +0.000 A 
ATOM      2  C   UNL     1       6.788   5.602  18.950  0.00  0.00    +0.000 A 
ATOM      3  C   UNL     1       7.826   6.530  18.778  0.00  0.00    +0.000 A 
ATOM      4  C   UNL     1       7.680   7.611  17.903  0.00  0.00    +0.000 A 
ATOM      5  C   UNL     1       6.457   7.791  17.255  0.00  0.00    +0.000 A 
ATOM      6  C   UNL     1       5.414   6.869  17.425  0.00  0.00    +0.000 A 
ENDROOT
BRANCH   1   9
ATOM      7  N   UNL     1       2.739   3.642  18.663  0.00  0.00    +0.000 N 
ATOM      8  N   UNL     1       3.225   4.931  18.570  0.00  0.00    +0.000 NA
ATOM      9  C   UNL     1       4.508   4.753  18.427  0.00  0.00    +0.000 A 
ATOM     10  O   UNL     1       4.924   3.463  18.425  0.00  0.00    +0.000 OA
ATOM     11  C   UNL     1       3.780   2.750  18.572  0.00  0.00    +0.000 A 
ATOM     12  S   UNL     1       3.833   1.103  18.591  0.00  0.00    +0.000 S 
BRANCH   7  13
ATOM     13  C   UNL     1       1.320   3.313  18.773  0.00  0.00    +0.000 C 
BRANCH  13  14
ATOM     14  C   UNL     1       0.685   3.605  20.127  0.00  0.00    +0.000 C 
BRANCH  14  16
ATOM     15  N   UNL     1       2.185   2.682  22.086  0.00  0.00    +0.000 NA
ATOM     16  C   UNL     1       1.526   3.087  21.222  0.00  0.00    +0.000 C 
ENDBRANCH  14  16
ENDBRANCH  13  14
ENDBRANCH   7  13
ENDBRANCH   1   9
BRANCH   4  17
ATOM     17  O   UNL     1       8.653   8.532  17.614  0.00  0.00    +0.000 OA
BRANCH  17  18
ATOM     18  C   UNL     1       8.303   9.902  17.859  0.00  0.00    +0.000 C 
BRANCH  18  19
ATOM     19  C   UNL     1       9.422  10.657  18.547  0.00  0.00    +0.000 A 
ATOM     20  C   UNL     1      10.457  11.265  17.825  0.00  0.00    +0.000 A 
ATOM     21  C   UNL     1      11.472  11.960  18.487  0.00  0.00    +0.000 A 
ATOM     22  C   UNL     1      11.458  12.072  19.876  0.00  0.00    +0.000 A 
ATOM     23  C   UNL     1      10.418  11.503  20.605  0.00  0.00    +0.000 A 
ATOM     24  C   UNL     1       9.402  10.806  19.945  0.00  0.00    +0.000 A 
ENDBRANCH  18  19
ENDBRANCH  17  18
ENDBRANCH   4  17
TORSDOF 7
ENDMDL
MODEL 2
REMARK VINA RESULT:      -7.3      5.547      8.019
REMARK  Name = 
REMARK  7 active torsions:
REMARK  status: ('A' for Active; 'I' for Inactive)
REMARK    1  A    between atoms: C_2  and  C_3
REMARK    2  A    between atoms: C_3  and  C_4
REMARK    3  A    between atoms: C_4  and  N_5
REMARK    4  A    between atoms: C_7  and  C_8
REMARK    5  A    between atoms: C_11  and  O_12
REMARK    6  A    between atoms: O_12  and  C_13
REMARK    7  A    between atoms: C_13  and  C_14
REMARK                            x       y       z     vdW  Elec       q    Type
REMARK                         _______ _______ _______ _____ _____    ______ ____
ROOT
ATOM      1  C   UNL     1       2.492   7.388  18.679  0.00  0.00    +0.000 A 
ATOM      2  C   UNL     1       2.384   8.437  17.761  0.00  0.00    +0.000 A 
ATOM      3  C   UNL     1       1.702   9.615  18.104  0.00  0.00    +0.000 A 
ATOM      4  C   UNL     1       1.103   9.753  19.359  0.00  0.00    +0.000 A 
ATOM      5  C   UNL     1       1.254   8.727  20.293  0.00  0.00    +0.000 A 
ATOM      6  C   UNL     1       1.936   7.549  19.959  0.00  0.00    +0.000 A 
ENDROOT
BRANCH   1   9
ATOM      7  N   UNL     1       3.805   4.204  17.766  0.00  0.00    +0.000 N 
ATOM      8  N   UNL     1       2.697   4.943  18.133  0.00  0.00    +0.000 NA
ATOM      9  C   UNL     1       3.183   6.141  18.295  0.00  0.00    +0.000 A 
ATOM     10  O   UNL     1       4.515   6.268  18.078  0.00  0.00    +0.000 OA
ATOM     11  C   UNL     1       4.910   5.019  17.732  0.00  0.00    +0.000 A 
ATOM     12  S   UNL     1       6.487   4.731  17.349  0.00  0.00    +0.000 S 
BRANCH   7  13
ATOM     13  C   UNL     1       3.756   2.788  17.410  0.00  0.00    +0.000 C 
BRANCH  13  14
ATOM     14  C   UNL     1       3.319   1.848  18.526  0.00  0.00    +0.000 C 
BRANCH  14  16
ATOM     15  N   UNL     1       5.002   1.958  20.548  0.00  0.00    +0.000 NA
ATOM     16  C   UNL     1       4.260   1.908  19.659  0.00  0.00    +0.000 C 
ENDBRANCH  14  16
ENDBRANCH  13  14
ENDBRANCH   7  13
ENDBRANCH   1   9
BRANCH   4  17
ATOM     17  O   UNL     1       0.361  10.831  19.767  0.00  0.00    +0.000 OA
BRANCH  17  18
ATOM     18  C   UNL     1      -0.165  11.656  18.718  0.00  0.00    +0.000 C 
BRANCH  18  19
ATOM     19  C   UNL     1      -1.583  11.270  18.351  0.00  0.00    +0.000 A 
ATOM     20  C   UNL     1      -1.860  10.189  17.504  0.00  0.00    +0.000 A 
ATOM     21  C   UNL     1      -3.179   9.852  17.188  0.00  0.00    +0.000 A 
ATOM     22  C   UNL     1      -4.238  10.580  17.728  0.00  0.00    +0.000 A 
ATOM     23  C   UNL     1      -3.981  11.635  18.598  0.00  0.00    +0.000 A 
ATOM     24  C   UNL     1      -2.663  11.974  18.914  0.00  0.00    +0.000 A 
ENDBRANCH  18  19
ENDBRANCH  17  18
ENDBRANCH   4  17
TORSDOF 7
ENDMDL
MODEL 3
REMARK VINA RESULT:      -7.3      0.967      1.730
REMARK  Name = 
REMARK  7 active torsions:
REMARK  status: ('A' for Active; 'I' for Inactive)
REMARK    1  A    between atoms: C_2  and  C_3
REMARK    2  A    between atoms: C_3  and  C_4
REMARK    3  A    between atoms: C_4  and  N_5
REMARK    4  A    between atoms: C_7  and  C_8
REMARK    5  A    between atoms: C_11  and  O_12
REMARK    6  A    between atoms: O_12  and  C_13
REMARK    7  A    between atoms: C_13  and  C_14
REMARK                            x       y       z     vdW  Elec       q    Type
REMARK                         _______ _______ _______ _____ _____    ______ ____
ROOT
ATOM      1  C   UNL     1       5.962   5.596  18.182  0.00  0.00    +0.000 A 
ATOM      2  C   UNL     1       5.621   6.559  17.228  0.00  0.00    +0.000 A 
ATOM      3  C   UNL     1       6.479   7.639  16.970  0.00  0.00    +0.000 A 
ATOM      4  C   UNL     1       7.678   7.783  17.674  0.00  0.00    +0.000 A 
ATOM      5  C   UNL     1       8.043   6.795  18.590  0.00  0.00    +0.000 A 
ATOM      6  C   UNL     1       7.192   5.712  18.852  0.00  0.00    +0.000 A 
ENDROOT
BRANCH   1   9
ATOM      7  N   UNL     1       3.520   3.029  18.561  0.00  0.00    +0.000 N 
ATOM      8  N   UNL     1       3.934   4.145  17.861  0.00  0.00    +0.000 NA
ATOM      9  C   UNL     1       5.037   4.482  18.469  0.00  0.00    +0.000 A 
ATOM     10  O   UNL     1       5.392   3.698  19.516  0.00  0.00    +0.000 OA
ATOM     11  C   UNL     1       4.415   2.759  19.568  0.00  0.00    +0.000 A 
ATOM     12  S   UNL     1       4.478   1.567  20.704  0.00  0.00    +0.000 S 
BRANCH   7  13
ATOM     13  C   UNL     1       2.341   2.241  18.212  0.00  0.00    +0.000 C 
BRANCH  13  14
ATOM     14  C   UNL     1       1.056   2.634  18.930  0.00  0.00    +0.000 C 
BRANCH  14  16
ATOM     15  N   UNL     1       1.503   4.597  20.628  0.00  0.00    +0.000 NA
ATOM     16  C   UNL     1       1.303   3.734  19.880  0.00  0.00    +0.000 C 
ENDBRANCH  14  16
ENDBRANCH  13  14
ENDBRANCH   7  13
ENDBRANCH   1   9
BRANCH   4  17
ATOM     17  O   UNL     1       8.551   8.832  17.544  0.00  0.00    +0.000 OA
BRANCH  17  18
ATOM     18  C   UNL     1       8.201  10.023  18.263  0.00  0.00    +0.000 C 
BRANCH  18  19
ATOM     19  C   UNL     1       9.425  10.768  18.754  0.00  0.00    +0.000 A 
ATOM     20  C   UNL     1       9.620  11.058  20.111  0.00  0.00    +0.000 A 
ATOM     21  C   UNL     1      10.762  11.742  20.536  0.00  0.00    +0.000 A 
ATOM     22  C   UNL     1      11.732  12.130  19.613  0.00  0.00    +0.000 A 
ATOM     23  C   UNL     1      11.570  11.820  18.266  0.00  0.00    +0.000 A 
ATOM     24  C   UNL     1      10.427  11.137  17.840  0.00  0.00    +0.000 A 
ENDBRANCH  18  19
ENDBRANCH  17  18
ENDBRANCH   4  17
TORSDOF 7
ENDMDL
MODEL 4
REMARK VINA RESULT:      -7.3      5.581      8.100
REMARK  Name = 
REMARK  7 active torsions:
REMARK  status: ('A' for Active; 'I' for Inactive)
REMARK    1  A    between atoms: C_2  and  C_3
REMARK    2  A    between atoms: C_3  and  C_4
REMARK    3  A    between atoms: C_4  and  N_5
REMARK    4  A    between atoms: C_7  and  C_8
REMARK    5  A    between atoms: C_11  and  O_12
REMARK    6  A    between atoms: O_12  and  C_13
REMARK    7  A    between atoms: C_13  and  C_14
REMARK                            x       y       z     vdW  Elec       q    Type
REMARK                         _______ _______ _______ _____ _____    ______ ____
ROOT
ATOM      1  C   UNL     1       2.434   7.388  19.040  0.00  0.00    +0.000 A 
ATOM      2  C   UNL     1       1.745   7.792  20.187  0.00  0.00    +0.000 A 
ATOM      3  C   UNL     1       1.021   8.995  20.195  0.00  0.00    +0.000 A 
ATOM      4  C   UNL     1       0.994   9.819  19.066  0.00  0.00    +0.000 A 
ATOM      5  C   UNL     1       1.640   9.392  17.906  0.00  0.00    +0.000 A 
ATOM      6  C   UNL     1       2.362   8.190  17.889  0.00  0.00    +0.000 A 
ENDROOT
BRANCH   1   9
ATOM      7  N   UNL     1       4.042   4.219  19.302  0.00  0.00    +0.000 N 
ATOM      8  N   UNL     1       2.978   5.017  19.674  0.00  0.00    +0.000 NA
ATOM      9  C   UNL     1       3.218   6.138  19.054  0.00  0.00    +0.000 A 
ATOM     10  O   UNL     1       4.350   6.164  18.309  0.00  0.00    +0.000 OA
ATOM     11  C   UNL     1       4.875   4.924  18.467  0.00  0.00    +0.000 A 
ATOM     12  S   UNL     1       6.270   4.514  17.690  0.00  0.00    +0.000 S 
BRANCH   7  13
ATOM     13  C   UNL     1       4.190   2.822  19.702  0.00  0.00    +0.000 C 
BRANCH  13  14
ATOM     14  C   UNL     1       3.586   1.802  18.745  0.00  0.00    +0.000 C 
BRANCH  14  16
ATOM     15  N   UNL     1       1.015   2.252  18.391  0.00  0.00    +0.000 NA
ATOM     16  C   UNL     1       2.148   2.056  18.548  0.00  0.00    +0.000 C 
ENDBRANCH  14  16
ENDBRANCH  13  14
ENDBRANCH   7  13
ENDBRANCH   1   9
BRANCH   4  17
ATOM     17  O   UNL     1       0.375  11.040  18.993  0.00  0.00    +0.000 OA
BRANCH  17  18
ATOM     18  C   UNL     1      -0.968  11.087  19.496  0.00  0.00    +0.000 C 
BRANCH  18  19
ATOM     19  C   UNL     1      -1.992  10.935  18.390  0.00  0.00    +0.000 A 
ATOM     20  C   UNL     1      -3.191  11.659  18.388  0.00  0.00    +0.000 A 
ATOM     21  C   UNL     1      -4.115  11.502  17.351  0.00  0.00    +0.000 A 
ATOM     22  C   UNL     1      -3.845  10.634  16.295  0.00  0.00    +0.000 A 
ATOM     23  C   UNL     1      -2.643   9.934  16.265  0.00  0.00    +0.000 A 
ATOM     24  C   UNL     1      -1.718  10.088  17.302  0.00  0.00    +0.000 A 
ENDBRANCH  18  19
ENDBRANCH  17  18
ENDBRANCH   4  17
TORSDOF 7
ENDMDL
MODEL 5
REMARK VINA RESULT:      -7.2      5.610      8.119
REMARK  Name = 
REMARK  7 active torsions:
REMARK  status: ('A' for Active; 'I' for Inactive)
REMARK    1  A    between atoms: C_2  and  C_3
REMARK    2  A    between atoms: C_3  and  C_4
REMARK    3  A    between atoms: C_4  and  N_5
REMARK    4  A    between atoms: C_7  and  C_8
REMARK    5  A    between atoms: C_11  and  O_12
REMARK    6  A    between atoms: O_12  and  C_13
REMARK    7  A    between atoms: C_13  and  C_14
REMARK                            x       y       z     vdW  Elec       q    Type
REMARK                         _______ _______ _______ _____ _____    ______ ____
ROOT
ATOM      1  C   UNL     1       2.445   7.577  18.823  0.00  0.00    +0.000 A 
ATOM      2  C   UNL     1       2.446   8.461  17.740  0.00  0.00    +0.000 A 
ATOM      3  C   UNL     1       1.735   9.669  17.808  0.00  0.00    +0.000 A 
ATOM      4  C   UNL     1       0.997  10.000  18.949  0.00  0.00    +0.000 A 
ATOM      5  C   UNL     1       1.037   9.141  20.048  0.00  0.00    +0.000 A 
ATOM      6  C   UNL     1       1.747   7.934  19.989  0.00  0.00    +0.000 A 
ENDROOT
BRANCH   1   9
ATOM      7  N   UNL     1       3.851   4.306  18.680  0.00  0.00    +0.000 N 
ATOM      8  N   UNL     1       2.735   5.081  18.927  0.00  0.00    +0.000 NA
ATOM      9  C   UNL     1       3.170   6.294  18.727  0.00  0.00    +0.000 A 
ATOM     10  O   UNL     1       4.475   6.399  18.377  0.00  0.00    +0.000 OA
ATOM     11  C   UNL     1       4.908   5.115  18.342  0.00  0.00    +0.000 A 
ATOM     12  S   UNL     1       6.467   4.783  17.922  0.00  0.00    +0.000 S 
BRANCH   7  13
ATOM     13  C   UNL     1       3.850   2.845  18.715  0.00  0.00    +0.000 C 
BRANCH  13  14
ATOM     14  C   UNL     1       4.296   2.223  20.032  0.00  0.00    +0.000 C 
BRANCH  14  16
ATOM     15  N   UNL     1       2.533   2.695  21.931  0.00  0.00    +0.000 NA
ATOM     16  C   UNL     1       3.311   2.489  21.096  0.00  0.00    +0.000 C 
ENDBRANCH  14  16
ENDBRANCH  13  14
ENDBRANCH   7  13
ENDBRANCH   1   9
BRANCH   4  17
ATOM     17  O   UNL     1       0.218  11.119  19.090  0.00  0.00    +0.000 OA
BRANCH  17  18
ATOM     18  C   UNL     1      -1.136  10.886  19.501  0.00  0.00    +0.000 C 
BRANCH  18  19
ATOM     19  C   UNL     1      -2.085  10.831  18.321  0.00  0.00    +0.000 A 
ATOM     20  C   UNL     1      -3.257  11.596  18.278  0.00  0.00    +0.000 A 
ATOM     21  C   UNL     1      -4.110  11.529  17.173  0.00  0.00    +0.000 A 
ATOM     22  C   UNL     1      -3.795  10.711  16.090  0.00  0.00    +0.000 A 
ATOM     23  C   UNL     1      -2.616   9.970  16.103  0.00  0.00    +0.000 A 
ATOM     24  C   UNL     1      -1.762  10.035  17.207  0.00  0.00    +0.000 A 
ENDBRANCH  18  19
ENDBRANCH  17  18
ENDBRANCH   4  17
TORSDOF 7
ENDMDL
MODEL 6
REMARK VINA RESULT:      -7.2      5.742      8.553
REMARK  Name = 
REMARK  7 active torsions:
REMARK  status: ('A' for Active; 'I' for Inactive)
REMARK    1  A    between atoms: C_2  and  C_3
REMARK    2  A    between atoms: C_3  and  C_4
REMARK    3  A    between atoms: C_4  and  N_5
REMARK    4  A    between atoms: C_7  and  C_8
REMARK    5  A    between atoms: C_11  and  O_12
REMARK    6  A    between atoms: O_12  and  C_13
REMARK    7  A    between atoms: C_13  and  C_14
REMARK                            x       y       z     vdW  Elec       q    Type
REMARK                         _______ _______ _______ _____ _____    ______ ____
ROOT
ATOM      1  C   UNL     1       2.361   7.659  18.883  0.00  0.00    +0.000 A 
ATOM      2  C   UNL     1       2.356   8.558  17.813  0.00  0.00    +0.000 A 
ATOM      3  C   UNL     1       1.637   9.760  17.898  0.00  0.00    +0.000 A 
ATOM      4  C   UNL     1       0.897  10.071  19.043  0.00  0.00    +0.000 A 
ATOM      5  C   UNL     1       0.942   9.197  20.130  0.00  0.00    +0.000 A 
ATOM      6  C   UNL     1       1.661   7.995  20.054  0.00  0.00    +0.000 A 
ENDROOT
BRANCH   1   9
ATOM      7  N   UNL     1       4.361   4.759  18.345  0.00  0.00    +0.000 N 
ATOM      8  N   UNL     1       4.099   6.071  18.002  0.00  0.00    +0.000 NA
ATOM      9  C   UNL     1       3.094   6.382  18.770  0.00  0.00    +0.000 A 
ATOM     10  O   UNL     1       2.655   5.396  19.589  0.00  0.00    +0.000 OA
ATOM     11  C   UNL     1       3.478   4.353  19.317  0.00  0.00    +0.000 A 
ATOM     12  S   UNL     1       3.305   2.932  20.132  0.00  0.00    +0.000 S 
BRANCH   7  13
ATOM     13  C   UNL     1       5.461   3.976  17.788  0.00  0.00    +0.000 C 
BRANCH  13  14
ATOM     14  C   UNL     1       5.591   4.020  16.271  0.00  0.00    +0.000 C 
BRANCH  14  16
ATOM     15  N   UNL     1       7.402   5.789  15.543  0.00  0.00    +0.000 NA
ATOM     16  C   UNL     1       6.603   5.011  15.861  0.00  0.00    +0.000 C 
ENDBRANCH  14  16
ENDBRANCH  13  14
ENDBRANCH   7  13
ENDBRANCH   1   9
BRANCH   4  17
ATOM     17  O   UNL     1       0.111  11.183  19.199  0.00  0.00    +0.000 OA
BRANCH  17  18
ATOM     18  C   UNL     1      -1.256  10.932  19.554  0.00  0.00    +0.000 C 
BRANCH  18  19
ATOM     19  C   UNL     1      -2.150  10.840  18.334  0.00  0.00    +0.000 A 
ATOM     20  C   UNL     1      -3.301  11.626  18.200  0.00  0.00    +0.000 A 
ATOM     21  C   UNL     1      -4.104  11.524  17.061  0.00  0.00    +0.000 A 
ATOM     22  C   UNL     1      -3.758  10.648  16.034  0.00  0.00    +0.000 A 
ATOM     23  C   UNL     1      -2.598   9.885  16.136  0.00  0.00    +0.000 A 
ATOM     24  C   UNL     1      -1.795   9.985  17.276  0.00  0.00    +0.000 A 
ENDBRANCH  18  19
ENDBRANCH  17  18
ENDBRANCH   4  17
TORSDOF 7
ENDMDL
MODEL 7
REMARK VINA RESULT:      -7.2      5.976      8.636
REMARK  Name = 
REMARK  7 active torsions:
REMARK  status: ('A' for Active; 'I' for Inactive)
REMARK    1  A    between atoms: C_2  and  C_3
REMARK    2  A    between atoms: C_3  and  C_4
REMARK    3  A    between atoms: C_4  and  N_5
REMARK    4  A    between atoms: C_7  and  C_8
REMARK    5  A    between atoms: C_11  and  O_12
REMARK    6  A    between atoms: O_12  and  C_13
REMARK    7  A    between atoms: C_13  and  C_14
REMARK                            x       y       z     vdW  Elec       q    Type
REMARK                         _______ _______ _______ _____ _____    ______ ____
ROOT
ATOM      1  C   UNL     1       2.378   7.547  18.844  0.00  0.00    +0.000 A 
ATOM      2  C   UNL     1       1.886   7.732  20.139  0.00  0.00    +0.000 A 
ATOM      3  C   UNL     1       1.038   8.811  20.431  0.00  0.00    +0.000 A 
ATOM      4  C   UNL     1       0.687   9.732  19.438  0.00  0.00    +0.000 A 
ATOM      5  C   UNL     1       1.138   9.519  18.135  0.00  0.00    +0.000 A 
ATOM      6  C   UNL     1       1.983   8.441  17.835  0.00  0.00    +0.000 A 
ENDROOT
BRANCH   1   9
ATOM      7  N   UNL     1       4.809   5.102  17.944  0.00  0.00    +0.000 N 
ATOM      8  N   UNL     1       4.377   6.408  17.829  0.00  0.00    +0.000 NA
ATOM      9  C   UNL     1       3.296   6.427  18.557  0.00  0.00    +0.000 A 
ATOM     10  O   UNL     1       2.963   5.250  19.141  0.00  0.00    +0.000 OA
ATOM     11  C   UNL     1       3.943   4.400  18.748  0.00  0.00    +0.000 A 
ATOM     12  S   UNL     1       3.936   2.837  19.270  0.00  0.00    +0.000 S 
BRANCH   7  13
ATOM     13  C   UNL     1       6.041   4.596  17.344  0.00  0.00    +0.000 C 
BRANCH  13  14
ATOM     14  C   UNL     1       5.909   4.088  15.914  0.00  0.00    +0.000 C 
BRANCH  14  16
ATOM     15  N   UNL     1       7.603   5.331  14.325  0.00  0.00    +0.000 NA
ATOM     16  C   UNL     1       6.856   4.783  15.022  0.00  0.00    +0.000 C 
ENDBRANCH  14  16
ENDBRANCH  13  14
ENDBRANCH   7  13
ENDBRANCH   1   9
BRANCH   4  17
ATOM     17  O   UNL     1      -0.078  10.852  19.634  0.00  0.00    +0.000 OA
BRANCH  17  18
ATOM     18  C   UNL     1      -0.393  11.603  18.452  0.00  0.00    +0.000 C 
BRANCH  18  19
ATOM     19  C   UNL     1      -1.864  11.516  18.103  0.00  0.00    +0.000 A 
ATOM     20  C   UNL     1      -2.304  11.007  16.874  0.00  0.00    +0.000 A 
ATOM     21  C   UNL     1      -3.668  10.934  16.582  0.00  0.00    +0.000 A 
ATOM     22  C   UNL     1      -4.611  11.352  17.519  0.00  0.00    +0.000 A 
ATOM     23  C   UNL     1      -4.192  11.829  18.758  0.00  0.00    +0.000 A 
ATOM     24  C   UNL     1      -2.828  11.904  19.051  0.00  0.00    +0.000 A 
ENDBRANCH  18  19
ENDBRANCH  17  18
ENDBRANCH   4  17
TORSDOF 7
ENDMDL
MODEL 8
REMARK VINA RESULT:      -7.2      5.591      8.496
REMARK  Name = 
REMARK  7 active torsions:
REMARK  status: ('A' for Active; 'I' for Inactive)
REMARK    1  A    between atoms: C_2  and  C_3
REMARK    2  A    between atoms: C_3  and  C_4
REMARK    3  A    between atoms: C_4  and  N_5
REMARK    4  A    between atoms: C_7  and  C_8
REMARK    5  A    between atoms: C_11  and  O_12
REMARK    6  A    between atoms: O_12  and  C_13
REMARK    7  A    between atoms: C_13  and  C_14
REMARK                            x       y       z     vdW  Elec       q    Type
REMARK                         _______ _______ _______ _____ _____    ______ ____
ROOT
ATOM      1  C   UNL     1       3.200   7.064  18.388  0.00  0.00    +0.000 A 
ATOM      2  C   UNL     1       2.807   8.162  17.617  0.00  0.00    +0.000 A 
ATOM      3  C   UNL     1       1.855   9.070  18.105  0.00  0.00    +0.000 A 
ATOM      4  C   UNL     1       1.269   8.884  19.360  0.00  0.00    +0.000 A 
ATOM      5  C   UNL     1       1.697   7.817  20.151  0.00  0.00    +0.000 A 
ATOM      6  C   UNL     1       2.650   6.907  19.671  0.00  0.00    +0.000 A 
ENDROOT
BRANCH   1   9
ATOM      7  N   UNL     1       5.281   4.628  16.829  0.00  0.00    +0.000 N 
ATOM      8  N   UNL     1       4.041   5.233  16.885  0.00  0.00    +0.000 NA
ATOM      9  C   UNL     1       4.178   6.098  17.850  0.00  0.00    +0.000 A 
ATOM     10  O   UNL     1       5.394   6.120  18.449  0.00  0.00    +0.000 OA
ATOM     11  C   UNL     1       6.103   5.176  17.784  0.00  0.00    +0.000 A 
ATOM     12  S   UNL     1       7.677   4.894  18.185  0.00  0.00    +0.000 S 
BRANCH   7  13
ATOM     13  C   UNL     1       5.648   3.612  15.846  0.00  0.00    +0.000 C 
BRANCH  13  14
ATOM     14  C   UNL     1       5.755   4.104  14.408  0.00  0.00    +0.000 C 
BRANCH  14  16
ATOM     15  N   UNL     1       7.951   5.519  14.064  0.00  0.00    +0.000 NA
ATOM     16  C   UNL     1       6.983   4.898  14.217  0.00  0.00    +0.000 C 
ENDBRANCH  14  16
ENDBRANCH  13  14
ENDBRANCH   7  13
ENDBRANCH   1   9
BRANCH   4  17
ATOM     17  O   UNL     1       0.285   9.672  19.898  0.00  0.00    +0.000 OA
BRANCH  17  18
ATOM     18  C   UNL     1      -0.014  10.874  19.174  0.00  0.00    +0.000 C 
BRANCH  18  19
ATOM     19  C   UNL     1      -1.396  10.832  18.554  0.00  0.00    +0.000 A 
ATOM     20  C   UNL     1      -2.416  11.701  18.961  0.00  0.00    +0.000 A 
ATOM     21  C   UNL     1      -3.679  11.643  18.367  0.00  0.00    +0.000 A 
ATOM     22  C   UNL     1      -3.935  10.727  17.348  0.00  0.00    +0.000 A 
ATOM     23  C   UNL     1      -2.922   9.879  16.909  0.00  0.00    +0.000 A 
ATOM     24  C   UNL     1      -1.659   9.935  17.502  0.00  0.00    +0.000 A 
ENDBRANCH  18  19
ENDBRANCH  17  18
ENDBRANCH   4  17
TORSDOF 7
ENDMDL
MODEL 9
REMARK VINA RESULT:      -7.1      0.281      1.023
REMARK  Name = 
REMARK  7 active torsions:
REMARK  status: ('A' for Active; 'I' for Inactive)
REMARK    1  A    between atoms: C_2  and  C_3
REMARK    2  A    between atoms: C_3  and  C_4
REMARK    3  A    between atoms: C_4  and  N_5
REMARK    4  A    between atoms: C_7  and  C_8
REMARK    5  A    between atoms: C_11  and  O_12
REMARK    6  A    between atoms: O_12  and  C_13
REMARK    7  A    between atoms: C_13  and  C_14
REMARK                            x       y       z     vdW  Elec       q    Type
REMARK                         _______ _______ _______ _____ _____    ______ ____
ROOT
ATOM      1  C   UNL     1       5.571   5.809  18.227  0.00  0.00    +0.000 A 
ATOM      2  C   UNL     1       6.778   5.613  18.905  0.00  0.00    +0.000 A 
ATOM      3  C   UNL     1       7.830   6.531  18.763  0.00  0.00    +0.000 A 
ATOM      4  C   UNL     1       7.698   7.644  17.927  0.00  0.00    +0.000 A 
ATOM      5  C   UNL     1       6.477   7.866  17.290  0.00  0.00    +0.000 A 
ATOM      6  C   UNL     1       5.420   6.955  17.429  0.00  0.00    +0.000 A 
ENDROOT
BRANCH   1   9
ATOM      7  N   UNL     1       2.697   3.728  18.559  0.00  0.00    +0.000 N 
ATOM      8  N   UNL     1       3.203   5.012  18.510  0.00  0.00    +0.000 NA
ATOM      9  C   UNL     1       4.483   4.819  18.358  0.00  0.00    +0.000 A 
ATOM     10  O   UNL     1       4.879   3.524  18.310  0.00  0.00    +0.000 OA
ATOM     11  C   UNL     1       3.724   2.824  18.434  0.00  0.00    +0.000 A 
ATOM     12  S   UNL     1       3.752   1.176  18.394  0.00  0.00    +0.000 S 
BRANCH   7  13
ATOM     13  C   UNL     1       1.274   3.418  18.661  0.00  0.00    +0.000 C 
BRANCH  13  14
ATOM     14  C   UNL     1       0.876   2.559  19.855  0.00  0.00    +0.000 C 
BRANCH  14  16
ATOM     15  N   UNL     1       2.140   3.340  22.030  0.00  0.00    +0.000 NA
ATOM     16  C   UNL     1       1.581   2.998  21.073  0.00  0.00    +0.000 C 
ENDBRANCH  14  16
ENDBRANCH  13  14
ENDBRANCH   7  13
ENDBRANCH   1   9
BRANCH   4  17
ATOM     17  O   UNL     1       8.685   8.560  17.669  0.00  0.00    +0.000 OA
BRANCH  17  18
ATOM     18  C   UNL     1       8.328   9.934  17.879  0.00  0.00    +0.000 C 
BRANCH  18  19
ATOM     19  C   UNL     1       9.422  10.700  18.593  0.00  0.00    +0.000 A 
ATOM     20  C   UNL     1       9.423  10.865  19.984  0.00  0.00    +0.000 A 
ATOM     21  C   UNL     1      10.449  11.573  20.616  0.00  0.00    +0.000 A 
ATOM     22  C   UNL     1      11.496  12.109  19.869  0.00  0.00    +0.000 A 
ATOM     23  C   UNL     1      11.527  11.925  18.490  0.00  0.00    +0.000 A 
ATOM     24  C   UNL     1      10.501  11.219  17.856  0.00  0.00    +0.000 A 
ENDBRANCH  18  19
ENDBRANCH  17  18
ENDBRANCH   4  17
TORSDOF 7
ENDMDL
