MODEL 1
REMARK VINA RESULT:      -7.8      0.000      0.000
REMARK  Name = 
REMARK  7 active torsions:
REMARK  status: ('A' for Active; 'I' for Inactive)
REMARK    1  A    between atoms: C_2  and  C_3
REMARK    2  A    between atoms: C_3  and  N_4
REMARK    3  A    between atoms: C_10  and  C_11
REMARK    4  A    between atoms: C_12  and  C_13
REMARK    5  A    between atoms: N_20  and  C_21
REMARK    6  A    between atoms: N_22  and  C_23
REMARK    7  A    between atoms: C_23  and  C_24
REMARK                            x       y       z     vdW  Elec       q    Type
REMARK                         _______ _______ _______ _____ _____    ______ ____
ROOT
ATOM      1  N   UNL     1       3.851   4.156  18.498  0.00  0.00    +0.000 N 
ATOM      2  C   UNL     1       5.234   4.309  18.784  0.00  0.00    +0.000 A 
ATOM      3  O   UNL     1       5.922   3.423  19.280  0.00  0.00    +0.000 OA
ATOM      4  C   UNL     1       5.770   5.603  18.443  0.00  0.00    +0.000 A 
ATOM      5  C   UNL     1       4.984   6.604  17.962  0.00  0.00    +0.000 A 
ATOM      6  N   UNL     1       5.684   7.738  17.682  0.00  0.00    +0.000 NA
ATOM      7  C   UNL     1       6.945   7.470  17.969  0.00  0.00    +0.000 A 
ATOM      8  N   UNL     1       7.043   6.165  18.462  0.00  0.00    +0.000 N 
ATOM      9  C   UNL     1       8.258   5.497  18.868  0.00  0.00    +0.000 C 
ATOM     10  N   UNL     1       3.639   6.429  17.736  0.00  0.00    +0.000 N 
ATOM     11  C   UNL     1       3.062   5.168  17.918  0.00  0.00    +0.000 A 
ATOM     12  O   UNL     1       1.897   4.944  17.567  0.00  0.00    +0.000 OA
ENDROOT
BRANCH   7  13
ATOM     13  C   UNL     1       8.073   8.338  17.834  0.00  0.00    +0.000 C 
ATOM     14  C   UNL     1       8.199   9.423  18.619  0.00  0.00    +0.000 C 
BRANCH  14  15
ATOM     15  C   UNL     1       9.332  10.375  18.665  0.00  0.00    +0.000 A 
ATOM     16  C   UNL     1      10.021  10.543  19.885  0.00  0.00    +0.000 A 
ATOM     17  C   UNL     1      11.059  11.474  20.025  0.00  0.00    +0.000 A 
ATOM     18  C   UNL     1      11.436  12.263  18.944  0.00  0.00    +0.000 A 
ATOM     19  C   UNL     1      10.771  12.106  17.727  0.00  0.00    +0.000 A 
ATOM     20 CL   UNL     1      11.221  13.099  16.393  0.00  0.00    +0.000 Cl
ATOM     21  C   UNL     1       9.736  11.172  17.582  0.00  0.00    +0.000 A 
ENDBRANCH  14  15
ENDBRANCH   7  13
BRANCH   1  22
ATOM     22  C   UNL     1       3.184   2.821  18.706  0.00  0.00    +0.000 C 
BRANCH  22  24
ATOM     23  C   UNL     1       2.124   2.768  21.323  0.00  0.00    +0.000 C 
ATOM     24  C   UNL     1       2.613   2.792  20.115  0.00  0.00    +0.000 C 
ENDBRANCH  22  24
ENDBRANCH   1  22
BRANCH  10  25
ATOM     25  C   UNL     1       2.857   7.521  17.170  0.00  0.00    +0.000 C 
BRANCH  25  26
ATOM     26  C   UNL     1       2.105   8.349  18.191  0.00  0.00    +0.000 A 
ATOM     27  C   UNL     1       1.401   9.504  17.808  0.00  0.00    +0.000 A 
ATOM     28  C   UNL     1       0.598  10.187  18.726  0.00  0.00    +0.000 A 
ATOM     29  C   UNL     1       0.498   9.731  20.039  0.00  0.00    +0.000 A 
ATOM     30  C   UNL     1       1.228   8.614  20.443  0.00  0.00    +0.000 A 
ATOM     31  C   UNL     1       2.037   7.935  19.528  0.00  0.00    +0.000 A 
ENDBRANCH  25  26
ENDBRANCH  10  25
TORSDOF 6
ENDMDL
MODEL 2
REMARK VINA RESULT:      -7.7      5.051      8.384
REMARK  Name = 
REMARK  7 active torsions:
REMARK  status: ('A' for Active; 'I' for Inactive)
REMARK    1  A    between atoms: C_2  and  C_3
REMARK    2  A    between atoms: C_3  and  N_4
REMARK    3  A    between atoms: C_10  and  C_11
REMARK    4  A    between atoms: C_12  and  C_13
REMARK    5  A    between atoms: N_20  and  C_21
REMARK    6  A    between atoms: N_22  and  C_23
REMARK    7  A    between atoms: C_23  and  C_24
REMARK                            x       y       z     vdW  Elec       q    Type
REMARK                         _______ _______ _______ _____ _____    ______ ____
ROOT
ATOM      1  N   UNL     1      -0.269  12.452  21.933  0.00  0.00    +0.000 N 
ATOM      2  C   UNL     1       0.067  11.073  21.978  0.00  0.00    +0.000 A 
ATOM      3  O   UNL     1      -0.057  10.380  22.982  0.00  0.00    +0.000 OA
ATOM      4  C   UNL     1       0.574  10.547  20.735  0.00  0.00    +0.000 A 
ATOM      5  C   UNL     1       0.778  11.339  19.647  0.00  0.00    +0.000 A 
ATOM      6  N   UNL     1       1.241  10.647  18.569  0.00  0.00    +0.000 NA
ATOM      7  C   UNL     1       1.325   9.386  18.952  0.00  0.00    +0.000 A 
ATOM      8  N   UNL     1       0.941   9.279  20.292  0.00  0.00    +0.000 N 
ATOM      9  C   UNL     1       0.881   8.061  21.066  0.00  0.00    +0.000 C 
ATOM     10  N   UNL     1       0.477  12.680  19.657  0.00  0.00    +0.000 N 
ATOM     11  C   UNL     1      -0.138  13.246  20.778  0.00  0.00    +0.000 A 
ATOM     12  O   UNL     1      -0.568  14.406  20.751  0.00  0.00    +0.000 OA
ENDROOT
BRANCH   7  13
ATOM     13  C   UNL     1       1.749   8.266  18.172  0.00  0.00    +0.000 C 
ATOM     14  C   UNL     1       2.971   7.731  18.350  0.00  0.00    +0.000 C 
BRANCH  14  15
ATOM     15  C   UNL     1       3.536   6.533  17.689  0.00  0.00    +0.000 A 
ATOM     16  C   UNL     1       2.932   5.282  17.933  0.00  0.00    +0.000 A 
ATOM     17  C   UNL     1       3.449   4.094  17.398  0.00  0.00    +0.000 A 
ATOM     18  C   UNL     1       4.587   4.130  16.601  0.00  0.00    +0.000 A 
ATOM     19  C   UNL     1       5.194   5.359  16.341  0.00  0.00    +0.000 A 
ATOM     20 CL   UNL     1       6.619   5.401  15.372  0.00  0.00    +0.000 Cl
ATOM     21  C   UNL     1       4.677   6.549  16.871  0.00  0.00    +0.000 A 
ENDBRANCH  14  15
ENDBRANCH   7  13
BRANCH   1  22
ATOM     22  C   UNL     1      -0.910  13.108  23.129  0.00  0.00    +0.000 C 
BRANCH  22  24
ATOM     23  C   UNL     1      -3.693  12.650  22.997  0.00  0.00    +0.000 C 
ATOM     24  C   UNL     1      -2.408  12.862  23.058  0.00  0.00    +0.000 C 
ENDBRANCH  22  24
ENDBRANCH   1  22
BRANCH  10  25
ATOM     25  C   UNL     1       0.668  13.469  18.445  0.00  0.00    +0.000 C 
BRANCH  25  26
ATOM     26  C   UNL     1       1.915  14.328  18.446  0.00  0.00    +0.000 A 
ATOM     27  C   UNL     1       3.182  13.762  18.223  0.00  0.00    +0.000 A 
ATOM     28  C   UNL     1       4.311  14.574  18.089  0.00  0.00    +0.000 A 
ATOM     29  C   UNL     1       4.191  15.958  18.187  0.00  0.00    +0.000 A 
ATOM     30  C   UNL     1       2.948  16.529  18.454  0.00  0.00    +0.000 A 
ATOM     31  C   UNL     1       1.818  15.718  18.596  0.00  0.00    +0.000 A 
ENDBRANCH  25  26
ENDBRANCH  10  25
TORSDOF 6
ENDMDL
MODEL 3
REMARK VINA RESULT:      -7.7      5.524      8.470
REMARK  Name = 
REMARK  7 active torsions:
REMARK  status: ('A' for Active; 'I' for Inactive)
REMARK    1  A    between atoms: C_2  and  C_3
REMARK    2  A    between atoms: C_3  and  N_4
REMARK    3  A    between atoms: C_10  and  C_11
REMARK    4  A    between atoms: C_12  and  C_13
REMARK    5  A    between atoms: N_20  and  C_21
REMARK    6  A    between atoms: N_22  and  C_23
REMARK    7  A    between atoms: C_23  and  C_24
REMARK                            x       y       z     vdW  Elec       q    Type
REMARK                         _______ _______ _______ _____ _____    ______ ____
ROOT
ATOM      1  N   UNL     1      -1.498  11.678  22.024  0.00  0.00    +0.000 N 
ATOM      2  C   UNL     1      -0.511  10.679  22.230  0.00  0.00    +0.000 A 
ATOM      3  O   UNL     1      -0.226  10.228  23.334  0.00  0.00    +0.000 OA
ATOM      4  C   UNL     1       0.140  10.233  21.022  0.00  0.00    +0.000 A 
ATOM      5  C   UNL     1      -0.130  10.790  19.811  0.00  0.00    +0.000 A 
ATOM      6  N   UNL     1       0.573  10.214  18.796  0.00  0.00    +0.000 NA
ATOM      7  C   UNL     1       1.298   9.259  19.349  0.00  0.00    +0.000 A 
ATOM      8  N   UNL     1       1.078   9.246  20.730  0.00  0.00    +0.000 N 
ATOM      9  C   UNL     1       1.673   8.335  21.679  0.00  0.00    +0.000 C 
ATOM     10  N   UNL     1      -1.066  11.785  19.660  0.00  0.00    +0.000 N 
ATOM     11  C   UNL     1      -1.835  12.188  20.756  0.00  0.00    +0.000 A 
ATOM     12  O   UNL     1      -2.792  12.959  20.614  0.00  0.00    +0.000 OA
ENDROOT
BRANCH   7  13
ATOM     13  C   UNL     1       2.197   8.359  18.696  0.00  0.00    +0.000 C 
ATOM     14  C   UNL     1       1.958   7.035  18.692  0.00  0.00    +0.000 C 
BRANCH  14  15
ATOM     15  C   UNL     1       2.736   5.981  18.004  0.00  0.00    +0.000 A 
ATOM     16  C   UNL     1       2.183   4.686  17.913  0.00  0.00    +0.000 A 
ATOM     17  C   UNL     1       2.887   3.620  17.337  0.00  0.00    +0.000 A 
ATOM     18  C   UNL     1       4.166   3.824  16.833  0.00  0.00    +0.000 A 
ATOM     19  C   UNL     1       4.727   5.100  16.906  0.00  0.00    +0.000 A 
ATOM     20 CL   UNL     1       6.322   5.348  16.304  0.00  0.00    +0.000 Cl
ATOM     21  C   UNL     1       4.024   6.169  17.478  0.00  0.00    +0.000 A 
ENDBRANCH  14  15
ENDBRANCH   7  13
BRANCH   1  22
ATOM     22  C   UNL     1      -2.332  12.161  23.184  0.00  0.00    +0.000 C 
BRANCH  22  24
ATOM     23  C   UNL     1      -1.249  14.609  24.083  0.00  0.00    +0.000 C 
ATOM     24  C   UNL     1      -1.749  13.479  23.668  0.00  0.00    +0.000 C 
ENDBRANCH  22  24
ENDBRANCH   1  22
BRANCH  10  25
ATOM     25  C   UNL     1      -1.351  12.309  18.329  0.00  0.00    +0.000 C 
BRANCH  25  26
ATOM     26  C   UNL     1      -2.348  11.491  17.534  0.00  0.00    +0.000 A 
ATOM     27  C   UNL     1      -3.724  11.768  17.602  0.00  0.00    +0.000 A 
ATOM     28  C   UNL     1      -4.627  11.104  16.766  0.00  0.00    +0.000 A 
ATOM     29  C   UNL     1      -4.167  10.150  15.861  0.00  0.00    +0.000 A 
ATOM     30  C   UNL     1      -2.810   9.834  15.817  0.00  0.00    +0.000 A 
ATOM     31  C   UNL     1      -1.907  10.491  16.657  0.00  0.00    +0.000 A 
ENDBRANCH  25  26
ENDBRANCH  10  25
TORSDOF 6
ENDMDL
MODEL 4
REMARK VINA RESULT:      -7.7      5.507      8.745
REMARK  Name = 
REMARK  7 active torsions:
REMARK  status: ('A' for Active; 'I' for Inactive)
REMARK    1  A    between atoms: C_2  and  C_3
REMARK    2  A    between atoms: C_3  and  N_4
REMARK    3  A    between atoms: C_10  and  C_11
REMARK    4  A    between atoms: C_12  and  C_13
REMARK    5  A    between atoms: N_20  and  C_21
REMARK    6  A    between atoms: N_22  and  C_23
REMARK    7  A    between atoms: C_23  and  C_24
REMARK                            x       y       z     vdW  Elec       q    Type
REMARK                         _______ _______ _______ _____ _____    ______ ____
ROOT
ATOM      1  N   UNL     1      -0.470  12.527  22.006  0.00  0.00    +0.000 N 
ATOM      2  C   UNL     1      -0.054  11.170  22.041  0.00  0.00    +0.000 A 
ATOM      3  O   UNL     1      -0.131  10.467  23.042  0.00  0.00    +0.000 OA
ATOM      4  C   UNL     1       0.474  10.681  20.792  0.00  0.00    +0.000 A 
ATOM      5  C   UNL     1       0.624  11.488  19.707  0.00  0.00    +0.000 A 
ATOM      6  N   UNL     1       1.118  10.829  18.622  0.00  0.00    +0.000 NA
ATOM      7  C   UNL     1       1.278   9.574  18.998  0.00  0.00    +0.000 A 
ATOM      8  N   UNL     1       0.911   9.438  20.340  0.00  0.00    +0.000 N 
ATOM      9  C   UNL     1       0.926   8.215  21.108  0.00  0.00    +0.000 C 
ATOM     10  N   UNL     1       0.246  12.809  19.725  0.00  0.00    +0.000 N 
ATOM     11  C   UNL     1      -0.394  13.333  20.853  0.00  0.00    +0.000 A 
ATOM     12  O   UNL     1      -0.890  14.467  20.836  0.00  0.00    +0.000 OA
ENDROOT
BRANCH   7  13
ATOM     13  C   UNL     1       1.761   8.484  18.209  0.00  0.00    +0.000 C 
ATOM     14  C   UNL     1       2.677   7.632  18.706  0.00  0.00    +0.000 C 
BRANCH  14  15
ATOM     15  C   UNL     1       3.222   6.417  18.061  0.00  0.00    +0.000 A 
ATOM     16  C   UNL     1       4.362   6.544  17.239  0.00  0.00    +0.000 A 
ATOM     17  C   UNL     1       4.896   5.453  16.541  0.00  0.00    +0.000 A 
ATOM     18  C   UNL     1       4.301   4.201  16.648  0.00  0.00    +0.000 A 
ATOM     19  C   UNL     1       3.177   4.053  17.462  0.00  0.00    +0.000 A 
ATOM     20 CL   UNL     1       2.425   2.508  17.577  0.00  0.00    +0.000 Cl
ATOM     21  C   UNL     1       2.644   5.142  18.166  0.00  0.00    +0.000 A 
ENDBRANCH  14  15
ENDBRANCH   7  13
BRANCH   1  22
ATOM     22  C   UNL     1      -1.140  13.140  23.209  0.00  0.00    +0.000 C 
BRANCH  22  24
ATOM     23  C   UNL     1      -3.904  12.583  23.055  0.00  0.00    +0.000 C 
ATOM     24  C   UNL     1      -2.628  12.840  23.126  0.00  0.00    +0.000 C 
ENDBRANCH  22  24
ENDBRANCH   1  22
BRANCH  10  25
ATOM     25  C   UNL     1       0.382  13.614  18.517  0.00  0.00    +0.000 C 
BRANCH  25  26
ATOM     26  C   UNL     1       1.612  14.497  18.487  0.00  0.00    +0.000 A 
ATOM     27  C   UNL     1       2.877  13.963  18.188  0.00  0.00    +0.000 A 
ATOM     28  C   UNL     1       3.984  14.800  18.027  0.00  0.00    +0.000 A 
ATOM     29  C   UNL     1       3.843  16.178  18.172  0.00  0.00    +0.000 A 
ATOM     30  C   UNL     1       2.603  16.716  18.514  0.00  0.00    +0.000 A 
ATOM     31  C   UNL     1       1.497  15.880  18.684  0.00  0.00    +0.000 A 
ENDBRANCH  25  26
ENDBRANCH  10  25
TORSDOF 6
ENDMDL
MODEL 5
REMARK VINA RESULT:      -7.4      5.901      8.670
REMARK  Name = 
REMARK  7 active torsions:
REMARK  status: ('A' for Active; 'I' for Inactive)
REMARK    1  A    between atoms: C_2  and  C_3
REMARK    2  A    between atoms: C_3  and  N_4
REMARK    3  A    between atoms: C_10  and  C_11
REMARK    4  A    between atoms: C_12  and  C_13
REMARK    5  A    between atoms: N_20  and  C_21
REMARK    6  A    between atoms: N_22  and  C_23
REMARK    7  A    between atoms: C_23  and  C_24
REMARK                            x       y       z     vdW  Elec       q    Type
REMARK                         _______ _______ _______ _____ _____    ______ ____
ROOT
ATOM      1  N   UNL     1      -1.612  11.901  22.030  0.00  0.00    +0.000 N 
ATOM      2  C   UNL     1      -0.645  10.896  22.298  0.00  0.00    +0.000 A 
ATOM      3  O   UNL     1      -0.387  10.490  23.425  0.00  0.00    +0.000 OA
ATOM      4  C   UNL     1       0.019  10.387  21.123  0.00  0.00    +0.000 A 
ATOM      5  C   UNL     1      -0.220  10.894  19.884  0.00  0.00    +0.000 A 
ATOM      6  N   UNL     1       0.491  10.262  18.908  0.00  0.00    +0.000 NA
ATOM      7  C   UNL     1       1.190   9.321  19.516  0.00  0.00    +0.000 A 
ATOM      8  N   UNL     1       0.945   9.373  20.891  0.00  0.00    +0.000 N 
ATOM      9  C   UNL     1       1.507   8.495  21.891  0.00  0.00    +0.000 C 
ATOM     10  N   UNL     1      -1.136  11.896  19.671  0.00  0.00    +0.000 N 
ATOM     11  C   UNL     1      -1.917  12.360  20.734  0.00  0.00    +0.000 A 
ATOM     12  O   UNL     1      -2.858  13.140  20.541  0.00  0.00    +0.000 OA
ENDROOT
BRANCH   7  13
ATOM     13  C   UNL     1       2.085   8.379  18.920  0.00  0.00    +0.000 C 
ATOM     14  C   UNL     1       2.303   7.182  19.496  0.00  0.00    +0.000 C 
BRANCH  14  15
ATOM     15  C   UNL     1       3.130   6.069  18.977  0.00  0.00    +0.000 A 
ATOM     16  C   UNL     1       3.648   6.169  17.668  0.00  0.00    +0.000 A 
ATOM     17  C   UNL     1       4.381   5.128  17.083  0.00  0.00    +0.000 A 
ATOM     18  C   UNL     1       4.618   3.959  17.796  0.00  0.00    +0.000 A 
ATOM     19  C   UNL     1       4.121   3.845  19.095  0.00  0.00    +0.000 A 
ATOM     20 CL   UNL     1       4.394   2.386  19.970  0.00  0.00    +0.000 Cl
ATOM     21  C   UNL     1       3.391   4.886  19.685  0.00  0.00    +0.000 A 
ENDBRANCH  14  15
ENDBRANCH   7  13
BRANCH   1  22
ATOM     22  C   UNL     1      -2.457  12.448  23.152  0.00  0.00    +0.000 C 
BRANCH  22  24
ATOM     23  C   UNL     1      -1.234  14.809  24.101  0.00  0.00    +0.000 C 
ATOM     24  C   UNL     1      -1.799  13.719  23.663  0.00  0.00    +0.000 C 
ENDBRANCH  22  24
ENDBRANCH   1  22
BRANCH  10  25
ATOM     25  C   UNL     1      -1.388  12.365  18.314  0.00  0.00    +0.000 C 
BRANCH  25  26
ATOM     26  C   UNL     1      -2.373  11.520  17.532  0.00  0.00    +0.000 A 
ATOM     27  C   UNL     1      -3.755  11.763  17.613  0.00  0.00    +0.000 A 
ATOM     28  C   UNL     1      -4.649  11.074  16.788  0.00  0.00    +0.000 A 
ATOM     29  C   UNL     1      -4.174  10.128  15.882  0.00  0.00    +0.000 A 
ATOM     30  C   UNL     1      -2.810   9.846  15.825  0.00  0.00    +0.000 A 
ATOM     31  C   UNL     1      -1.916  10.528  16.654  0.00  0.00    +0.000 A 
ENDBRANCH  25  26
ENDBRANCH  10  25
TORSDOF 6
ENDMDL
MODEL 6
REMARK VINA RESULT:      -7.3      5.667      8.982
REMARK  Name = 
REMARK  7 active torsions:
REMARK  status: ('A' for Active; 'I' for Inactive)
REMARK    1  A    between atoms: C_2  and  C_3
REMARK    2  A    between atoms: C_3  and  N_4
REMARK    3  A    between atoms: C_10  and  C_11
REMARK    4  A    between atoms: C_12  and  C_13
REMARK    5  A    between atoms: N_20  and  C_21
REMARK    6  A    between atoms: N_22  and  C_23
REMARK    7  A    between atoms: C_23  and  C_24
REMARK                            x       y       z     vdW  Elec       q    Type
REMARK                         _______ _______ _______ _____ _____    ______ ____
ROOT
ATOM      1  N   UNL     1      -1.671  12.835  21.685  0.00  0.00    +0.000 N 
ATOM      2  C   UNL     1      -1.260  11.567  22.172  0.00  0.00    +0.000 A 
ATOM      3  O   UNL     1      -1.634  11.102  23.243  0.00  0.00    +0.000 OA
ATOM      4  C   UNL     1      -0.355  10.862  21.298  0.00  0.00    +0.000 A 
ATOM      5  C   UNL     1       0.113  11.417  20.147  0.00  0.00    +0.000 A 
ATOM      6  N   UNL     1       0.938  10.582  19.456  0.00  0.00    +0.000 NA
ATOM      7  C   UNL     1       0.996   9.463  20.155  0.00  0.00    +0.000 A 
ATOM      8  N   UNL     1       0.227   9.597  21.315  0.00  0.00    +0.000 N 
ATOM      9  C   UNL     1       0.024   8.585  22.325  0.00  0.00    +0.000 C 
ATOM     10  N   UNL     1      -0.279  12.666  19.730  0.00  0.00    +0.000 N 
ATOM     11  C   UNL     1      -1.252  13.366  20.450  0.00  0.00    +0.000 A 
ATOM     12  O   UNL     1      -1.740  14.414  20.009  0.00  0.00    +0.000 OA
ENDROOT
BRANCH   7  13
ATOM     13  C   UNL     1       1.726   8.275  19.839  0.00  0.00    +0.000 C 
ATOM     14  C   UNL     1       1.989   7.954  18.559  0.00  0.00    +0.000 C 
BRANCH  14  15
ATOM     15  C   UNL     1       2.792   6.813  18.062  0.00  0.00    +0.000 A 
ATOM     16  C   UNL     1       4.059   7.075  17.499  0.00  0.00    +0.000 A 
ATOM     17  C   UNL     1       4.847   6.057  16.948  0.00  0.00    +0.000 A 
ATOM     18  C   UNL     1       4.387   4.745  16.947  0.00  0.00    +0.000 A 
ATOM     19  C   UNL     1       3.140   4.465  17.506  0.00  0.00    +0.000 A 
ATOM     20 CL   UNL     1       2.558   2.843  17.484  0.00  0.00    +0.000 Cl
ATOM     21  C   UNL     1       2.351   5.480  18.063  0.00  0.00    +0.000 A 
ENDBRANCH  14  15
ENDBRANCH   7  13
BRANCH   1  22
ATOM     22  C   UNL     1      -2.698  13.636  22.445  0.00  0.00    +0.000 C 
BRANCH  22  24
ATOM     23  C   UNL     1      -5.260  12.744  21.662  0.00  0.00    +0.000 C 
ATOM     24  C   UNL     1      -4.078  13.155  22.023  0.00  0.00    +0.000 C 
ENDBRANCH  22  24
ENDBRANCH   1  22
BRANCH  10  25
ATOM     25  C   UNL     1       0.215  13.188  18.461  0.00  0.00    +0.000 C 
BRANCH  25  26
ATOM     26  C   UNL     1       1.464  14.038  18.576  0.00  0.00    +0.000 A 
ATOM     27  C   UNL     1       2.731  13.500  18.296  0.00  0.00    +0.000 A 
ATOM     28  C   UNL     1       3.864  14.319  18.270  0.00  0.00    +0.000 A 
ATOM     29  C   UNL     1       3.745  15.681  18.534  0.00  0.00    +0.000 A 
ATOM     30  C   UNL     1       2.500  16.219  18.859  0.00  0.00    +0.000 A 
ATOM     31  C   UNL     1       1.368  15.400  18.892  0.00  0.00    +0.000 A 
ENDBRANCH  25  26
ENDBRANCH  10  25
TORSDOF 6
ENDMDL
MODEL 7
REMARK VINA RESULT:      -7.2      5.318      8.812
REMARK  Name = 
REMARK  7 active torsions:
REMARK  status: ('A' for Active; 'I' for Inactive)
REMARK    1  A    between atoms: C_2  and  C_3
REMARK    2  A    between atoms: C_3  and  N_4
REMARK    3  A    between atoms: C_10  and  C_11
REMARK    4  A    between atoms: C_12  and  C_13
REMARK    5  A    between atoms: N_20  and  C_21
REMARK    6  A    between atoms: N_22  and  C_23
REMARK    7  A    between atoms: C_23  and  C_24
REMARK                            x       y       z     vdW  Elec       q    Type
REMARK                         _______ _______ _______ _____ _____    ______ ____
ROOT
ATOM      1  N   UNL     1      -1.574  12.820  21.763  0.00  0.00    +0.000 N 
ATOM      2  C   UNL     1      -1.162  11.541  22.223  0.00  0.00    +0.000 A 
ATOM      3  O   UNL     1      -1.506  11.069  23.301  0.00  0.00    +0.000 OA
ATOM      4  C   UNL     1      -0.295  10.836  21.312  0.00  0.00    +0.000 A 
ATOM      5  C   UNL     1       0.140  11.397  20.152  0.00  0.00    +0.000 A 
ATOM      6  N   UNL     1       0.931  10.560  19.424  0.00  0.00    +0.000 NA
ATOM      7  C   UNL     1       0.999   9.433  20.109  0.00  0.00    +0.000 A 
ATOM      8  N   UNL     1       0.271   9.564  21.296  0.00  0.00    +0.000 N 
ATOM      9  C   UNL     1       0.090   8.543  22.301  0.00  0.00    +0.000 C 
ATOM     10  N   UNL     1      -0.250  12.655  19.761  0.00  0.00    +0.000 N 
ATOM     11  C   UNL     1      -1.189  13.359  20.521  0.00  0.00    +0.000 A 
ATOM     12  O   UNL     1      -1.679  14.418  20.107  0.00  0.00    +0.000 OA
ENDROOT
BRANCH   7  13
ATOM     13  C   UNL     1       1.703   8.240  19.756  0.00  0.00    +0.000 C 
ATOM     14  C   UNL     1       2.087   8.022  18.484  0.00  0.00    +0.000 C 
BRANCH  14  15
ATOM     15  C   UNL     1       2.884   6.888  17.965  0.00  0.00    +0.000 A 
ATOM     16  C   UNL     1       2.351   5.586  18.070  0.00  0.00    +0.000 A 
ATOM     17  C   UNL     1       3.074   4.457  17.664  0.00  0.00    +0.000 A 
ATOM     18  C   UNL     1       4.353   4.603  17.138  0.00  0.00    +0.000 A 
ATOM     19  C   UNL     1       4.894   5.883  17.019  0.00  0.00    +0.000 A 
ATOM     20 CL   UNL     1       6.488   6.063  16.389  0.00  0.00    +0.000 Cl
ATOM     21  C   UNL     1       4.172   7.015  17.420  0.00  0.00    +0.000 A 
ENDBRANCH  14  15
ENDBRANCH   7  13
BRANCH   1  22
ATOM     22  C   UNL     1      -2.565  13.624  22.565  0.00  0.00    +0.000 C 
BRANCH  22  24
ATOM     23  C   UNL     1      -1.125  15.194  24.419  0.00  0.00    +0.000 C 
ATOM     24  C   UNL     1      -1.790  14.469  23.564  0.00  0.00    +0.000 C 
ENDBRANCH  22  24
ENDBRANCH   1  22
BRANCH  10  25
ATOM     25  C   UNL     1       0.208  13.185  18.481  0.00  0.00    +0.000 C 
BRANCH  25  26
ATOM     26  C   UNL     1       1.451  14.046  18.568  0.00  0.00    +0.000 A 
ATOM     27  C   UNL     1       2.725  13.501  18.330  0.00  0.00    +0.000 A 
ATOM     28  C   UNL     1       3.853  14.323  18.276  0.00  0.00    +0.000 A 
ATOM     29  C   UNL     1       3.725  15.696  18.470  0.00  0.00    +0.000 A 
ATOM     30  C   UNL     1       2.475  16.243  18.752  0.00  0.00    +0.000 A 
ATOM     31  C   UNL     1       1.346  15.421  18.814  0.00  0.00    +0.000 A 
ENDBRANCH  25  26
ENDBRANCH  10  25
TORSDOF 6
ENDMDL
MODEL 8
REMARK VINA RESULT:      -7.2      5.765      8.807
REMARK  Name = 
REMARK  7 active torsions:
REMARK  status: ('A' for Active; 'I' for Inactive)
REMARK    1  A    between atoms: C_2  and  C_3
REMARK    2  A    between atoms: C_3  and  N_4
REMARK    3  A    between atoms: C_10  and  C_11
REMARK    4  A    between atoms: C_12  and  C_13
REMARK    5  A    between atoms: N_20  and  C_21
REMARK    6  A    between atoms: N_22  and  C_23
REMARK    7  A    between atoms: C_23  and  C_24
REMARK                            x       y       z     vdW  Elec       q    Type
REMARK                         _______ _______ _______ _____ _____    ______ ____
ROOT
ATOM      1  N   UNL     1      -1.534  11.856  21.820  0.00  0.00    +0.000 N 
ATOM      2  C   UNL     1      -0.776  10.668  21.999  0.00  0.00    +0.000 A 
ATOM      3  O   UNL     1      -0.808   9.996  23.024  0.00  0.00    +0.000 OA
ATOM      4  C   UNL     1       0.045  10.314  20.868  0.00  0.00    +0.000 A 
ATOM      5  C   UNL     1       0.131  11.105  19.764  0.00  0.00    +0.000 A 
ATOM      6  N   UNL     1       0.942  10.582  18.802  0.00  0.00    +0.000 NA
ATOM      7  C   UNL     1       1.377   9.430  19.276  0.00  0.00    +0.000 A 
ATOM      8  N   UNL     1       0.864   9.230  20.561  0.00  0.00    +0.000 N 
ATOM      9  C   UNL     1       1.095   8.079  21.402  0.00  0.00    +0.000 C 
ATOM     10  N   UNL     1      -0.588  12.269  19.646  0.00  0.00    +0.000 N 
ATOM     11  C   UNL     1      -1.507  12.623  20.639  0.00  0.00    +0.000 A 
ATOM     12  O   UNL     1      -2.282  13.574  20.481  0.00  0.00    +0.000 OA
ENDROOT
BRANCH   7  13
ATOM     13  C   UNL     1       2.250   8.497  18.633  0.00  0.00    +0.000 C 
ATOM     14  C   UNL     1       2.090   7.173  18.814  0.00  0.00    +0.000 C 
BRANCH  14  15
ATOM     15  C   UNL     1       2.848   6.078  18.168  0.00  0.00    +0.000 A 
ATOM     16  C   UNL     1       4.003   6.404  17.425  0.00  0.00    +0.000 A 
ATOM     17  C   UNL     1       4.734   5.432  16.730  0.00  0.00    +0.000 A 
ATOM     18  C   UNL     1       4.327   4.103  16.762  0.00  0.00    +0.000 A 
ATOM     19  C   UNL     1       3.193   3.759  17.497  0.00  0.00    +0.000 A 
ATOM     20 CL   UNL     1       2.674   2.116  17.518  0.00  0.00    +0.000 Cl
ATOM     21  C   UNL     1       2.462   4.729  18.198  0.00  0.00    +0.000 A 
ENDBRANCH  14  15
ENDBRANCH   7  13
BRANCH   1  22
ATOM     22  C   UNL     1      -2.515  12.288  22.879  0.00  0.00    +0.000 C 
BRANCH  22  24
ATOM     23  C   UNL     1      -1.445  14.543  24.200  0.00  0.00    +0.000 C 
ATOM     24  C   UNL     1      -1.939  13.502  23.590  0.00  0.00    +0.000 C 
ENDBRANCH  22  24
ENDBRANCH   1  22
BRANCH  10  25
ATOM     25  C   UNL     1      -0.496  13.050  18.417  0.00  0.00    +0.000 C 
BRANCH  25  26
ATOM     26  C   UNL     1       0.446  14.233  18.496  0.00  0.00    +0.000 A 
ATOM     27  C   UNL     1       1.832  14.065  18.337  0.00  0.00    +0.000 A 
ATOM     28  C   UNL     1       2.682  15.172  18.274  0.00  0.00    +0.000 A 
ATOM     29  C   UNL     1       2.160  16.459  18.380  0.00  0.00    +0.000 A 
ATOM     30  C   UNL     1       0.793  16.638  18.585  0.00  0.00    +0.000 A 
ATOM     31  C   UNL     1      -0.058  15.532  18.656  0.00  0.00    +0.000 A 
ENDBRANCH  25  26
ENDBRANCH  10  25
TORSDOF 6
ENDMDL
MODEL 9
REMARK VINA RESULT:      -7.1      5.234      8.640
REMARK  Name = 
REMARK  7 active torsions:
REMARK  status: ('A' for Active; 'I' for Inactive)
REMARK    1  A    between atoms: C_2  and  C_3
REMARK    2  A    between atoms: C_3  and  N_4
REMARK    3  A    between atoms: C_10  and  C_11
REMARK    4  A    between atoms: C_12  and  C_13
REMARK    5  A    between atoms: N_20  and  C_21
REMARK    6  A    between atoms: N_22  and  C_23
REMARK    7  A    between atoms: C_23  and  C_24
REMARK                            x       y       z     vdW  Elec       q    Type
REMARK                         _______ _______ _______ _____ _____    ______ ____
ROOT
ATOM      1  N   UNL     1      -1.070  12.906  21.980  0.00  0.00    +0.000 N 
ATOM      2  C   UNL     1      -0.704  11.589  22.364  0.00  0.00    +0.000 A 
ATOM      3  O   UNL     1      -0.941  11.118  23.471  0.00  0.00    +0.000 OA
ATOM      4  C   UNL     1      -0.022  10.841  21.336  0.00  0.00    +0.000 A 
ATOM      5  C   UNL     1       0.302  11.395  20.137  0.00  0.00    +0.000 A 
ATOM      6  N   UNL     1       0.922  10.517  19.300  0.00  0.00    +0.000 NA
ATOM      7  C   UNL     1       0.989   9.372  19.954  0.00  0.00    +0.000 A 
ATOM      8  N   UNL     1       0.435   9.530  21.228  0.00  0.00    +0.000 N 
ATOM      9  C   UNL     1       0.306   8.502  22.234  0.00  0.00    +0.000 C 
ATOM     10  N   UNL     1      -0.035  12.689  19.818  0.00  0.00    +0.000 N 
ATOM     11  C   UNL     1      -0.809  13.444  20.705  0.00  0.00    +0.000 A 
ATOM     12  O   UNL     1      -1.263  14.546  20.374  0.00  0.00    +0.000 OA
ENDROOT
BRANCH   7  13
ATOM     13  C   UNL     1       1.544   8.138  19.494  0.00  0.00    +0.000 C 
ATOM     14  C   UNL     1       2.396   8.115  18.453  0.00  0.00    +0.000 C 
BRANCH  14  15
ATOM     15  C   UNL     1       3.117   6.945  17.903  0.00  0.00    +0.000 A 
ATOM     16  C   UNL     1       2.513   5.674  18.004  0.00  0.00    +0.000 A 
ATOM     17  C   UNL     1       3.162   4.511  17.568  0.00  0.00    +0.000 A 
ATOM     18  C   UNL     1       4.435   4.591  17.016  0.00  0.00    +0.000 A 
ATOM     19  C   UNL     1       5.046   5.840  16.901  0.00  0.00    +0.000 A 
ATOM     20 CL   UNL     1       6.634   5.938  16.239  0.00  0.00    +0.000 Cl
ATOM     21  C   UNL     1       4.398   7.006  17.332  0.00  0.00    +0.000 A 
ENDBRANCH  14  15
ENDBRANCH   7  13
BRANCH   1  22
ATOM     22  C   UNL     1      -1.881  13.764  22.917  0.00  0.00    +0.000 C 
BRANCH  22  24
ATOM     23  C   UNL     1      -4.602  13.077  22.602  0.00  0.00    +0.000 C 
ATOM     24  C   UNL     1      -3.346  13.394  22.747  0.00  0.00    +0.000 C 
ENDBRANCH  22  24
ENDBRANCH   1  22
BRANCH  10  25
ATOM     25  C   UNL     1       0.293  13.213  18.497  0.00  0.00    +0.000 C 
BRANCH  25  26
ATOM     26  C   UNL     1       1.569  14.027  18.445  0.00  0.00    +0.000 A 
ATOM     27  C   UNL     1       1.556  15.407  18.710  0.00  0.00    +0.000 A 
ATOM     28  C   UNL     1       2.750  16.128  18.795  0.00  0.00    +0.000 A 
ATOM     29  C   UNL     1       3.969  15.482  18.607  0.00  0.00    +0.000 A 
ATOM     30  C   UNL     1       3.993  14.123  18.298  0.00  0.00    +0.000 A 
ATOM     31  C   UNL     1       2.800  13.402  18.204  0.00  0.00    +0.000 A 
ENDBRANCH  25  26
ENDBRANCH  10  25
TORSDOF 6
ENDMDL
